MODEL 1
REMARK VINA RESULT:      -7.9      0.000      0.000
REMARK  Name = 
REMARK  10 active torsions:
REMARK  status: ('A' for Active; 'I' for Inactive)
REMARK    1  A    between atoms: C_1  and  N_2
REMARK    2  A    between atoms: N_2  and  C_3
REMARK    3  A    between atoms: C_3  and  C_4
REMARK    4  A    between atoms: C_5  and  C_6
REMARK    5  A    between atoms: C_6  and  N_7
REMARK    6  A    between atoms: C_12  and  C_14
REMARK    7  A    between atoms: C_14  and  C_15
REMARK    8  A    between atoms: C_15  and  C_16
REMARK    9  A    between atoms: C_16  and  N_17
REMARK   10  A    between atoms: C_18  and  C_20
REMARK                            x       y       z     vdW  Elec       q    Type
REMARK                         _______ _______ _______ _____ _____    ______ ____
ROOT
ATOM      1  C   UNL     1       7.960   6.303  19.235  0.00  0.00    +0.000 C 
ATOM      2  N   UNL     1       7.380   6.138  17.881  0.00  0.00    +0.000 N 
ATOM      3  C   UNL     1       7.495   5.130  16.940  0.00  0.00    +0.000 C 
ATOM      4  O   UNL     1       8.177   4.134  17.173  0.00  0.00    +0.000 OA
ENDROOT
BRANCH   2   5
ATOM      5  C   UNL     1       7.198   7.369  17.303  0.00  0.00    +0.000 C 
BRANCH   5   6
ATOM      6  C   UNL     1       7.992   8.533  17.871  0.00  0.00    +0.000 C 
ATOM      7  C   UNL     1       8.673   9.533  18.358  0.00  0.00    +0.000 C 
BRANCH   7   8
ATOM      8  C   UNL     1       9.467  10.698  18.927  0.00  0.00    +0.000 C 
BRANCH   8   9
ATOM      9  N   UNL     1       9.907  11.581  17.837  0.00  0.00    +0.000 NA
ATOM     10  C   UNL     1      11.334  11.908  17.980  0.00  0.00    +0.000 C 
ATOM     11  C   UNL     1      11.359  13.112  18.902  0.00  0.00    +0.000 C 
ATOM     12  C   UNL     1      10.164  13.914  18.428  0.00  0.00    +0.000 C 
ATOM     13  C   UNL     1       9.204  12.879  17.853  0.00  0.00    +0.000 C 
ENDBRANCH   8   9
ENDBRANCH   7   8
ENDBRANCH   5   6
ENDBRANCH   2   5
BRANCH   3  14
ATOM     14  C   UNL     1       6.718   5.232  15.597  0.00  0.00    +0.000 C 
BRANCH  14  15
ATOM     15  C   UNL     1       5.219   4.970  15.764  0.00  0.00    +0.000 C 
BRANCH  15  16
ATOM     16  C   UNL     1       4.921   3.514  16.109  0.00  0.00    +0.000 C 
BRANCH  16  17
ATOM     17  N   UNL     1       4.351   3.382  17.425  0.00  0.00    +0.000 N 
ATOM     18  C   UNL     1       2.999   3.223  17.618  0.00  0.00    +0.000 C 
ATOM     19  O   UNL     1       2.189   3.114  16.707  0.00  0.00    +0.000 OA
ATOM     20  H   UNL     1       4.984   3.316  18.211  0.00  0.00    +0.000 HD
BRANCH  18  21
ATOM     21  C   UNL     1       2.563   3.156  19.036  0.00  0.00    +0.000 A 
ATOM     22  C   UNL     1       3.342   2.522  20.014  0.00  0.00    +0.000 A 
ATOM     23  C   UNL     1       2.888   2.463  21.331  0.00  0.00    +0.000 A 
ATOM     24  C   UNL     1       1.668   3.045  21.673  0.00  0.00    +0.000 A 
ATOM     25  C   UNL     1       0.903   3.698  20.706  0.00  0.00    +0.000 A 
ATOM     26  C   UNL     1       1.352   3.759  19.387  0.00  0.00    +0.000 A 
ENDBRANCH  18  21
ENDBRANCH  16  17
ENDBRANCH  15  16
ENDBRANCH  14  15
ENDBRANCH   3  14
TORSDOF 9
ENDMDL
MODEL 2
REMARK VINA RESULT:      -7.6      1.108      1.463
REMARK  Name = 
REMARK  10 active torsions:
REMARK  status: ('A' for Active; 'I' for Inactive)
REMARK    1  A    between atoms: C_1  and  N_2
REMARK    2  A    between atoms: N_2  and  C_3
REMARK    3  A    between atoms: C_3  and  C_4
REMARK    4  A    between atoms: C_5  and  C_6
REMARK    5  A    between atoms: C_6  and  N_7
REMARK    6  A    between atoms: C_12  and  C_14
REMARK    7  A    between atoms: C_14  and  C_15
REMARK    8  A    between atoms: C_15  and  C_16
REMARK    9  A    between atoms: C_16  and  N_17
REMARK   10  A    between atoms: C_18  and  C_20
REMARK                            x       y       z     vdW  Elec       q    Type
REMARK                         _______ _______ _______ _____ _____    ______ ____
ROOT
ATOM      1  C   UNL     1       8.148   6.328  19.220  0.00  0.00    +0.000 C 
ATOM      2  N   UNL     1       7.476   6.352  17.899  0.00  0.00    +0.000 N 
ATOM      3  C   UNL     1       7.405   5.422  16.878  0.00  0.00    +0.000 C 
ATOM      4  O   UNL     1       7.962   4.331  16.987  0.00  0.00    +0.000 OA
ENDROOT
BRANCH   2   5
ATOM      5  C   UNL     1       7.425   7.641  17.431  0.00  0.00    +0.000 C 
BRANCH   5   6
ATOM      6  C   UNL     1       8.175   8.702  18.218  0.00  0.00    +0.000 C 
ATOM      7  C   UNL     1       8.819   9.613  18.895  0.00  0.00    +0.000 C 
BRANCH   7   8
ATOM      8  C   UNL     1       9.569  10.675  19.682  0.00  0.00    +0.000 C 
BRANCH   8   9
ATOM      9  N   UNL     1      10.369  11.502  18.767  0.00  0.00    +0.000 NA
ATOM     10  C   UNL     1      10.990  12.622  19.490  0.00  0.00    +0.000 C 
ATOM     11  C   UNL     1       9.937  13.713  19.481  0.00  0.00    +0.000 C 
ATOM     12  C   UNL     1       9.347  13.590  18.091  0.00  0.00    +0.000 C 
ATOM     13  C   UNL     1       9.543  12.127  17.713  0.00  0.00    +0.000 C 
ENDBRANCH   8   9
ENDBRANCH   7   8
ENDBRANCH   5   6
ENDBRANCH   2   5
BRANCH   3  14
ATOM     14  C   UNL     1       6.574   5.734  15.602  0.00  0.00    +0.000 C 
BRANCH  14  15
ATOM     15  C   UNL     1       5.127   5.247  15.709  0.00  0.00    +0.000 C 
BRANCH  15  16
ATOM     16  C   UNL     1       5.036   3.814  16.224  0.00  0.00    +0.000 C 
BRANCH  16  17
ATOM     17  N   UNL     1       4.019   3.672  17.235  0.00  0.00    +0.000 N 
ATOM     18  C   UNL     1       4.332   3.550  18.568  0.00  0.00    +0.000 C 
ATOM     19  O   UNL     1       5.472   3.619  19.009  0.00  0.00    +0.000 OA
ATOM     20  H   UNL     1       3.053   3.756  16.950  0.00  0.00    +0.000 HD
BRANCH  18  21
ATOM     21  C   UNL     1       3.175   3.358  19.477  0.00  0.00    +0.000 A 
ATOM     22  C   UNL     1       1.871   3.696  19.088  0.00  0.00    +0.000 A 
ATOM     23  C   UNL     1       0.813   3.519  19.978  0.00  0.00    +0.000 A 
ATOM     24  C   UNL     1       1.053   2.995  21.249  0.00  0.00    +0.000 A 
ATOM     25  C   UNL     1       2.346   2.635  21.629  0.00  0.00    +0.000 A 
ATOM     26  C   UNL     1       3.408   2.812  20.742  0.00  0.00    +0.000 A 
ENDBRANCH  18  21
ENDBRANCH  16  17
ENDBRANCH  15  16
ENDBRANCH  14  15
ENDBRANCH   3  14
TORSDOF 9
ENDMDL
MODEL 3
REMARK VINA RESULT:      -7.4      0.971      1.076
REMARK  Name = 
REMARK  10 active torsions:
REMARK  status: ('A' for Active; 'I' for Inactive)
REMARK    1  A    between atoms: C_1  and  N_2
REMARK    2  A    between atoms: N_2  and  C_3
REMARK    3  A    between atoms: C_3  and  C_4
REMARK    4  A    between atoms: C_5  and  C_6
REMARK    5  A    between atoms: C_6  and  N_7
REMARK    6  A    between atoms: C_12  and  C_14
REMARK    7  A    between atoms: C_14  and  C_15
REMARK    8  A    between atoms: C_15  and  C_16
REMARK    9  A    between atoms: C_16  and  N_17
REMARK   10  A    between atoms: C_18  and  C_20
REMARK                            x       y       z     vdW  Elec       q    Type
REMARK                         _______ _______ _______ _____ _____    ______ ____
ROOT
ATOM      1  C   UNL     1       7.916   6.183  19.175  0.00  0.00    +0.000 C 
ATOM      2  N   UNL     1       7.433   6.133  17.775  0.00  0.00    +0.000 N 
ATOM      3  C   UNL     1       7.509   5.153  16.802  0.00  0.00    +0.000 C 
ATOM      4  O   UNL     1       8.052   4.076  17.043  0.00  0.00    +0.000 OA
ENDROOT
BRANCH   2   5
ATOM      5  C   UNL     1       7.439   7.397  17.240  0.00  0.00    +0.000 C 
BRANCH   5   6
ATOM      6  C   UNL     1       8.130   8.491  18.035  0.00  0.00    +0.000 C 
ATOM      7  C   UNL     1       8.724   9.430  18.718  0.00  0.00    +0.000 C 
BRANCH   7   8
ATOM      8  C   UNL     1       9.416  10.525  19.514  0.00  0.00    +0.000 C 
BRANCH   8   9
ATOM      9  N   UNL     1       9.544  11.736  18.690  0.00  0.00    +0.000 NA
ATOM     10  C   UNL     1      10.650  11.595  17.731  0.00  0.00    +0.000 C 
ATOM     11  C   UNL     1      11.879  12.043  18.497  0.00  0.00    +0.000 C 
ATOM     12  C   UNL     1      11.358  13.219  19.296  0.00  0.00    +0.000 C 
ATOM     13  C   UNL     1       9.876  12.927  19.497  0.00  0.00    +0.000 C 
ENDBRANCH   8   9
ENDBRANCH   7   8
ENDBRANCH   5   6
ENDBRANCH   2   5
BRANCH   3  14
ATOM     14  C   UNL     1       6.860   5.391  15.410  0.00  0.00    +0.000 C 
BRANCH  14  15
ATOM     15  C   UNL     1       5.330   5.391  15.467  0.00  0.00    +0.000 C 
BRANCH  15  16
ATOM     16  C   UNL     1       4.767   4.038  15.891  0.00  0.00    +0.000 C 
BRANCH  16  17
ATOM     17  N   UNL     1       4.046   4.125  17.134  0.00  0.00    +0.000 N 
ATOM     18  C   UNL     1       3.635   3.003  17.815  0.00  0.00    +0.000 C 
ATOM     19  O   UNL     1       3.901   1.860  17.467  0.00  0.00    +0.000 OA
ATOM     20  H   UNL     1       3.925   5.038  17.549  0.00  0.00    +0.000 HD
BRANCH  18  21
ATOM     21  C   UNL     1       2.856   3.260  19.052  0.00  0.00    +0.000 A 
ATOM     22  C   UNL     1       1.998   2.293  19.594  0.00  0.00    +0.000 A 
ATOM     23  C   UNL     1       1.268   2.581  20.747  0.00  0.00    +0.000 A 
ATOM     24  C   UNL     1       1.402   3.825  21.363  0.00  0.00    +0.000 A 
ATOM     25  C   UNL     1       2.273   4.780  20.838  0.00  0.00    +0.000 A 
ATOM     26  C   UNL     1       3.005   4.497  19.685  0.00  0.00    +0.000 A 
ENDBRANCH  18  21
ENDBRANCH  16  17
ENDBRANCH  15  16
ENDBRANCH  14  15
ENDBRANCH   3  14
TORSDOF 9
ENDMDL
MODEL 4
REMARK VINA RESULT:      -7.3      1.781      2.129
REMARK  Name = 
REMARK  10 active torsions:
REMARK  status: ('A' for Active; 'I' for Inactive)
REMARK    1  A    between atoms: C_1  and  N_2
REMARK    2  A    between atoms: N_2  and  C_3
REMARK    3  A    between atoms: C_3  and  C_4
REMARK    4  A    between atoms: C_5  and  C_6
REMARK    5  A    between atoms: C_6  and  N_7
REMARK    6  A    between atoms: C_12  and  C_14
REMARK    7  A    between atoms: C_14  and  C_15
REMARK    8  A    between atoms: C_15  and  C_16
REMARK    9  A    between atoms: C_16  and  N_17
REMARK   10  A    between atoms: C_18  and  C_20
REMARK                            x       y       z     vdW  Elec       q    Type
REMARK                         _______ _______ _______ _____ _____    ______ ____
ROOT
ATOM      1  C   UNL     1       8.103   6.300  19.012  0.00  0.00    +0.000 C 
ATOM      2  N   UNL     1       7.269   6.263  17.787  0.00  0.00    +0.000 N 
ATOM      3  C   UNL     1       7.193   5.357  16.745  0.00  0.00    +0.000 C 
ATOM      4  O   UNL     1       7.901   4.351  16.739  0.00  0.00    +0.000 OA
ENDROOT
BRANCH   2   5
ATOM      5  C   UNL     1       6.985   7.543  17.383  0.00  0.00    +0.000 C 
BRANCH   5   6
ATOM      6  C   UNL     1       7.889   8.654  17.890  0.00  0.00    +0.000 C 
ATOM      7  C   UNL     1       8.664   9.608  18.326  0.00  0.00    +0.000 C 
BRANCH   7   8
ATOM      8  C   UNL     1       9.568  10.721  18.832  0.00  0.00    +0.000 C 
BRANCH   8   9
ATOM      9  N   UNL     1       9.700  11.763  17.804  0.00  0.00    +0.000 NA
ATOM     10  C   UNL     1      10.627  12.814  18.249  0.00  0.00    +0.000 C 
ATOM     11  C   UNL     1       9.762  13.774  19.044  0.00  0.00    +0.000 C 
ATOM     12  C   UNL     1       8.482  13.810  18.235  0.00  0.00    +0.000 C 
ATOM     13  C   UNL     1       8.422  12.454  17.542  0.00  0.00    +0.000 C 
ENDBRANCH   8   9
ENDBRANCH   7   8
ENDBRANCH   5   6
ENDBRANCH   2   5
BRANCH   3  14
ATOM     14  C   UNL     1       6.170   5.581  15.596  0.00  0.00    +0.000 C 
BRANCH  14  15
ATOM     15  C   UNL     1       5.484   4.284  15.158  0.00  0.00    +0.000 C 
BRANCH  15  16
ATOM     16  C   UNL     1       4.687   3.641  16.288  0.00  0.00    +0.000 C 
BRANCH  16  17
ATOM     17  N   UNL     1       4.171   4.625  17.206  0.00  0.00    +0.000 N 
ATOM     18  C   UNL     1       2.875   4.583  17.662  0.00  0.00    +0.000 C 
ATOM     19  O   UNL     1       2.085   3.689  17.388  0.00  0.00    +0.000 OA
ATOM     20  H   UNL     1       4.817   5.304  17.585  0.00  0.00    +0.000 HD
BRANCH  18  21
ATOM     21  C   UNL     1       2.481   5.699  18.559  0.00  0.00    +0.000 A 
ATOM     22  C   UNL     1       2.059   5.468  19.876  0.00  0.00    +0.000 A 
ATOM     23  C   UNL     1       1.678   6.540  20.681  0.00  0.00    +0.000 A 
ATOM     24  C   UNL     1       1.728   7.840  20.178  0.00  0.00    +0.000 A 
ATOM     25  C   UNL     1       2.171   8.074  18.875  0.00  0.00    +0.000 A 
ATOM     26  C   UNL     1       2.552   7.004  18.065  0.00  0.00    +0.000 A 
ENDBRANCH  18  21
ENDBRANCH  16  17
ENDBRANCH  15  16
ENDBRANCH  14  15
ENDBRANCH   3  14
TORSDOF 9
ENDMDL
MODEL 5
REMARK VINA RESULT:      -7.2      1.972      9.975
REMARK  Name = 
REMARK  10 active torsions:
REMARK  status: ('A' for Active; 'I' for Inactive)
REMARK    1  A    between atoms: C_1  and  N_2
REMARK    2  A    between atoms: N_2  and  C_3
REMARK    3  A    between atoms: C_3  and  C_4
REMARK    4  A    between atoms: C_5  and  C_6
REMARK    5  A    between atoms: C_6  and  N_7
REMARK    6  A    between atoms: C_12  and  C_14
REMARK    7  A    between atoms: C_14  and  C_15
REMARK    8  A    between atoms: C_15  and  C_16
REMARK    9  A    between atoms: C_16  and  N_17
REMARK   10  A    between atoms: C_18  and  C_20
REMARK                            x       y       z     vdW  Elec       q    Type
REMARK                         _______ _______ _______ _____ _____    ______ ____
ROOT
ATOM      1  C   UNL     1       5.560   5.568  14.771  0.00  0.00    +0.000 C 
ATOM      2  N   UNL     1       5.950   6.093  16.101  0.00  0.00    +0.000 N 
ATOM      3  C   UNL     1       6.984   5.766  16.959  0.00  0.00    +0.000 C 
ATOM      4  O   UNL     1       7.796   4.894  16.655  0.00  0.00    +0.000 OA
ENDROOT
BRANCH   2   5
ATOM      5  C   UNL     1       4.834   6.523  16.773  0.00  0.00    +0.000 C 
BRANCH   5   6
ATOM      6  C   UNL     1       3.918   5.463  17.359  0.00  0.00    +0.000 C 
ATOM      7  C   UNL     1       3.130   4.553  17.862  0.00  0.00    +0.000 C 
BRANCH   7   8
ATOM      8  C   UNL     1       2.213   3.492  18.450  0.00  0.00    +0.000 C 
BRANCH   8   9
ATOM      9  N   UNL     1       1.450   4.058  19.572  0.00  0.00    +0.000 NA
ATOM     10  C   UNL     1       2.357   4.563  20.613  0.00  0.00    +0.000 C 
ATOM     11  C   UNL     1       2.650   3.356  21.482  0.00  0.00    +0.000 C 
ATOM     12  C   UNL     1       1.305   2.660  21.542  0.00  0.00    +0.000 C 
ATOM     13  C   UNL     1       0.610   3.046  20.242  0.00  0.00    +0.000 C 
ENDBRANCH   8   9
ENDBRANCH   7   8
ENDBRANCH   5   6
ENDBRANCH   2   5
BRANCH   3  14
ATOM     14  C   UNL     1       7.154   6.540  18.297  0.00  0.00    +0.000 C 
BRANCH  14  15
ATOM     15  C   UNL     1       8.280   7.576  18.238  0.00  0.00    +0.000 C 
BRANCH  15  16
ATOM     16  C   UNL     1       7.760   8.977  17.931  0.00  0.00    +0.000 C 
BRANCH  16  17
ATOM     17  N   UNL     1       8.820   9.952  17.930  0.00  0.00    +0.000 N 
ATOM     18  C   UNL     1       9.328  10.474  19.096  0.00  0.00    +0.000 C 
ATOM     19  O   UNL     1       8.978  10.114  20.212  0.00  0.00    +0.000 OA
ATOM     20  H   UNL     1       9.252  10.181  17.045  0.00  0.00    +0.000 HD
BRANCH  18  21
ATOM     21  C   UNL     1      10.379  11.508  18.924  0.00  0.00    +0.000 A 
ATOM     22  C   UNL     1      10.890  12.224  20.015  0.00  0.00    +0.000 A 
ATOM     23  C   UNL     1      11.863  13.202  19.811  0.00  0.00    +0.000 A 
ATOM     24  C   UNL     1      12.332  13.456  18.522  0.00  0.00    +0.000 A 
ATOM     25  C   UNL     1      11.842  12.728  17.437  0.00  0.00    +0.000 A 
ATOM     26  C   UNL     1      10.868  11.750  17.637  0.00  0.00    +0.000 A 
ENDBRANCH  18  21
ENDBRANCH  16  17
ENDBRANCH  15  16
ENDBRANCH  14  15
ENDBRANCH   3  14
TORSDOF 9
ENDMDL
MODEL 6
REMARK VINA RESULT:      -7.2      1.407      1.695
REMARK  Name = 
REMARK  10 active torsions:
REMARK  status: ('A' for Active; 'I' for Inactive)
REMARK    1  A    between atoms: C_1  and  N_2
REMARK    2  A    between atoms: N_2  and  C_3
REMARK    3  A    between atoms: C_3  and  C_4
REMARK    4  A    between atoms: C_5  and  C_6
REMARK    5  A    between atoms: C_6  and  N_7
REMARK    6  A    between atoms: C_12  and  C_14
REMARK    7  A    between atoms: C_14  and  C_15
REMARK    8  A    between atoms: C_15  and  C_16
REMARK    9  A    between atoms: C_16  and  N_17
REMARK   10  A    between atoms: C_18  and  C_20
REMARK                            x       y       z     vdW  Elec       q    Type
REMARK                         _______ _______ _______ _____ _____    ______ ____
ROOT
ATOM      1  C   UNL     1       8.165   6.399  19.194  0.00  0.00    +0.000 C 
ATOM      2  N   UNL     1       7.581   6.393  17.832  0.00  0.00    +0.000 N 
ATOM      3  C   UNL     1       7.506   5.413  16.859  0.00  0.00    +0.000 C 
ATOM      4  O   UNL     1       7.975   4.295  17.063  0.00  0.00    +0.000 OA
ENDROOT
BRANCH   2   5
ATOM      5  C   UNL     1       7.653   7.654  17.294  0.00  0.00    +0.000 C 
BRANCH   5   6
ATOM      6  C   UNL     1       8.282   8.744  18.145  0.00  0.00    +0.000 C 
ATOM      7  C   UNL     1       8.822   9.680  18.875  0.00  0.00    +0.000 C 
BRANCH   7   8
ATOM      8  C   UNL     1       9.452  10.770  19.726  0.00  0.00    +0.000 C 
BRANCH   8   9
ATOM      9  N   UNL     1       9.661  11.978  18.915  0.00  0.00    +0.000 NA
ATOM     10  C   UNL     1      10.465  11.667  17.723  0.00  0.00    +0.000 C 
ATOM     11  C   UNL     1      11.902  11.789  18.189  0.00  0.00    +0.000 C 
ATOM     12  C   UNL     1      11.850  12.993  19.106  0.00  0.00    +0.000 C 
ATOM     13  C   UNL     1      10.423  13.014  19.641  0.00  0.00    +0.000 C 
ENDBRANCH   8   9
ENDBRANCH   7   8
ENDBRANCH   5   6
ENDBRANCH   2   5
BRANCH   3  14
ATOM     14  C   UNL     1       6.782   5.708  15.515  0.00  0.00    +0.000 C 
BRANCH  14  15
ATOM     15  C   UNL     1       5.273   5.460  15.594  0.00  0.00    +0.000 C 
BRANCH  15  16
ATOM     16  C   UNL     1       4.589   6.377  16.604  0.00  0.00    +0.000 C 
BRANCH  16  17
ATOM     17  N   UNL     1       3.551   5.691  17.331  0.00  0.00    +0.000 N 
ATOM     18  C   UNL     1       3.838   4.737  18.279  0.00  0.00    +0.000 C 
ATOM     19  O   UNL     1       4.973   4.444  18.628  0.00  0.00    +0.000 OA
ATOM     20  H   UNL     1       2.597   5.995  17.193  0.00  0.00    +0.000 HD
BRANCH  18  21
ATOM     21  C   UNL     1       2.658   4.085  18.899  0.00  0.00    +0.000 A 
ATOM     22  C   UNL     1       2.104   4.556  20.098  0.00  0.00    +0.000 A 
ATOM     23  C   UNL     1       1.008   3.903  20.660  0.00  0.00    +0.000 A 
ATOM     24  C   UNL     1       0.458   2.791  20.022  0.00  0.00    +0.000 A 
ATOM     25  C   UNL     1       0.993   2.335  18.817  0.00  0.00    +0.000 A 
ATOM     26  C   UNL     1       2.091   2.984  18.251  0.00  0.00    +0.000 A 
ENDBRANCH  18  21
ENDBRANCH  16  17
ENDBRANCH  15  16
ENDBRANCH  14  15
ENDBRANCH   3  14
TORSDOF 9
ENDMDL
MODEL 7
REMARK VINA RESULT:      -7.2      2.824      3.341
REMARK  Name = 
REMARK  10 active torsions:
REMARK  status: ('A' for Active; 'I' for Inactive)
REMARK    1  A    between atoms: C_1  and  N_2
REMARK    2  A    between atoms: N_2  and  C_3
REMARK    3  A    between atoms: C_3  and  C_4
REMARK    4  A    between atoms: C_5  and  C_6
REMARK    5  A    between atoms: C_6  and  N_7
REMARK    6  A    between atoms: C_12  and  C_14
REMARK    7  A    between atoms: C_14  and  C_15
REMARK    8  A    between atoms: C_15  and  C_16
REMARK    9  A    between atoms: C_16  and  N_17
REMARK   10  A    between atoms: C_18  and  C_20
REMARK                            x       y       z     vdW  Elec       q    Type
REMARK                         _______ _______ _______ _____ _____    ______ ____
ROOT
ATOM      1  C   UNL     1       8.242   6.411  19.095  0.00  0.00    +0.000 C 
ATOM      2  N   UNL     1       7.347   6.149  17.943  0.00  0.00    +0.000 N 
ATOM      3  C   UNL     1       7.283   5.104  17.038  0.00  0.00    +0.000 C 
ATOM      4  O   UNL     1       8.066   4.159  17.121  0.00  0.00    +0.000 OA
ENDROOT
BRANCH   2   5
ATOM      5  C   UNL     1       6.944   7.338  17.392  0.00  0.00    +0.000 C 
BRANCH   5   6
ATOM      6  C   UNL     1       7.775   8.572  17.702  0.00  0.00    +0.000 C 
ATOM      7  C   UNL     1       8.489   9.630  17.968  0.00  0.00    +0.000 C 
BRANCH   7   8
ATOM      8  C   UNL     1       9.320  10.865  18.278  0.00  0.00    +0.000 C 
BRANCH   8   9
ATOM      9  N   UNL     1      10.063  10.664  19.530  0.00  0.00    +0.000 NA
ATOM     10  C   UNL     1       9.189  10.886  20.692  0.00  0.00    +0.000 C 
ATOM     11  C   UNL     1       9.262  12.380  20.943  0.00  0.00    +0.000 C 
ATOM     12  C   UNL     1      10.723  12.687  20.684  0.00  0.00    +0.000 C 
ATOM     13  C   UNL     1      11.171  11.629  19.683  0.00  0.00    +0.000 C 
ENDBRANCH   8   9
ENDBRANCH   7   8
ENDBRANCH   5   6
ENDBRANCH   2   5
BRANCH   3  14
ATOM     14  C   UNL     1       6.185   5.098  15.939  0.00  0.00    +0.000 C 
BRANCH  14  15
ATOM     15  C   UNL     1       4.897   4.409  16.399  0.00  0.00    +0.000 C 
BRANCH  15  16
ATOM     16  C   UNL     1       4.643   4.595  17.892  0.00  0.00    +0.000 C 
BRANCH  16  17
ATOM     17  N   UNL     1       3.976   5.841  18.170  0.00  0.00    +0.000 N 
ATOM     18  C   UNL     1       2.782   5.889  18.849  0.00  0.00    +0.000 C 
ATOM     19  O   UNL     1       2.229   4.906  19.326  0.00  0.00    +0.000 OA
ATOM     20  H   UNL     1       4.455   6.699  17.932  0.00  0.00    +0.000 HD
BRANCH  18  21
ATOM     21  C   UNL     1       2.195   7.244  19.008  0.00  0.00    +0.000 A 
ATOM     22  C   UNL     1       1.754   7.711  20.254  0.00  0.00    +0.000 A 
ATOM     23  C   UNL     1       1.190   8.982  20.358  0.00  0.00    +0.000 A 
ATOM     24  C   UNL     1       1.077   9.788  19.226  0.00  0.00    +0.000 A 
ATOM     25  C   UNL     1       1.538   9.334  17.989  0.00  0.00    +0.000 A 
ATOM     26  C   UNL     1       2.102   8.063  17.880  0.00  0.00    +0.000 A 
ENDBRANCH  18  21
ENDBRANCH  16  17
ENDBRANCH  15  16
ENDBRANCH  14  15
ENDBRANCH   3  14
TORSDOF 9
ENDMDL
MODEL 8
REMARK VINA RESULT:      -7.1      2.965      3.447
REMARK  Name = 
REMARK  10 active torsions:
REMARK  status: ('A' for Active; 'I' for Inactive)
REMARK    1  A    between atoms: C_1  and  N_2
REMARK    2  A    between atoms: N_2  and  C_3
REMARK    3  A    between atoms: C_3  and  C_4
REMARK    4  A    between atoms: C_5  and  C_6
REMARK    5  A    between atoms: C_6  and  N_7
REMARK    6  A    between atoms: C_12  and  C_14
REMARK    7  A    between atoms: C_14  and  C_15
REMARK    8  A    between atoms: C_15  and  C_16
REMARK    9  A    between atoms: C_16  and  N_17
REMARK   10  A    between atoms: C_18  and  C_20
REMARK                            x       y       z     vdW  Elec       q    Type
REMARK                         _______ _______ _______ _____ _____    ______ ____
ROOT
ATOM      1  C   UNL     1       8.163   5.887  19.557  0.00  0.00    +0.000 C 
ATOM      2  N   UNL     1       7.090   5.951  18.536  0.00  0.00    +0.000 N 
ATOM      3  C   UNL     1       6.192   5.005  18.075  0.00  0.00    +0.000 C 
ATOM      4  O   UNL     1       6.193   3.866  18.538  0.00  0.00    +0.000 OA
ENDROOT
BRANCH   2   5
ATOM      5  C   UNL     1       7.429   6.861  17.567  0.00  0.00    +0.000 C 
BRANCH   5   6
ATOM      6  C   UNL     1       8.044   8.173  18.023  0.00  0.00    +0.000 C 
ATOM      7  C   UNL     1       8.573   9.299  18.413  0.00  0.00    +0.000 C 
BRANCH   7   8
ATOM      8  C   UNL     1       9.189  10.612  18.869  0.00  0.00    +0.000 C 
BRANCH   8   9
ATOM      9  N   UNL     1       9.447  11.473  17.706  0.00  0.00    +0.000 NA
ATOM     10  C   UNL     1      10.853  11.904  17.682  0.00  0.00    +0.000 C 
ATOM     11  C   UNL     1      10.886  13.147  18.550  0.00  0.00    +0.000 C 
ATOM     12  C   UNL     1       9.593  13.843  18.177  0.00  0.00    +0.000 C 
ATOM     13  C   UNL     1       8.657  12.720  17.747  0.00  0.00    +0.000 C 
ENDBRANCH   8   9
ENDBRANCH   7   8
ENDBRANCH   5   6
ENDBRANCH   2   5
BRANCH   3  14
ATOM     14  C   UNL     1       5.140   5.395  16.999  0.00  0.00    +0.000 C 
BRANCH  14  15
ATOM     15  C   UNL     1       4.159   4.260  16.698  0.00  0.00    +0.000 C 
BRANCH  15  16
ATOM     16  C   UNL     1       2.939   4.291  17.613  0.00  0.00    +0.000 C 
BRANCH  16  17
ATOM     17  N   UNL     1       2.487   5.637  17.856  0.00  0.00    +0.000 N 
ATOM     18  C   UNL     1       2.578   6.220  19.098  0.00  0.00    +0.000 C 
ATOM     19  O   UNL     1       3.101   5.684  20.066  0.00  0.00    +0.000 OA
ATOM     20  H   UNL     1       2.182   6.185  17.063  0.00  0.00    +0.000 HD
BRANCH  18  21
ATOM     21  C   UNL     1       2.020   7.592  19.197  0.00  0.00    +0.000 A 
ATOM     22  C   UNL     1       1.941   8.436  18.081  0.00  0.00    +0.000 A 
ATOM     23  C   UNL     1       1.429   9.725  18.219  0.00  0.00    +0.000 A 
ATOM     24  C   UNL     1       0.985  10.167  19.466  0.00  0.00    +0.000 A 
ATOM     25  C   UNL     1       1.040   9.320  20.573  0.00  0.00    +0.000 A 
ATOM     26  C   UNL     1       1.553   8.030  20.440  0.00  0.00    +0.000 A 
ENDBRANCH  18  21
ENDBRANCH  16  17
ENDBRANCH  15  16
ENDBRANCH  14  15
ENDBRANCH   3  14
TORSDOF 9
ENDMDL
MODEL 9
REMARK VINA RESULT:      -7.0      2.016      2.394
REMARK  Name = 
REMARK  10 active torsions:
REMARK  status: ('A' for Active; 'I' for Inactive)
REMARK    1  A    between atoms: C_1  and  N_2
REMARK    2  A    between atoms: N_2  and  C_3
REMARK    3  A    between atoms: C_3  and  C_4
REMARK    4  A    between atoms: C_5  and  C_6
REMARK    5  A    between atoms: C_6  and  N_7
REMARK    6  A    between atoms: C_12  and  C_14
REMARK    7  A    between atoms: C_14  and  C_15
REMARK    8  A    between atoms: C_15  and  C_16
REMARK    9  A    between atoms: C_16  and  N_17
REMARK   10  A    between atoms: C_18  and  C_20
REMARK                            x       y       z     vdW  Elec       q    Type
REMARK                         _______ _______ _______ _____ _____    ______ ____
ROOT
ATOM      1  C   UNL     1       7.944   5.684  19.012  0.00  0.00    +0.000 C 
ATOM      2  N   UNL     1       6.940   6.314  18.122  0.00  0.00    +0.000 N 
ATOM      3  C   UNL     1       5.786   5.826  17.535  0.00  0.00    +0.000 C 
ATOM      4  O   UNL     1       5.431   4.664  17.729  0.00  0.00    +0.000 OA
ENDROOT
BRANCH   2   5
ATOM      5  C   UNL     1       7.542   7.281  17.357  0.00  0.00    +0.000 C 
BRANCH   5   6
ATOM      6  C   UNL     1       8.165   8.461  18.084  0.00  0.00    +0.000 C 
ATOM      7  C   UNL     1       8.699   9.474  18.708  0.00  0.00    +0.000 C 
BRANCH   7   8
ATOM      8  C   UNL     1       9.322  10.655  19.434  0.00  0.00    +0.000 C 
BRANCH   8   9
ATOM      9  N   UNL     1       9.522  11.769  18.495  0.00  0.00    +0.000 NA
ATOM     10  C   UNL     1      10.674  11.507  17.620  0.00  0.00    +0.000 C 
ATOM     11  C   UNL     1      11.870  12.014  18.403  0.00  0.00    +0.000 C 
ATOM     12  C   UNL     1      11.333  13.278  19.042  0.00  0.00    +0.000 C 
ATOM     13  C   UNL     1       9.836  13.034  19.189  0.00  0.00    +0.000 C 
ENDBRANCH   8   9
ENDBRANCH   7   8
ENDBRANCH   5   6
ENDBRANCH   2   5
BRANCH   3  14
ATOM     14  C   UNL     1       4.904   6.763  16.663  0.00  0.00    +0.000 C 
BRANCH  14  15
ATOM     15  C   UNL     1       4.342   7.946  17.455  0.00  0.00    +0.000 C 
BRANCH  15  16
ATOM     16  C   UNL     1       2.827   7.867  17.616  0.00  0.00    +0.000 C 
BRANCH  16  17
ATOM     17  N   UNL     1       2.391   6.528  17.922  0.00  0.00    +0.000 N 
ATOM     18  C   UNL     1       2.388   6.042  19.208  0.00  0.00    +0.000 C 
ATOM     19  O   UNL     1       2.683   6.711  20.190  0.00  0.00    +0.000 OA
ATOM     20  H   UNL     1       1.996   5.976  17.173  0.00  0.00    +0.000 HD
BRANCH  18  21
ATOM     21  C   UNL     1       1.962   4.627  19.351  0.00  0.00    +0.000 A 
ATOM     22  C   UNL     1       1.524   4.112  20.578  0.00  0.00    +0.000 A 
ATOM     23  C   UNL     1       1.152   2.772  20.677  0.00  0.00    +0.000 A 
ATOM     24  C   UNL     1       1.205   1.951  19.550  0.00  0.00    +0.000 A 
ATOM     25  C   UNL     1       1.618   2.468  18.321  0.00  0.00    +0.000 A 
ATOM     26  C   UNL     1       1.992   3.808  18.219  0.00  0.00    +0.000 A 
ENDBRANCH  18  21
ENDBRANCH  16  17
ENDBRANCH  15  16
ENDBRANCH  14  15
ENDBRANCH   3  14
TORSDOF 9
ENDMDL
