MODEL 1
REMARK VINA RESULT:      -7.5      0.000      0.000
REMARK  Name = 
REMARK  9 active torsions:
REMARK  status: ('A' for Active; 'I' for Inactive)
REMARK    1  A    between atoms: C_1  and  O_2
REMARK    2  A    between atoms: O_2  and  C_3
REMARK    3  A    between atoms: C_6  and  N_7
REMARK    4  A    between atoms: C_8  and  C_10
REMARK    5  A    between atoms: C_10  and  S_11
REMARK    6  A    between atoms: S_11  and  C_12
REMARK    7  A    between atoms: C_15  and  C_16
REMARK    8  A    between atoms: C_26  and  O_27
REMARK    9  A    between atoms: O_27  and  C_28
REMARK                            x       y       z     vdW  Elec       q    Type
REMARK                         _______ _______ _______ _____ _____    ______ ____
ROOT
ATOM      1  C   UNL     1       2.645   3.577  20.811  0.00  0.00    +0.000 C 
ENDROOT
BRANCH   1   3
ATOM      2  N   UNL     1       2.531   5.994  20.482  0.00  0.00    +0.000 N 
ATOM      3  C   UNL     1       1.801   4.816  20.541  0.00  0.00    +0.000 C 
ATOM      4  O   UNL     1       0.585   4.711  20.397  0.00  0.00    +0.000 OA
ATOM      5  H   UNL     1       3.548   5.909  20.529  0.00  0.00    +0.000 HD
BRANCH   2   9
ATOM      6  C   UNL     1       0.851   9.845  19.980  0.00  0.00    +0.000 A 
ATOM      7  C   UNL     1       1.356   9.149  18.875  0.00  0.00    +0.000 A 
ATOM      8  C   UNL     1       1.920   7.881  19.016  0.00  0.00    +0.000 A 
ATOM      9  C   UNL     1       2.034   7.297  20.271  0.00  0.00    +0.000 A 
ATOM     10  C   UNL     1       1.630   8.037  21.390  0.00  0.00    +0.000 A 
ATOM     11  C   UNL     1       1.042   9.312  21.263  0.00  0.00    +0.000 A 
BRANCH   6  13
ATOM     12  C   UNL     1       0.999  12.201  19.960  0.00  0.00    +0.000 C 
ATOM     13  O   UNL     1       0.187  11.033  19.815  0.00  0.00    +0.000 OA
ENDBRANCH   6  13
BRANCH  11  14
ATOM     14  O   UNL     1       0.709   9.851  22.478  0.00  0.00    +0.000 OA
ATOM     15  C   UNL     1      -0.653   9.872  22.877  0.00  0.00    +0.000 C 
ENDBRANCH  11  14
ENDBRANCH   2   9
ENDBRANCH   1   3
BRANCH   1  16
ATOM     16  S   UNL     1       3.222   2.832  19.255  0.00  0.00    +0.000 S 
BRANCH  16  17
ATOM     17  C   UNL     1       4.639   3.804  18.983  0.00  0.00    +0.000 A 
ATOM     18  N   UNL     1       5.222   4.402  19.979  0.00  0.00    +0.000 NA
ATOM     19  N   UNL     1       6.318   5.269  19.738  0.00  0.00    +0.000 NA
ATOM     20  C   UNL     1       6.746   5.445  18.524  0.00  0.00    +0.000 A 
ATOM     21  C   UNL     1       7.882   6.373  18.226  0.00  0.00    +0.000 C 
ATOM     22  N   UNL     1       6.171   4.787  17.442  0.00  0.00    +0.000 N 
ATOM     23  C   UNL     1       5.102   3.943  17.635  0.00  0.00    +0.000 A 
ATOM     24  C   UNL     1       4.708   3.401  16.429  0.00  0.00    +0.000 A 
ATOM     25  C   UNL     1       5.586   3.955  15.458  0.00  0.00    +0.000 A 
ATOM     26  S   UNL     1       5.851   3.866  13.749  0.00  0.00    +0.000 S 
ATOM     27  C   UNL     1       7.147   4.980  13.896  0.00  0.00    +0.000 A 
ATOM     28  C   UNL     1       7.386   5.407  15.185  0.00  0.00    +0.000 A 
ATOM     29  C   UNL     1       6.464   4.797  16.088  0.00  0.00    +0.000 A 
ENDBRANCH  16  17
ENDBRANCH   1  16
TORSDOF 6
ENDMDL
MODEL 2
REMARK VINA RESULT:      -7.5      3.470      7.966
REMARK  Name = 
REMARK  9 active torsions:
REMARK  status: ('A' for Active; 'I' for Inactive)
REMARK    1  A    between atoms: C_1  and  O_2
REMARK    2  A    between atoms: O_2  and  C_3
REMARK    3  A    between atoms: C_6  and  N_7
REMARK    4  A    between atoms: C_8  and  C_10
REMARK    5  A    between atoms: C_10  and  S_11
REMARK    6  A    between atoms: S_11  and  C_12
REMARK    7  A    between atoms: C_15  and  C_16
REMARK    8  A    between atoms: C_26  and  O_27
REMARK    9  A    between atoms: O_27  and  C_28
REMARK                            x       y       z     vdW  Elec       q    Type
REMARK                         _______ _______ _______ _____ _____    ______ ____
ROOT
ATOM      1  C   UNL     1       2.371   4.022  19.303  0.00  0.00    +0.000 C 
ENDROOT
BRANCH   1   3
ATOM      2  N   UNL     1       3.777   4.513  17.368  0.00  0.00    +0.000 N 
ATOM      3  C   UNL     1       3.753   4.022  18.665  0.00  0.00    +0.000 C 
ATOM      4  O   UNL     1       4.723   3.610  19.299  0.00  0.00    +0.000 OA
ATOM      5  H   UNL     1       2.905   4.906  17.007  0.00  0.00    +0.000 HD
BRANCH   2   9
ATOM      6  C   UNL     1       7.088   5.057  14.790  0.00  0.00    +0.000 A 
ATOM      7  C   UNL     1       6.185   4.012  14.563  0.00  0.00    +0.000 A 
ATOM      8  C   UNL     1       5.089   3.809  15.402  0.00  0.00    +0.000 A 
ATOM      9  C   UNL     1       4.895   4.618  16.514  0.00  0.00    +0.000 A 
ATOM     10  C   UNL     1       5.858   5.593  16.805  0.00  0.00    +0.000 A 
ATOM     11  C   UNL     1       6.961   5.822  15.958  0.00  0.00    +0.000 A 
BRANCH   6  13
ATOM     12  C   UNL     1       7.723   5.167  12.518  0.00  0.00    +0.000 C 
ATOM     13  O   UNL     1       8.088   5.326  13.892  0.00  0.00    +0.000 OA
ENDBRANCH   6  13
BRANCH  11  14
ATOM     14  O   UNL     1       7.768   6.828  16.421  0.00  0.00    +0.000 OA
ATOM     15  C   UNL     1       7.493   7.411  17.687  0.00  0.00    +0.000 C 
ENDBRANCH  11  14
ENDBRANCH   2   9
ENDBRANCH   1   3
BRANCH   1  16
ATOM     16  S   UNL     1       2.302   5.175  20.707  0.00  0.00    +0.000 S 
BRANCH  16  17
ATOM     17  C   UNL     1       2.110   6.671  19.839  0.00  0.00    +0.000 A 
ATOM     18  N   UNL     1       2.613   6.803  18.648  0.00  0.00    +0.000 NA
ATOM     19  N   UNL     1       2.538   8.054  17.985  0.00  0.00    +0.000 NA
ATOM     20  C   UNL     1       1.947   9.056  18.565  0.00  0.00    +0.000 A 
ATOM     21  C   UNL     1       1.870  10.399  17.909  0.00  0.00    +0.000 C 
ATOM     22  N   UNL     1       1.361   8.935  19.820  0.00  0.00    +0.000 N 
ATOM     23  C   UNL     1       1.420   7.739  20.497  0.00  0.00    +0.000 A 
ATOM     24  C   UNL     1       0.769   7.852  21.708  0.00  0.00    +0.000 A 
ATOM     25  C   UNL     1       0.298   9.193  21.762  0.00  0.00    +0.000 A 
ATOM     26  S   UNL     1      -0.590  10.211  22.845  0.00  0.00    +0.000 S 
ATOM     27  C   UNL     1      -0.445  11.511  21.735  0.00  0.00    +0.000 A 
ATOM     28  C   UNL     1       0.241  11.198  20.581  0.00  0.00    +0.000 A 
ATOM     29  C   UNL     1       0.669   9.837  20.612  0.00  0.00    +0.000 A 
ENDBRANCH  16  17
ENDBRANCH   1  16
TORSDOF 6
ENDMDL
MODEL 3
REMARK VINA RESULT:      -7.2      6.002      7.842
REMARK  Name = 
REMARK  9 active torsions:
REMARK  status: ('A' for Active; 'I' for Inactive)
REMARK    1  A    between atoms: C_1  and  O_2
REMARK    2  A    between atoms: O_2  and  C_3
REMARK    3  A    between atoms: C_6  and  N_7
REMARK    4  A    between atoms: C_8  and  C_10
REMARK    5  A    between atoms: C_10  and  S_11
REMARK    6  A    between atoms: S_11  and  C_12
REMARK    7  A    between atoms: C_15  and  C_16
REMARK    8  A    between atoms: C_26  and  O_27
REMARK    9  A    between atoms: O_27  and  C_28
REMARK                            x       y       z     vdW  Elec       q    Type
REMARK                         _______ _______ _______ _____ _____    ______ ____
ROOT
ATOM      1  C   UNL     1       7.997   9.009  17.712  0.00  0.00    +0.000 C 
ENDROOT
BRANCH   1   3
ATOM      2  N   UNL     1       8.804  11.314  17.728  0.00  0.00    +0.000 N 
ATOM      3  C   UNL     1       8.811  10.099  18.397  0.00  0.00    +0.000 C 
ATOM      4  O   UNL     1       9.397   9.858  19.450  0.00  0.00    +0.000 OA
ATOM      5  H   UNL     1       8.194  11.388  16.911  0.00  0.00    +0.000 HD
BRANCH   2   9
ATOM      6  C   UNL     1      10.617  14.978  18.820  0.00  0.00    +0.000 A 
ATOM      7  C   UNL     1      11.218  14.155  17.859  0.00  0.00    +0.000 A 
ATOM      8  C   UNL     1      10.642  12.941  17.487  0.00  0.00    +0.000 A 
ATOM      9  C   UNL     1       9.477  12.497  18.099  0.00  0.00    +0.000 A 
ATOM     10  C   UNL     1       8.935  13.266  19.137  0.00  0.00    +0.000 A 
ATOM     11  C   UNL     1       9.494  14.504  19.513  0.00  0.00    +0.000 A 
BRANCH   6  13
ATOM     12  C   UNL     1      10.854  17.210  18.087  0.00  0.00    +0.000 C 
ATOM     13  O   UNL     1      11.121  16.224  19.088  0.00  0.00    +0.000 OA
ENDBRANCH   6  13
BRANCH  11  14
ATOM     14  O   UNL     1       8.801  15.095  20.536  0.00  0.00    +0.000 OA
ATOM     15  C   UNL     1       7.766  16.018  20.231  0.00  0.00    +0.000 C 
ENDBRANCH  11  14
ENDBRANCH   2   9
ENDBRANCH   1   3
BRANCH   1  16
ATOM     16  S   UNL     1       8.090   7.448  18.639  0.00  0.00    +0.000 S 
BRANCH  16  17
ATOM     17  C   UNL     1       7.384   6.376  17.464  0.00  0.00    +0.000 A 
ATOM     18  N   UNL     1       7.759   6.432  16.221  0.00  0.00    +0.000 NA
ATOM     19  N   UNL     1       7.112   5.625  15.251  0.00  0.00    +0.000 NA
ATOM     20  C   UNL     1       6.161   4.818  15.615  0.00  0.00    +0.000 A 
ATOM     21  C   UNL     1       5.437   3.969  14.618  0.00  0.00    +0.000 C 
ATOM     22  N   UNL     1       5.766   4.704  16.943  0.00  0.00    +0.000 N 
ATOM     23  C   UNL     1       6.365   5.475  17.912  0.00  0.00    +0.000 A 
ATOM     24  C   UNL     1       5.820   5.187  19.146  0.00  0.00    +0.000 A 
ATOM     25  C   UNL     1       4.835   4.190  18.904  0.00  0.00    +0.000 A 
ATOM     26  S   UNL     1       3.690   3.255  19.804  0.00  0.00    +0.000 S 
ATOM     27  C   UNL     1       3.177   2.496  18.354  0.00  0.00    +0.000 A 
ATOM     28  C   UNL     1       3.843   2.920  17.224  0.00  0.00    +0.000 A 
ATOM     29  C   UNL     1       4.812   3.912  17.563  0.00  0.00    +0.000 A 
ENDBRANCH  16  17
ENDBRANCH   1  16
TORSDOF 6
ENDMDL
MODEL 4
REMARK VINA RESULT:      -7.1      5.119      9.991
REMARK  Name = 
REMARK  9 active torsions:
REMARK  status: ('A' for Active; 'I' for Inactive)
REMARK    1  A    between atoms: C_1  and  O_2
REMARK    2  A    between atoms: O_2  and  C_3
REMARK    3  A    between atoms: C_6  and  N_7
REMARK    4  A    between atoms: C_8  and  C_10
REMARK    5  A    between atoms: C_10  and  S_11
REMARK    6  A    between atoms: S_11  and  C_12
REMARK    7  A    between atoms: C_15  and  C_16
REMARK    8  A    between atoms: C_26  and  O_27
REMARK    9  A    between atoms: O_27  and  C_28
REMARK                            x       y       z     vdW  Elec       q    Type
REMARK                         _______ _______ _______ _____ _____    ______ ____
ROOT
ATOM      1  C   UNL     1       1.311   9.010  19.317  0.00  0.00    +0.000 C 
ENDROOT
BRANCH   1   3
ATOM      2  N   UNL     1       2.692   7.086  18.723  0.00  0.00    +0.000 N 
ATOM      3  C   UNL     1       2.187   8.304  18.292  0.00  0.00    +0.000 C 
ATOM      4  O   UNL     1       2.389   8.822  17.195  0.00  0.00    +0.000 OA
ATOM      5  H   UNL     1       2.360   6.743  19.627  0.00  0.00    +0.000 HD
BRANCH   2   9
ATOM      6  C   UNL     1       5.274   4.641  16.430  0.00  0.00    +0.000 A 
ATOM      7  C   UNL     1       4.081   4.117  16.943  0.00  0.00    +0.000 A 
ATOM      8  C   UNL     1       3.217   4.901  17.706  0.00  0.00    +0.000 A 
ATOM      9  C   UNL     1       3.545   6.216  18.014  0.00  0.00    +0.000 A 
ATOM     10  C   UNL     1       4.788   6.708  17.595  0.00  0.00    +0.000 A 
ATOM     11  C   UNL     1       5.665   5.934  16.808  0.00  0.00    +0.000 A 
BRANCH   6  13
ATOM     12  C   UNL     1       5.817   4.138  14.188  0.00  0.00    +0.000 C 
ATOM     13  O   UNL     1       6.054   3.903  15.578  0.00  0.00    +0.000 OA
ENDBRANCH   6  13
BRANCH  11  14
ATOM     14  O   UNL     1       6.815   6.611  16.498  0.00  0.00    +0.000 OA
ATOM     15  C   UNL     1       7.545   7.250  17.536  0.00  0.00    +0.000 C 
ENDBRANCH  11  14
ENDBRANCH   2   9
ENDBRANCH   1   3
BRANCH   1  16
ATOM     16  S   UNL     1       1.077  10.760  18.879  0.00  0.00    +0.000 S 
BRANCH  16  17
ATOM     17  C   UNL     1      -0.627  10.741  18.530  0.00  0.00    +0.000 A 
ATOM     18  N   UNL     1      -1.086  10.011  17.557  0.00  0.00    +0.000 NA
ATOM     19  N   UNL     1      -2.461  10.073  17.216  0.00  0.00    +0.000 NA
ATOM     20  C   UNL     1      -3.259  10.845  17.892  0.00  0.00    +0.000 A 
ATOM     21  C   UNL     1      -4.710  10.958  17.546  0.00  0.00    +0.000 C 
ATOM     22  N   UNL     1      -2.807  11.605  18.965  0.00  0.00    +0.000 N 
ATOM     23  C   UNL     1      -1.479  11.576  19.323  0.00  0.00    +0.000 A 
ATOM     24  C   UNL     1      -1.267  12.395  20.412  0.00  0.00    +0.000 A 
ATOM     25  C   UNL     1      -2.539  12.951  20.723  0.00  0.00    +0.000 A 
ATOM     26  S   UNL     1      -3.229  14.039  21.878  0.00  0.00    +0.000 S 
ATOM     27  C   UNL     1      -4.766  13.837  21.144  0.00  0.00    +0.000 A 
ATOM     28  C   UNL     1      -4.772  12.976  20.067  0.00  0.00    +0.000 A 
ATOM     29  C   UNL     1      -3.460  12.465  19.834  0.00  0.00    +0.000 A 
ENDBRANCH  16  17
ENDBRANCH   1  16
TORSDOF 6
ENDMDL
MODEL 5
REMARK VINA RESULT:      -7.1      4.561      8.978
REMARK  Name = 
REMARK  9 active torsions:
REMARK  status: ('A' for Active; 'I' for Inactive)
REMARK    1  A    between atoms: C_1  and  O_2
REMARK    2  A    between atoms: O_2  and  C_3
REMARK    3  A    between atoms: C_6  and  N_7
REMARK    4  A    between atoms: C_8  and  C_10
REMARK    5  A    between atoms: C_10  and  S_11
REMARK    6  A    between atoms: S_11  and  C_12
REMARK    7  A    between atoms: C_15  and  C_16
REMARK    8  A    between atoms: C_26  and  O_27
REMARK    9  A    between atoms: O_27  and  C_28
REMARK                            x       y       z     vdW  Elec       q    Type
REMARK                         _______ _______ _______ _____ _____    ______ ____
ROOT
ATOM      1  C   UNL     1       0.995   9.822  21.966  0.00  0.00    +0.000 C 
ENDROOT
BRANCH   1   3
ATOM      2  N   UNL     1       1.850   7.912  20.708  0.00  0.00    +0.000 N 
ATOM      3  C   UNL     1       0.724   8.494  21.273  0.00  0.00    +0.000 C 
ATOM      4  O   UNL     1      -0.415   8.031  21.254  0.00  0.00    +0.000 OA
ATOM      5  H   UNL     1       2.745   8.371  20.887  0.00  0.00    +0.000 HD
BRANCH   2   9
ATOM      6  C   UNL     1       2.151   4.186  18.726  0.00  0.00    +0.000 A 
ATOM      7  C   UNL     1       2.527   5.364  18.069  0.00  0.00    +0.000 A 
ATOM      8  C   UNL     1       2.432   6.604  18.699  0.00  0.00    +0.000 A 
ATOM      9  C   UNL     1       1.915   6.703  19.985  0.00  0.00    +0.000 A 
ATOM     10  C   UNL     1       1.435   5.540  20.602  0.00  0.00    +0.000 A 
ATOM     11  C   UNL     1       1.541   4.276  19.985  0.00  0.00    +0.000 A 
BRANCH   6  13
ATOM     12  C   UNL     1       3.629   2.365  18.448  0.00  0.00    +0.000 C 
ATOM     13  O   UNL     1       2.365   2.962  18.146  0.00  0.00    +0.000 OA
ENDBRANCH   6  13
BRANCH  11  14
ATOM     14  O   UNL     1       1.024   3.276  20.766  0.00  0.00    +0.000 OA
ATOM     15  C   UNL     1       1.842   2.684  21.764  0.00  0.00    +0.000 C 
ENDBRANCH  11  14
ENDBRANCH   2   9
ENDBRANCH   1   3
BRANCH   1  16
ATOM     16  S   UNL     1       1.199  11.160  20.752  0.00  0.00    +0.000 S 
BRANCH  16  17
ATOM     17  C   UNL     1      -0.438  11.746  20.695  0.00  0.00    +0.000 A 
ATOM     18  N   UNL     1      -0.943  12.372  21.716  0.00  0.00    +0.000 NA
ATOM     19  N   UNL     1      -2.307  12.761  21.701  0.00  0.00    +0.000 NA
ATOM     20  C   UNL     1      -3.038  12.508  20.657  0.00  0.00    +0.000 A 
ATOM     21  C   UNL     1      -4.487  12.880  20.614  0.00  0.00    +0.000 C 
ATOM     22  N   UNL     1      -2.516  11.880  19.532  0.00  0.00    +0.000 N 
ATOM     23  C   UNL     1      -1.200  11.481  19.512  0.00  0.00    +0.000 A 
ATOM     24  C   UNL     1      -0.906  10.891  18.299  0.00  0.00    +0.000 A 
ATOM     25  C   UNL     1      -2.115  10.935  17.553  0.00  0.00    +0.000 A 
ATOM     26  S   UNL     1      -2.692  10.457  15.992  0.00  0.00    +0.000 S 
ATOM     27  C   UNL     1      -4.248  11.064  16.386  0.00  0.00    +0.000 A 
ATOM     28  C   UNL     1      -4.339  11.615  17.646  0.00  0.00    +0.000 A 
ATOM     29  C   UNL     1      -3.082  11.533  18.316  0.00  0.00    +0.000 A 
ENDBRANCH  16  17
ENDBRANCH   1  16
TORSDOF 6
ENDMDL
MODEL 6
REMARK VINA RESULT:      -7.1      4.979      9.619
REMARK  Name = 
REMARK  9 active torsions:
REMARK  status: ('A' for Active; 'I' for Inactive)
REMARK    1  A    between atoms: C_1  and  O_2
REMARK    2  A    between atoms: O_2  and  C_3
REMARK    3  A    between atoms: C_6  and  N_7
REMARK    4  A    between atoms: C_8  and  C_10
REMARK    5  A    between atoms: C_10  and  S_11
REMARK    6  A    between atoms: S_11  and  C_12
REMARK    7  A    between atoms: C_15  and  C_16
REMARK    8  A    between atoms: C_26  and  O_27
REMARK    9  A    between atoms: O_27  and  C_28
REMARK                            x       y       z     vdW  Elec       q    Type
REMARK                         _______ _______ _______ _____ _____    ______ ____
ROOT
ATOM      1  C   UNL     1       1.071   9.651  19.548  0.00  0.00    +0.000 C 
ENDROOT
BRANCH   1   3
ATOM      2  N   UNL     1       2.278   7.629  18.902  0.00  0.00    +0.000 N 
ATOM      3  C   UNL     1       1.791   8.854  18.469  0.00  0.00    +0.000 C 
ATOM      4  O   UNL     1       1.895   9.312  17.333  0.00  0.00    +0.000 OA
ATOM      5  H   UNL     1       2.032   7.345  19.852  0.00  0.00    +0.000 HD
BRANCH   2   9
ATOM      6  C   UNL     1       4.446   4.647  16.826  0.00  0.00    +0.000 A 
ATOM      7  C   UNL     1       4.877   5.979  16.796  0.00  0.00    +0.000 A 
ATOM      8  C   UNL     1       4.176   6.980  17.468  0.00  0.00    +0.000 A 
ATOM      9  C   UNL     1       3.002   6.683  18.148  0.00  0.00    +0.000 A 
ATOM     10  C   UNL     1       2.510   5.373  18.086  0.00  0.00    +0.000 A 
ATOM     11  C   UNL     1       3.215   4.346  17.426  0.00  0.00    +0.000 A 
BRANCH   6  13
ATOM     12  C   UNL     1       6.405   4.098  15.627  0.00  0.00    +0.000 C 
ATOM     13  O   UNL     1       5.207   3.652  16.270  0.00  0.00    +0.000 OA
ENDBRANCH   6  13
BRANCH  11  14
ATOM     14  O   UNL     1       2.564   3.142  17.500  0.00  0.00    +0.000 OA
ATOM     15  C   UNL     1       1.498   2.986  18.425  0.00  0.00    +0.000 C 
ENDBRANCH  11  14
ENDBRANCH   2   9
ENDBRANCH   1   3
BRANCH   1  16
ATOM     16  S   UNL     1       1.190  11.437  19.225  0.00  0.00    +0.000 S 
BRANCH  16  17
ATOM     17  C   UNL     1      -0.310  11.956  19.940  0.00  0.00    +0.000 A 
ATOM     18  N   UNL     1      -0.329  12.418  21.154  0.00  0.00    +0.000 NA
ATOM     19  N   UNL     1      -1.566  12.749  21.764  0.00  0.00    +0.000 NA
ATOM     20  C   UNL     1      -2.672  12.607  21.097  0.00  0.00    +0.000 A 
ATOM     21  C   UNL     1      -3.998  12.919  21.714  0.00  0.00    +0.000 C 
ATOM     22  N   UNL     1      -2.681  12.156  19.782  0.00  0.00    +0.000 N 
ATOM     23  C   UNL     1      -1.502  11.818  19.158  0.00  0.00    +0.000 A 
ATOM     24  C   UNL     1      -1.755  11.409  17.865  0.00  0.00    +0.000 A 
ATOM     25  C   UNL     1      -3.164  11.500  17.706  0.00  0.00    +0.000 A 
ATOM     26  S   UNL     1      -4.351  11.211  16.479  0.00  0.00    +0.000 S 
ATOM     27  C   UNL     1      -5.587  11.693  17.567  0.00  0.00    +0.000 A 
ATOM     28  C   UNL     1      -5.132  12.068  18.813  0.00  0.00    +0.000 A 
ATOM     29  C   UNL     1      -3.711  11.950  18.879  0.00  0.00    +0.000 A 
ENDBRANCH  16  17
ENDBRANCH   1  16
TORSDOF 6
ENDMDL
MODEL 7
REMARK VINA RESULT:      -7.0      5.014      9.923
REMARK  Name = 
REMARK  9 active torsions:
REMARK  status: ('A' for Active; 'I' for Inactive)
REMARK    1  A    between atoms: C_1  and  O_2
REMARK    2  A    between atoms: O_2  and  C_3
REMARK    3  A    between atoms: C_6  and  N_7
REMARK    4  A    between atoms: C_8  and  C_10
REMARK    5  A    between atoms: C_10  and  S_11
REMARK    6  A    between atoms: S_11  and  C_12
REMARK    7  A    between atoms: C_15  and  C_16
REMARK    8  A    between atoms: C_26  and  O_27
REMARK    9  A    between atoms: O_27  and  C_28
REMARK                            x       y       z     vdW  Elec       q    Type
REMARK                         _______ _______ _______ _____ _____    ______ ____
ROOT
ATOM      1  C   UNL     1       1.588   9.637  18.105  0.00  0.00    +0.000 C 
ENDROOT
BRANCH   1   3
ATOM      2  N   UNL     1       2.634   7.455  17.779  0.00  0.00    +0.000 N 
ATOM      3  C   UNL     1       2.037   8.308  18.696  0.00  0.00    +0.000 C 
ATOM      4  O   UNL     1       1.859   8.073  19.890  0.00  0.00    +0.000 OA
ATOM      5  H   UNL     1       2.796   7.826  16.841  0.00  0.00    +0.000 HD
BRANCH   2   9
ATOM      6  C   UNL     1       3.930   3.517  18.630  0.00  0.00    +0.000 A 
ATOM      7  C   UNL     1       4.828   4.589  18.722  0.00  0.00    +0.000 A 
ATOM      8  C   UNL     1       4.425   5.894  18.441  0.00  0.00    +0.000 A 
ATOM      9  C   UNL     1       3.128   6.155  18.017  0.00  0.00    +0.000 A 
ATOM     10  C   UNL     1       2.261   5.073  17.817  0.00  0.00    +0.000 A 
ATOM     11  C   UNL     1       2.647   3.750  18.113  0.00  0.00    +0.000 A 
BRANCH   6  13
ATOM     12  C   UNL     1       4.357   2.067  20.443  0.00  0.00    +0.000 C 
ATOM     13  O   UNL     1       4.299   2.259  19.027  0.00  0.00    +0.000 OA
ENDBRANCH   6  13
BRANCH  11  14
ATOM     14  O   UNL     1       1.644   2.851  17.860  0.00  0.00    +0.000 OA
ATOM     15  C   UNL     1       0.737   2.514  18.899  0.00  0.00    +0.000 C 
ENDBRANCH  11  14
ENDBRANCH   2   9
ENDBRANCH   1   3
BRANCH   1  16
ATOM     16  S   UNL     1       0.784  10.671  19.366  0.00  0.00    +0.000 S 
BRANCH  16  17
ATOM     17  C   UNL     1      -0.821  10.738  18.698  0.00  0.00    +0.000 A 
ATOM     18  N   UNL     1      -1.092  10.121  17.587  0.00  0.00    +0.000 NA
ATOM     19  N   UNL     1      -2.374  10.259  16.997  0.00  0.00    +0.000 NA
ATOM     20  C   UNL     1      -3.278  10.985  17.582  0.00  0.00    +0.000 A 
ATOM     21  C   UNL     1      -4.634  11.176  16.978  0.00  0.00    +0.000 C 
ATOM     22  N   UNL     1      -3.034  11.623  18.793  0.00  0.00    +0.000 N 
ATOM     23  C   UNL     1      -1.800  11.519  19.393  0.00  0.00    +0.000 A 
ATOM     24  C   UNL     1      -1.794  12.221  20.580  0.00  0.00    +0.000 A 
ATOM     25  C   UNL     1      -3.095  12.783  20.696  0.00  0.00    +0.000 A 
ATOM     26  S   UNL     1      -3.983  13.775  21.803  0.00  0.00    +0.000 S 
ATOM     27  C   UNL     1      -5.352  13.692  20.771  0.00  0.00    +0.000 A 
ATOM     28  C   UNL     1      -5.159  12.941  19.632  0.00  0.00    +0.000 A 
ATOM     29  C   UNL     1      -3.833  12.414  19.603  0.00  0.00    +0.000 A 
ENDBRANCH  16  17
ENDBRANCH   1  16
TORSDOF 6
ENDMDL
MODEL 8
REMARK VINA RESULT:      -6.9      4.860      9.929
REMARK  Name = 
REMARK  9 active torsions:
REMARK  status: ('A' for Active; 'I' for Inactive)
REMARK    1  A    between atoms: C_1  and  O_2
REMARK    2  A    between atoms: O_2  and  C_3
REMARK    3  A    between atoms: C_6  and  N_7
REMARK    4  A    between atoms: C_8  and  C_10
REMARK    5  A    between atoms: C_10  and  S_11
REMARK    6  A    between atoms: S_11  and  C_12
REMARK    7  A    between atoms: C_15  and  C_16
REMARK    8  A    between atoms: C_26  and  O_27
REMARK    9  A    between atoms: O_27  and  C_28
REMARK                            x       y       z     vdW  Elec       q    Type
REMARK                         _______ _______ _______ _____ _____    ______ ____
ROOT
ATOM      1  C   UNL     1       0.936   9.658  19.494  0.00  0.00    +0.000 C 
ENDROOT
BRANCH   1   3
ATOM      2  N   UNL     1       2.107   7.601  18.894  0.00  0.00    +0.000 N 
ATOM      3  C   UNL     1       1.711   8.857  18.457  0.00  0.00    +0.000 C 
ATOM      4  O   UNL     1       1.933   9.340  17.348  0.00  0.00    +0.000 OA
ATOM      5  H   UNL     1       1.768   7.303  19.810  0.00  0.00    +0.000 HD
BRANCH   2   9
ATOM      6  C   UNL     1       4.310   4.577  16.917  0.00  0.00    +0.000 A 
ATOM      7  C   UNL     1       4.823   5.877  17.006  0.00  0.00    +0.000 A 
ATOM      8  C   UNL     1       4.113   6.891  17.648  0.00  0.00    +0.000 A 
ATOM      9  C   UNL     1       2.853   6.643  18.176  0.00  0.00    +0.000 A 
ATOM     10  C   UNL     1       2.291   5.374  17.991  0.00  0.00    +0.000 A 
ATOM     11  C   UNL     1       3.002   4.333  17.360  0.00  0.00    +0.000 A 
BRANCH   6  13
ATOM     12  C   UNL     1       6.040   3.966  15.431  0.00  0.00    +0.000 C 
ATOM     13  O   UNL     1       5.067   3.560  16.397  0.00  0.00    +0.000 OA
ENDBRANCH   6  13
BRANCH  11  14
ATOM     14  O   UNL     1       2.274   3.173  17.298  0.00  0.00    +0.000 OA
ATOM     15  C   UNL     1       2.447   2.190  18.307  0.00  0.00    +0.000 C 
ENDBRANCH  11  14
ENDBRANCH   2   9
ENDBRANCH   1   3
BRANCH   1  16
ATOM     16  S   UNL     1       1.059  11.442  19.165  0.00  0.00    +0.000 S 
BRANCH  16  17
ATOM     17  C   UNL     1       0.034  12.039  20.438  0.00  0.00    +0.000 A 
ATOM     18  N   UNL     1       0.542  12.354  21.592  0.00  0.00    +0.000 NA
ATOM     19  N   UNL     1      -0.310  12.747  22.655  0.00  0.00    +0.000 NA
ATOM     20  C   UNL     1      -1.594  12.810  22.463  0.00  0.00    +0.000 A 
ATOM     21  C   UNL     1      -2.527  13.195  23.567  0.00  0.00    +0.000 C 
ATOM     22  N   UNL     1      -2.164  12.521  21.228  0.00  0.00    +0.000 N 
ATOM     23  C   UNL     1      -1.371  12.129  20.175  0.00  0.00    +0.000 A 
ATOM     24  C   UNL     1      -2.150  11.906  19.058  0.00  0.00    +0.000 A 
ATOM     25  C   UNL     1      -3.485  12.174  19.466  0.00  0.00    +0.000 A 
ATOM     26  S   UNL     1      -5.075  12.166  18.781  0.00  0.00    +0.000 S 
ATOM     27  C   UNL     1      -5.724  12.653  20.292  0.00  0.00    +0.000 A 
ATOM     28  C   UNL     1      -4.783  12.824  21.285  0.00  0.00    +0.000 A 
ATOM     29  C   UNL     1      -3.477  12.541  20.785  0.00  0.00    +0.000 A 
ENDBRANCH  16  17
ENDBRANCH   1  16
TORSDOF 6
ENDMDL
MODEL 9
REMARK VINA RESULT:      -6.9      4.080      8.954
REMARK  Name = 
REMARK  9 active torsions:
REMARK  status: ('A' for Active; 'I' for Inactive)
REMARK    1  A    between atoms: C_1  and  O_2
REMARK    2  A    between atoms: O_2  and  C_3
REMARK    3  A    between atoms: C_6  and  N_7
REMARK    4  A    between atoms: C_8  and  C_10
REMARK    5  A    between atoms: C_10  and  S_11
REMARK    6  A    between atoms: S_11  and  C_12
REMARK    7  A    between atoms: C_15  and  C_16
REMARK    8  A    between atoms: C_26  and  O_27
REMARK    9  A    between atoms: O_27  and  C_28
REMARK                            x       y       z     vdW  Elec       q    Type
REMARK                         _______ _______ _______ _____ _____    ______ ____
ROOT
ATOM      1  C   UNL     1       1.808   6.868  20.215  0.00  0.00    +0.000 C 
ENDROOT
BRANCH   1   3
ATOM      2  N   UNL     1       3.426   6.504  18.423  0.00  0.00    +0.000 N 
ATOM      3  C   UNL     1       2.926   6.021  19.623  0.00  0.00    +0.000 C 
ATOM      4  O   UNL     1       3.307   5.009  20.209  0.00  0.00    +0.000 OA
ATOM      5  H   UNL     1       3.071   7.409  18.106  0.00  0.00    +0.000 HD
BRANCH   2   9
ATOM      6  C   UNL     1       6.486   4.991  15.921  0.00  0.00    +0.000 A 
ATOM      7  C   UNL     1       5.326   4.239  16.148  0.00  0.00    +0.000 A 
ATOM      8  C   UNL     1       4.307   4.714  16.972  0.00  0.00    +0.000 A 
ATOM      9  C   UNL     1       4.441   5.932  17.628  0.00  0.00    +0.000 A 
ATOM     10  C   UNL     1       5.645   6.633  17.490  0.00  0.00    +0.000 A 
ATOM     11  C   UNL     1       6.678   6.176  16.647  0.00  0.00    +0.000 A 
BRANCH   6  13
ATOM     12  C   UNL     1       6.987   4.578  13.651  0.00  0.00    +0.000 C 
ATOM     13  O   UNL     1       7.424   4.575  15.013  0.00  0.00    +0.000 OA
ENDBRANCH   6  13
BRANCH  11  14
ATOM     14  O   UNL     1       7.759   7.019  16.649  0.00  0.00    +0.000 OA
ATOM     15  C   UNL     1       7.842   8.037  17.635  0.00  0.00    +0.000 C 
ENDBRANCH  11  14
ENDBRANCH   2   9
ENDBRANCH   1   3
BRANCH   1  16
ATOM     16  S   UNL     1       1.697   8.478  19.376  0.00  0.00    +0.000 S 
BRANCH  16  17
ATOM     17  C   UNL     1       0.776   9.355  20.564  0.00  0.00    +0.000 A 
ATOM     18  N   UNL     1       0.387   8.764  21.654  0.00  0.00    +0.000 NA
ATOM     19  N   UNL     1      -0.444   9.455  22.573  0.00  0.00    +0.000 NA
ATOM     20  C   UNL     1      -0.795  10.682  22.328  0.00  0.00    +0.000 A 
ATOM     21  C   UNL     1      -1.692  11.435  23.259  0.00  0.00    +0.000 C 
ATOM     22  N   UNL     1      -0.360  11.355  21.192  0.00  0.00    +0.000 N 
ATOM     23  C   UNL     1       0.442  10.717  20.274  0.00  0.00    +0.000 A 
ATOM     24  C   UNL     1       0.752  11.578  19.242  0.00  0.00    +0.000 A 
ATOM     25  C   UNL     1       0.096  12.799  19.555  0.00  0.00    +0.000 A 
ATOM     26  S   UNL     1      -0.086  14.383  18.879  0.00  0.00    +0.000 S 
ATOM     27  C   UNL     1      -1.083  14.828  20.202  0.00  0.00    +0.000 A 
ATOM     28  C   UNL     1      -1.275  13.828  21.130  0.00  0.00    +0.000 A 
ATOM     29  C   UNL     1      -0.577  12.646  20.738  0.00  0.00    +0.000 A 
ENDBRANCH  16  17
ENDBRANCH   1  16
TORSDOF 6
ENDMDL
