MODEL 1
REMARK VINA RESULT:      -7.3      0.000      0.000
REMARK  Name = 
REMARK  11 active torsions:
REMARK  status: ('A' for Active; 'I' for Inactive)
REMARK    1  A    between atoms: C_1  and  O_2
REMARK    2  A    between atoms: O_2  and  C_3
REMARK    3  A    between atoms: C_5  and  C_6
REMARK    4  A    between atoms: C_6  and  N_7
REMARK    5  A    between atoms: N_7  and  C_8
REMARK    6  A    between atoms: C_8  and  C_9
REMARK    7  A    between atoms: C_12  and  C_13
REMARK    8  A    between atoms: C_22  and  O_23
REMARK    9  A    between atoms: O_23  and  C_24
REMARK   10  A    between atoms: C_25  and  O_26
REMARK   11  A    between atoms: O_26  and  C_27
REMARK                            x       y       z     vdW  Elec       q    Type
REMARK                         _______ _______ _______ _____ _____    ______ ____
ROOT
ATOM      1  N   UNL     1       1.142   8.076  21.206  0.00  0.00    +0.000 NA
ATOM      2  H   UNL     1       1.505   7.567  22.015  0.00  0.00    +0.000 HD
ENDROOT
BRANCH   1   3
ATOM      3  C   UNL     1       2.073   7.911  20.094  0.00  0.00    +0.000 C 
BRANCH   3   6
ATOM      4  C   UNL     1       1.616   4.125  19.959  0.00  0.00    +0.000 A 
ATOM      5  C   UNL     1       1.655   5.445  20.438  0.00  0.00    +0.000 A 
ATOM      6  C   UNL     1       2.265   6.465  19.708  0.00  0.00    +0.000 A 
ATOM      7  C   UNL     1       2.949   6.119  18.543  0.00  0.00    +0.000 A 
ATOM      8  C   UNL     1       3.005   4.789  18.087  0.00  0.00    +0.000 A 
ATOM      9  C   UNL     1       2.325   3.770  18.791  0.00  0.00    +0.000 A 
BRANCH   4  11
ATOM     10  C   UNL     1       1.583   2.557  21.735  0.00  0.00    +0.000 C 
ATOM     11  O   UNL     1       0.897   3.174  20.643  0.00  0.00    +0.000 OA
ENDBRANCH   4  11
BRANCH   8  12
ATOM     12  O   UNL     1       3.734   4.700  16.926  0.00  0.00    +0.000 OA
ATOM     13  C   UNL     1       4.940   5.436  16.793  0.00  0.00    +0.000 C 
ENDBRANCH   8  12
BRANCH   9  14
ATOM     14  O   UNL     1       2.429   2.510  18.265  0.00  0.00    +0.000 OA
ATOM     15  C   UNL     1       3.589   1.722  18.479  0.00  0.00    +0.000 C 
ENDBRANCH   9  14
ENDBRANCH   3   6
ENDBRANCH   1   3
BRANCH   1  16
ATOM     16  C   UNL     1       1.040   9.490  21.571  0.00  0.00    +0.000 C 
BRANCH  16  17
ATOM     17  C   UNL     1       0.440  10.223  20.423  0.00  0.00    +0.000 A 
ATOM     18  C   UNL     1       0.907  11.332  19.758  0.00  0.00    +0.000 A 
ATOM     19  O   UNL     1       0.027  11.637  18.767  0.00  0.00    +0.000 OA
ATOM     20  C   UNL     1      -0.948  10.678  18.872  0.00  0.00    +0.000 A 
ATOM     21  N   UNL     1      -0.747   9.814  19.852  0.00  0.00    +0.000 NA
BRANCH  20  22
ATOM     22  C   UNL     1      -2.044  10.740  17.911  0.00  0.00    +0.000 A 
ATOM     23  C   UNL     1      -2.016  10.023  16.704  0.00  0.00    +0.000 A 
ATOM     24  C   UNL     1      -3.079  10.098  15.798  0.00  0.00    +0.000 A 
ATOM     25  C   UNL     1      -4.182  10.896  16.092  0.00  0.00    +0.000 A 
ATOM     26  C   UNL     1      -4.212  11.606  17.286  0.00  0.00    +0.000 A 
ATOM     27  F   UNL     1      -5.275  12.372  17.567  0.00  0.00    +0.000 F 
ATOM     28  C   UNL     1      -3.165  11.538  18.190  0.00  0.00    +0.000 A 
ENDBRANCH  20  22
ENDBRANCH  16  17
ENDBRANCH   1  16
TORSDOF 8
ENDMDL
MODEL 2
REMARK VINA RESULT:      -7.1      4.316      9.115
REMARK  Name = 
REMARK  11 active torsions:
REMARK  status: ('A' for Active; 'I' for Inactive)
REMARK    1  A    between atoms: C_1  and  O_2
REMARK    2  A    between atoms: O_2  and  C_3
REMARK    3  A    between atoms: C_5  and  C_6
REMARK    4  A    between atoms: C_6  and  N_7
REMARK    5  A    between atoms: N_7  and  C_8
REMARK    6  A    between atoms: C_8  and  C_9
REMARK    7  A    between atoms: C_12  and  C_13
REMARK    8  A    between atoms: C_22  and  O_23
REMARK    9  A    between atoms: O_23  and  C_24
REMARK   10  A    between atoms: C_25  and  O_26
REMARK   11  A    between atoms: O_26  and  C_27
REMARK                            x       y       z     vdW  Elec       q    Type
REMARK                         _______ _______ _______ _____ _____    ______ ____
ROOT
ATOM      1  N   UNL     1       3.565   5.651  18.725  0.00  0.00    +0.000 NA
ATOM      2  H   UNL     1       3.698   6.568  18.294  0.00  0.00    +0.000 HD
ENDROOT
BRANCH   1   3
ATOM      3  C   UNL     1       2.659   5.795  19.860  0.00  0.00    +0.000 C 
BRANCH   3   6
ATOM      4  C   UNL     1       1.462   9.271  18.839  0.00  0.00    +0.000 A 
ATOM      5  C   UNL     1       2.222   8.091  18.908  0.00  0.00    +0.000 A 
ATOM      6  C   UNL     1       2.038   7.168  19.937  0.00  0.00    +0.000 A 
ATOM      7  C   UNL     1       1.164   7.503  20.971  0.00  0.00    +0.000 A 
ATOM      8  C   UNL     1       0.458   8.719  20.976  0.00  0.00    +0.000 A 
ATOM      9  C   UNL     1       0.592   9.621  19.896  0.00  0.00    +0.000 A 
BRANCH   4  11
ATOM     10  C   UNL     1       2.415  11.239  17.929  0.00  0.00    +0.000 C 
ATOM     11  O   UNL     1       1.580  10.094  17.745  0.00  0.00    +0.000 OA
ENDBRANCH   4  11
BRANCH   8  12
ATOM     12  O   UNL     1      -0.335   8.821  22.093  0.00  0.00    +0.000 OA
ATOM     13  C   UNL     1       0.127   9.551  23.219  0.00  0.00    +0.000 C 
ENDBRANCH   8  12
BRANCH   9  14
ATOM     14  O   UNL     1      -0.143  10.772  19.984  0.00  0.00    +0.000 OA
ATOM     15  C   UNL     1      -1.372  10.910  19.290  0.00  0.00    +0.000 C 
ENDBRANCH   9  14
ENDBRANCH   3   6
ENDBRANCH   1   3
BRANCH   1  16
ATOM     16  C   UNL     1       4.871   5.172  19.181  0.00  0.00    +0.000 C 
BRANCH  16  17
ATOM     17  C   UNL     1       5.812   5.226  18.030  0.00  0.00    +0.000 A 
ATOM     18  C   UNL     1       7.125   5.633  17.998  0.00  0.00    +0.000 A 
ATOM     19  O   UNL     1       7.583   5.496  16.725  0.00  0.00    +0.000 OA
ATOM     20  C   UNL     1       6.511   4.995  16.030  0.00  0.00    +0.000 A 
ATOM     21  N   UNL     1       5.428   4.823  16.768  0.00  0.00    +0.000 NA
BRANCH  20  22
ATOM     22  C   UNL     1       6.708   4.726  14.610  0.00  0.00    +0.000 A 
ATOM     23  C   UNL     1       7.659   5.422  13.847  0.00  0.00    +0.000 A 
ATOM     24  C   UNL     1       7.831   5.146  12.487  0.00  0.00    +0.000 A 
ATOM     25  C   UNL     1       7.049   4.170  11.875  0.00  0.00    +0.000 A 
ATOM     26  C   UNL     1       6.108   3.479  12.629  0.00  0.00    +0.000 A 
ATOM     27  F   UNL     1       5.357   2.538  12.039  0.00  0.00    +0.000 F 
ATOM     28  C   UNL     1       5.930   3.744  13.977  0.00  0.00    +0.000 A 
ENDBRANCH  20  22
ENDBRANCH  16  17
ENDBRANCH   1  16
TORSDOF 8
ENDMDL
MODEL 3
REMARK VINA RESULT:      -7.0      3.423      8.572
REMARK  Name = 
REMARK  11 active torsions:
REMARK  status: ('A' for Active; 'I' for Inactive)
REMARK    1  A    between atoms: C_1  and  O_2
REMARK    2  A    between atoms: O_2  and  C_3
REMARK    3  A    between atoms: C_5  and  C_6
REMARK    4  A    between atoms: C_6  and  N_7
REMARK    5  A    between atoms: N_7  and  C_8
REMARK    6  A    between atoms: C_8  and  C_9
REMARK    7  A    between atoms: C_12  and  C_13
REMARK    8  A    between atoms: C_22  and  O_23
REMARK    9  A    between atoms: O_23  and  C_24
REMARK   10  A    between atoms: C_25  and  O_26
REMARK   11  A    between atoms: O_26  and  C_27
REMARK                            x       y       z     vdW  Elec       q    Type
REMARK                         _______ _______ _______ _____ _____    ______ ____
ROOT
ATOM      1  N   UNL     1       1.057   9.815  17.537  0.00  0.00    +0.000 NA
ATOM      2  H   UNL     1       1.206  10.411  16.720  0.00  0.00    +0.000 HD
ENDROOT
BRANCH   1   3
ATOM      3  C   UNL     1       0.407  10.602  18.579  0.00  0.00    +0.000 C 
BRANCH   3   6
ATOM      4  C   UNL     1      -3.198  11.811  18.912  0.00  0.00    +0.000 A 
ATOM      5  C   UNL     1      -1.862  11.505  19.222  0.00  0.00    +0.000 A 
ATOM      6  C   UNL     1      -1.086  10.707  18.382  0.00  0.00    +0.000 A 
ATOM      7  C   UNL     1      -1.707  10.113  17.283  0.00  0.00    +0.000 A 
ATOM      8  C   UNL     1      -3.068  10.328  16.999  0.00  0.00    +0.000 A 
ATOM      9  C   UNL     1      -3.833  11.194  17.812  0.00  0.00    +0.000 A 
BRANCH   4  11
ATOM     10  C   UNL     1      -3.129  13.325  20.733  0.00  0.00    +0.000 C 
ATOM     11  O   UNL     1      -3.890  12.702  19.695  0.00  0.00    +0.000 OA
ENDBRANCH   4  11
BRANCH   8  12
ATOM     12  O   UNL     1      -3.448   9.639  15.873  0.00  0.00    +0.000 OA
ATOM     13  C   UNL     1      -3.192  10.190  14.590  0.00  0.00    +0.000 C 
ENDBRANCH   8  12
BRANCH   9  14
ATOM     14  O   UNL     1      -5.145  11.349  17.451  0.00  0.00    +0.000 OA
ATOM     15  C   UNL     1      -6.190  10.821  18.251  0.00  0.00    +0.000 C 
ENDBRANCH   9  14
ENDBRANCH   3   6
ENDBRANCH   1   3
BRANCH   1  16
ATOM     16  C   UNL     1       2.366   9.350  18.001  0.00  0.00    +0.000 C 
BRANCH  16  17
ATOM     17  C   UNL     1       2.155   8.150  18.855  0.00  0.00    +0.000 A 
ATOM     18  C   UNL     1       1.861   8.077  20.196  0.00  0.00    +0.000 A 
ATOM     19  O   UNL     1       1.747   6.765  20.537  0.00  0.00    +0.000 OA
ATOM     20  C   UNL     1       1.972   6.089  19.365  0.00  0.00    +0.000 A 
ATOM     21  N   UNL     1       2.227   6.875  18.333  0.00  0.00    +0.000 NA
BRANCH  20  22
ATOM     22  C   UNL     1       1.900   4.633  19.416  0.00  0.00    +0.000 A 
ATOM     23  C   UNL     1       1.508   3.948  20.577  0.00  0.00    +0.000 A 
ATOM     24  C   UNL     1       1.446   2.551  20.602  0.00  0.00    +0.000 A 
ATOM     25  C   UNL     1       1.779   1.824  19.462  0.00  0.00    +0.000 A 
ATOM     26  C   UNL     1       2.167   2.500  18.311  0.00  0.00    +0.000 A 
ATOM     27  F   UNL     1       2.485   1.798  17.214  0.00  0.00    +0.000 F 
ATOM     28  C   UNL     1       2.231   3.883  18.276  0.00  0.00    +0.000 A 
ENDBRANCH  20  22
ENDBRANCH  16  17
ENDBRANCH   1  16
TORSDOF 8
ENDMDL
MODEL 4
REMARK VINA RESULT:      -7.0      1.357      2.884
REMARK  Name = 
REMARK  11 active torsions:
REMARK  status: ('A' for Active; 'I' for Inactive)
REMARK    1  A    between atoms: C_1  and  O_2
REMARK    2  A    between atoms: O_2  and  C_3
REMARK    3  A    between atoms: C_5  and  C_6
REMARK    4  A    between atoms: C_6  and  N_7
REMARK    5  A    between atoms: N_7  and  C_8
REMARK    6  A    between atoms: C_8  and  C_9
REMARK    7  A    between atoms: C_12  and  C_13
REMARK    8  A    between atoms: C_22  and  O_23
REMARK    9  A    between atoms: O_23  and  C_24
REMARK   10  A    between atoms: C_25  and  O_26
REMARK   11  A    between atoms: O_26  and  C_27
REMARK                            x       y       z     vdW  Elec       q    Type
REMARK                         _______ _______ _______ _____ _____    ______ ____
ROOT
ATOM      1  N   UNL     1       1.146   7.738  20.848  0.00  0.00    +0.000 NA
ATOM      2  H   UNL     1       1.275   7.027  21.572  0.00  0.00    +0.000 HD
ENDROOT
BRANCH   1   3
ATOM      3  C   UNL     1       2.222   7.612  19.871  0.00  0.00    +0.000 C 
BRANCH   3   6
ATOM      4  C   UNL     1       4.363   4.555  19.073  0.00  0.00    +0.000 A 
ATOM      5  C   UNL     1       3.866   5.869  19.074  0.00  0.00    +0.000 A 
ATOM      6  C   UNL     1       2.627   6.177  19.636  0.00  0.00    +0.000 A 
ATOM      7  C   UNL     1       1.831   5.124  20.087  0.00  0.00    +0.000 A 
ATOM      8  C   UNL     1       2.264   3.788  20.014  0.00  0.00    +0.000 A 
ATOM      9  C   UNL     1       3.550   3.486  19.511  0.00  0.00    +0.000 A 
BRANCH   4  11
ATOM     10  C   UNL     1       6.293   5.420  18.007  0.00  0.00    +0.000 C 
ATOM     11  O   UNL     1       5.639   4.310  18.628  0.00  0.00    +0.000 OA
ENDBRANCH   4  11
BRANCH   8  12
ATOM     12  O   UNL     1       1.311   2.936  20.517  0.00  0.00    +0.000 OA
ATOM     13  C   UNL     1       1.325   2.598  21.896  0.00  0.00    +0.000 C 
ENDBRANCH   8  12
BRANCH   9  14
ATOM     14  O   UNL     1       3.886   2.159  19.490  0.00  0.00    +0.000 OA
ATOM     15  C   UNL     1       3.672   1.369  18.331  0.00  0.00    +0.000 C 
ENDBRANCH   9  14
ENDBRANCH   3   6
ENDBRANCH   1   3
BRANCH   1  16
ATOM     16  C   UNL     1       1.202   9.053  21.491  0.00  0.00    +0.000 C 
BRANCH  16  17
ATOM     17  C   UNL     1       0.283   9.966  20.760  0.00  0.00    +0.000 A 
ATOM     18  C   UNL     1       0.067  11.311  20.941  0.00  0.00    +0.000 A 
ATOM     19  O   UNL     1      -0.855  11.722  20.030  0.00  0.00    +0.000 OA
ATOM     20  C   UNL     1      -1.157  10.588  19.318  0.00  0.00    +0.000 A 
ATOM     21  N   UNL     1      -0.505   9.512  19.723  0.00  0.00    +0.000 NA
BRANCH  20  22
ATOM     22  C   UNL     1      -2.129  10.723  18.239  0.00  0.00    +0.000 A 
ATOM     23  C   UNL     1      -3.273  11.528  18.365  0.00  0.00    +0.000 A 
ATOM     24  C   UNL     1      -4.191  11.643  17.316  0.00  0.00    +0.000 A 
ATOM     25  C   UNL     1      -3.974  10.948  16.129  0.00  0.00    +0.000 A 
ATOM     26  C   UNL     1      -2.843  10.151  16.002  0.00  0.00    +0.000 A 
ATOM     27  F   UNL     1      -2.635   9.484  14.858  0.00  0.00    +0.000 F 
ATOM     28  C   UNL     1      -1.927  10.031  17.034  0.00  0.00    +0.000 A 
ENDBRANCH  20  22
ENDBRANCH  16  17
ENDBRANCH   1  16
TORSDOF 8
ENDMDL
MODEL 5
REMARK VINA RESULT:      -6.9      5.371      8.703
REMARK  Name = 
REMARK  11 active torsions:
REMARK  status: ('A' for Active; 'I' for Inactive)
REMARK    1  A    between atoms: C_1  and  O_2
REMARK    2  A    between atoms: O_2  and  C_3
REMARK    3  A    between atoms: C_5  and  C_6
REMARK    4  A    between atoms: C_6  and  N_7
REMARK    5  A    between atoms: N_7  and  C_8
REMARK    6  A    between atoms: C_8  and  C_9
REMARK    7  A    between atoms: C_12  and  C_13
REMARK    8  A    between atoms: C_22  and  O_23
REMARK    9  A    between atoms: O_23  and  C_24
REMARK   10  A    between atoms: C_25  and  O_26
REMARK   11  A    between atoms: O_26  and  C_27
REMARK                            x       y       z     vdW  Elec       q    Type
REMARK                         _______ _______ _______ _____ _____    ______ ____
ROOT
ATOM      1  N   UNL     1       5.634   6.988  17.999  0.00  0.00    +0.000 NA
ATOM      2  H   UNL     1       5.736   6.123  18.535  0.00  0.00    +0.000 HD
ENDROOT
BRANCH   1   3
ATOM      3  C   UNL     1       4.320   6.993  17.364  0.00  0.00    +0.000 C 
BRANCH   3   6
ATOM      4  C   UNL     1       2.399   3.924  18.569  0.00  0.00    +0.000 A 
ATOM      5  C   UNL     1       3.136   4.797  17.752  0.00  0.00    +0.000 A 
ATOM      6  C   UNL     1       3.318   6.136  18.098  0.00  0.00    +0.000 A 
ATOM      7  C   UNL     1       2.643   6.622  19.218  0.00  0.00    +0.000 A 
ATOM      8  C   UNL     1       1.824   5.791  20.004  0.00  0.00    +0.000 A 
ATOM      9  C   UNL     1       1.699   4.419  19.691  0.00  0.00    +0.000 A 
BRANCH   4  11
ATOM     10  C   UNL     1       3.601   1.990  17.917  0.00  0.00    +0.000 C 
ATOM     11  O   UNL     1       2.348   2.586  18.262  0.00  0.00    +0.000 OA
ENDBRANCH   4  11
BRANCH   8  12
ATOM     12  O   UNL     1       1.269   6.495  21.046  0.00  0.00    +0.000 OA
ATOM     13  C   UNL     1       1.346   7.912  21.059  0.00  0.00    +0.000 C 
ENDBRANCH   8  12
BRANCH   9  14
ATOM     14  O   UNL     1       0.889   3.689  20.520  0.00  0.00    +0.000 OA
ATOM     15  C   UNL     1       1.436   2.822  21.500  0.00  0.00    +0.000 C 
ENDBRANCH   9  14
ENDBRANCH   3   6
ENDBRANCH   1   3
BRANCH   1  16
ATOM     16  C   UNL     1       6.685   7.013  16.980  0.00  0.00    +0.000 C 
BRANCH  16  17
ATOM     17  C   UNL     1       6.630   5.731  16.226  0.00  0.00    +0.000 A 
ATOM     18  C   UNL     1       6.920   4.457  16.653  0.00  0.00    +0.000 A 
ATOM     19  O   UNL     1       6.713   3.602  15.616  0.00  0.00    +0.000 OA
ATOM     20  C   UNL     1       6.291   4.409  14.590  0.00  0.00    +0.000 A 
ATOM     21  N   UNL     1       6.232   5.690  14.906  0.00  0.00    +0.000 NA
BRANCH  20  22
ATOM     22  C   UNL     1       5.973   3.757  13.324  0.00  0.00    +0.000 A 
ATOM     23  C   UNL     1       4.681   3.791  12.775  0.00  0.00    +0.000 A 
ATOM     24  C   UNL     1       4.399   3.160  11.560  0.00  0.00    +0.000 A 
ATOM     25  C   UNL     1       5.410   2.485  10.880  0.00  0.00    +0.000 A 
ATOM     26  C   UNL     1       6.690   2.451  11.422  0.00  0.00    +0.000 A 
ATOM     27  F   UNL     1       7.663   1.803  10.765  0.00  0.00    +0.000 F 
ATOM     28  C   UNL     1       6.980   3.074  12.624  0.00  0.00    +0.000 A 
ENDBRANCH  20  22
ENDBRANCH  16  17
ENDBRANCH   1  16
TORSDOF 8
ENDMDL
MODEL 6
REMARK VINA RESULT:      -6.9      6.588      9.727
REMARK  Name = 
REMARK  11 active torsions:
REMARK  status: ('A' for Active; 'I' for Inactive)
REMARK    1  A    between atoms: C_1  and  O_2
REMARK    2  A    between atoms: O_2  and  C_3
REMARK    3  A    between atoms: C_5  and  C_6
REMARK    4  A    between atoms: C_6  and  N_7
REMARK    5  A    between atoms: N_7  and  C_8
REMARK    6  A    between atoms: C_8  and  C_9
REMARK    7  A    between atoms: C_12  and  C_13
REMARK    8  A    between atoms: C_22  and  O_23
REMARK    9  A    between atoms: O_23  and  C_24
REMARK   10  A    between atoms: C_25  and  O_26
REMARK   11  A    between atoms: O_26  and  C_27
REMARK                            x       y       z     vdW  Elec       q    Type
REMARK                         _______ _______ _______ _____ _____    ______ ____
ROOT
ATOM      1  N   UNL     1       7.596   8.084  17.204  0.00  0.00    +0.000 NA
ATOM      2  H   UNL     1       8.134   8.363  16.380  0.00  0.00    +0.000 HD
ENDROOT
BRANCH   1   3
ATOM      3  C   UNL     1       8.392   8.356  18.396  0.00  0.00    +0.000 C 
BRANCH   3   6
ATOM      4  C   UNL     1       9.983  11.621  19.567  0.00  0.00    +0.000 A 
ATOM      5  C   UNL     1       9.583  10.275  19.525  0.00  0.00    +0.000 A 
ATOM      6  C   UNL     1       8.621   9.831  18.617  0.00  0.00    +0.000 A 
ATOM      7  C   UNL     1       7.971  10.783  17.832  0.00  0.00    +0.000 A 
ATOM      8  C   UNL     1       8.287  12.151  17.918  0.00  0.00    +0.000 A 
ATOM      9  C   UNL     1       9.311  12.589  18.787  0.00  0.00    +0.000 A 
BRANCH   4  11
ATOM     10  C   UNL     1      12.329  11.769  19.854  0.00  0.00    +0.000 C 
ATOM     11  O   UNL     1      11.021  11.997  20.384  0.00  0.00    +0.000 OA
ENDBRANCH   4  11
BRANCH   8  12
ATOM     12  O   UNL     1       7.516  12.888  17.051  0.00  0.00    +0.000 OA
ATOM     13  C   UNL     1       7.023  14.157  17.452  0.00  0.00    +0.000 C 
ENDBRANCH   8  12
BRANCH   9  14
ATOM     14  O   UNL     1       9.553  13.936  18.795  0.00  0.00    +0.000 OA
ATOM     15  C   UNL     1      10.654  14.485  18.088  0.00  0.00    +0.000 C 
ENDBRANCH   9  14
ENDBRANCH   3   6
ENDBRANCH   1   3
BRANCH   1  16
ATOM     16  C   UNL     1       7.321   6.650  17.099  0.00  0.00    +0.000 C 
BRANCH  16  17
ATOM     17  C   UNL     1       5.869   6.438  17.346  0.00  0.00    +0.000 A 
ATOM     18  C   UNL     1       4.787   6.988  16.702  0.00  0.00    +0.000 A 
ATOM     19  O   UNL     1       3.655   6.488  17.265  0.00  0.00    +0.000 OA
ATOM     20  C   UNL     1       4.109   5.634  18.238  0.00  0.00    +0.000 A 
ATOM     21  N   UNL     1       5.426   5.576  18.328  0.00  0.00    +0.000 NA
BRANCH  20  22
ATOM     22  C   UNL     1       3.101   4.925  19.019  0.00  0.00    +0.000 A 
ATOM     23  C   UNL     1       2.318   5.573  19.987  0.00  0.00    +0.000 A 
ATOM     24  C   UNL     1       1.358   4.873  20.724  0.00  0.00    +0.000 A 
ATOM     25  C   UNL     1       1.173   3.510  20.499  0.00  0.00    +0.000 A 
ATOM     26  C   UNL     1       1.947   2.867  19.541  0.00  0.00    +0.000 A 
ATOM     27  F   UNL     1       1.767   1.556  19.325  0.00  0.00    +0.000 F 
ATOM     28  C   UNL     1       2.900   3.552  18.806  0.00  0.00    +0.000 A 
ENDBRANCH  20  22
ENDBRANCH  16  17
ENDBRANCH   1  16
TORSDOF 8
ENDMDL
MODEL 7
REMARK VINA RESULT:      -6.9      6.666      9.933
REMARK  Name = 
REMARK  11 active torsions:
REMARK  status: ('A' for Active; 'I' for Inactive)
REMARK    1  A    between atoms: C_1  and  O_2
REMARK    2  A    between atoms: O_2  and  C_3
REMARK    3  A    between atoms: C_5  and  C_6
REMARK    4  A    between atoms: C_6  and  N_7
REMARK    5  A    between atoms: N_7  and  C_8
REMARK    6  A    between atoms: C_8  and  C_9
REMARK    7  A    between atoms: C_12  and  C_13
REMARK    8  A    between atoms: C_22  and  O_23
REMARK    9  A    between atoms: O_23  and  C_24
REMARK   10  A    between atoms: C_25  and  O_26
REMARK   11  A    between atoms: O_26  and  C_27
REMARK                            x       y       z     vdW  Elec       q    Type
REMARK                         _______ _______ _______ _____ _____    ______ ____
ROOT
ATOM      1  N   UNL     1       7.737   8.224  17.522  0.00  0.00    +0.000 NA
ATOM      2  H   UNL     1       8.207   8.302  16.617  0.00  0.00    +0.000 HD
ENDROOT
BRANCH   1   3
ATOM      3  C   UNL     1       8.551   8.891  18.532  0.00  0.00    +0.000 C 
BRANCH   3   6
ATOM      4  C   UNL     1       8.296  12.556  17.499  0.00  0.00    +0.000 A 
ATOM      5  C   UNL     1       8.000  11.190  17.648  0.00  0.00    +0.000 A 
ATOM      6  C   UNL     1       8.950  10.288  18.126  0.00  0.00    +0.000 A 
ATOM      7  C   UNL     1      10.249  10.753  18.335  0.00  0.00    +0.000 A 
ATOM      8  C   UNL     1      10.598  12.096  18.106  0.00  0.00    +0.000 A 
ATOM      9  C   UNL     1       9.615  13.023  17.692  0.00  0.00    +0.000 A 
BRANCH   4  11
ATOM     10  C   UNL     1       6.746  14.191  18.228  0.00  0.00    +0.000 C 
ATOM     11  O   UNL     1       7.300  13.434  17.149  0.00  0.00    +0.000 OA
ENDBRANCH   4  11
BRANCH   8  12
ATOM     12  O   UNL     1      11.927  12.310  18.381  0.00  0.00    +0.000 OA
ATOM     13  C   UNL     1      12.333  12.604  19.709  0.00  0.00    +0.000 C 
ENDBRANCH   8  12
BRANCH   9  14
ATOM     14  O   UNL     1      10.048  14.308  17.505  0.00  0.00    +0.000 OA
ATOM     15  C   UNL     1      10.070  15.235  18.579  0.00  0.00    +0.000 C 
ENDBRANCH   9  14
ENDBRANCH   3   6
ENDBRANCH   1   3
BRANCH   1  16
ATOM     16  C   UNL     1       7.607   6.800  17.840  0.00  0.00    +0.000 C 
BRANCH  16  17
ATOM     17  C   UNL     1       6.177   6.420  17.683  0.00  0.00    +0.000 A 
ATOM     18  C   UNL     1       5.253   6.866  16.769  0.00  0.00    +0.000 A 
ATOM     19  O   UNL     1       4.077   6.225  17.003  0.00  0.00    +0.000 OA
ATOM     20  C   UNL     1       4.347   5.397  18.063  0.00  0.00    +0.000 A 
ATOM     21  N   UNL     1       5.588   5.484  18.507  0.00  0.00    +0.000 NA
BRANCH  20  22
ATOM     22  C   UNL     1       3.255   4.555  18.541  0.00  0.00    +0.000 A 
ATOM     23  C   UNL     1       2.544   3.702  17.683  0.00  0.00    +0.000 A 
ATOM     24  C   UNL     1       1.501   2.903  18.163  0.00  0.00    +0.000 A 
ATOM     25  C   UNL     1       1.158   2.954  19.512  0.00  0.00    +0.000 A 
ATOM     26  C   UNL     1       1.861   3.798  20.364  0.00  0.00    +0.000 A 
ATOM     27  F   UNL     1       1.530   3.843  21.662  0.00  0.00    +0.000 F 
ATOM     28  C   UNL     1       2.895   4.592  19.897  0.00  0.00    +0.000 A 
ENDBRANCH  20  22
ENDBRANCH  16  17
ENDBRANCH   1  16
TORSDOF 8
ENDMDL
MODEL 8
REMARK VINA RESULT:      -6.9      6.988      9.825
REMARK  Name = 
REMARK  11 active torsions:
REMARK  status: ('A' for Active; 'I' for Inactive)
REMARK    1  A    between atoms: C_1  and  O_2
REMARK    2  A    between atoms: O_2  and  C_3
REMARK    3  A    between atoms: C_5  and  C_6
REMARK    4  A    between atoms: C_6  and  N_7
REMARK    5  A    between atoms: N_7  and  C_8
REMARK    6  A    between atoms: C_8  and  C_9
REMARK    7  A    between atoms: C_12  and  C_13
REMARK    8  A    between atoms: C_22  and  O_23
REMARK    9  A    between atoms: O_23  and  C_24
REMARK   10  A    between atoms: C_25  and  O_26
REMARK   11  A    between atoms: O_26  and  C_27
REMARK                            x       y       z     vdW  Elec       q    Type
REMARK                         _______ _______ _______ _____ _____    ______ ____
ROOT
ATOM      1  N   UNL     1       8.204   7.739  18.660  0.00  0.00    +0.000 NA
ATOM      2  H   UNL     1       7.488   7.842  19.383  0.00  0.00    +0.000 HD
ENDROOT
BRANCH   1   3
ATOM      3  C   UNL     1       8.202   8.936  17.826  0.00  0.00    +0.000 C 
BRANCH   3   6
ATOM      4  C   UNL     1       9.641  11.290  20.463  0.00  0.00    +0.000 A 
ATOM      5  C   UNL     1       8.779  10.399  19.801  0.00  0.00    +0.000 A 
ATOM      6  C   UNL     1       8.956  10.083  18.454  0.00  0.00    +0.000 A 
ATOM      7  C   UNL     1       9.937  10.772  17.742  0.00  0.00    +0.000 A 
ATOM      8  C   UNL     1      10.755  11.737  18.356  0.00  0.00    +0.000 A 
ATOM      9  C   UNL     1      10.621  12.003  19.738  0.00  0.00    +0.000 A 
BRANCH   4  11
ATOM     10  C   UNL     1       8.358  12.212  22.228  0.00  0.00    +0.000 C 
ATOM     11  O   UNL     1       9.515  11.479  21.818  0.00  0.00    +0.000 OA
ENDBRANCH   4  11
BRANCH   8  12
ATOM     12  O   UNL     1      11.640  12.276  17.454  0.00  0.00    +0.000 OA
ATOM     13  C   UNL     1      11.274  13.429  16.711  0.00  0.00    +0.000 C 
ENDBRANCH   8  12
BRANCH   9  14
ATOM     14  O   UNL     1      11.468  12.951  20.248  0.00  0.00    +0.000 OA
ATOM     15  C   UNL     1      11.076  14.311  20.332  0.00  0.00    +0.000 C 
ENDBRANCH   9  14
ENDBRANCH   3   6
ENDBRANCH   1   3
BRANCH   1  16
ATOM     16  C   UNL     1       7.866   6.564  17.855  0.00  0.00    +0.000 C 
BRANCH  16  17
ATOM     17  C   UNL     1       6.390   6.383  17.897  0.00  0.00    +0.000 A 
ATOM     18  C   UNL     1       5.422   6.942  17.097  0.00  0.00    +0.000 A 
ATOM     19  O   UNL     1       4.211   6.472  17.501  0.00  0.00    +0.000 OA
ATOM     20  C   UNL     1       4.505   5.626  18.541  0.00  0.00    +0.000 A 
ATOM     21  N   UNL     1       5.794   5.546  18.817  0.00  0.00    +0.000 NA
BRANCH  20  22
ATOM     22  C   UNL     1       3.382   4.949  19.181  0.00  0.00    +0.000 A 
ATOM     23  C   UNL     1       2.495   5.623  20.035  0.00  0.00    +0.000 A 
ATOM     24  C   UNL     1       1.426   4.953  20.637  0.00  0.00    +0.000 A 
ATOM     25  C   UNL     1       1.235   3.595  20.391  0.00  0.00    +0.000 A 
ATOM     26  C   UNL     1       2.112   2.926  19.546  0.00  0.00    +0.000 A 
ATOM     27  F   UNL     1       1.925   1.620  19.308  0.00  0.00    +0.000 F 
ATOM     28  C   UNL     1       3.173   3.581  18.944  0.00  0.00    +0.000 A 
ENDBRANCH  20  22
ENDBRANCH  16  17
ENDBRANCH   1  16
TORSDOF 8
ENDMDL
MODEL 9
REMARK VINA RESULT:      -6.8      3.422      8.765
REMARK  Name = 
REMARK  11 active torsions:
REMARK  status: ('A' for Active; 'I' for Inactive)
REMARK    1  A    between atoms: C_1  and  O_2
REMARK    2  A    between atoms: O_2  and  C_3
REMARK    3  A    between atoms: C_5  and  C_6
REMARK    4  A    between atoms: C_6  and  N_7
REMARK    5  A    between atoms: N_7  and  C_8
REMARK    6  A    between atoms: C_8  and  C_9
REMARK    7  A    between atoms: C_12  and  C_13
REMARK    8  A    between atoms: C_22  and  O_23
REMARK    9  A    between atoms: O_23  and  C_24
REMARK   10  A    between atoms: C_25  and  O_26
REMARK   11  A    between atoms: O_26  and  C_27
REMARK                            x       y       z     vdW  Elec       q    Type
REMARK                         _______ _______ _______ _____ _____    ______ ____
ROOT
ATOM      1  N   UNL     1       0.399  10.558  18.433  0.00  0.00    +0.000 NA
ATOM      2  H   UNL     1       1.179  10.615  17.774  0.00  0.00    +0.000 HD
ENDROOT
BRANCH   1   3
ATOM      3  C   UNL     1      -0.287  11.846  18.456  0.00  0.00    +0.000 C 
BRANCH   3   6
ATOM      4  C   UNL     1      -3.969  12.275  19.362  0.00  0.00    +0.000 A 
ATOM      5  C   UNL     1      -2.573  12.173  19.478  0.00  0.00    +0.000 A 
ATOM      6  C   UNL     1      -1.789  11.703  18.424  0.00  0.00    +0.000 A 
ATOM      7  C   UNL     1      -2.439  11.217  17.289  0.00  0.00    +0.000 A 
ATOM      8  C   UNL     1      -3.841  11.221  17.183  0.00  0.00    +0.000 A 
ATOM      9  C   UNL     1      -4.629  11.764  18.223  0.00  0.00    +0.000 A 
BRANCH   4  11
ATOM     10  C   UNL     1      -4.076  13.991  20.991  0.00  0.00    +0.000 C 
ATOM     11  O   UNL     1      -4.694  12.861  20.372  0.00  0.00    +0.000 OA
ENDBRANCH   4  11
BRANCH   8  12
ATOM     12  O   UNL     1      -4.243  10.693  15.979  0.00  0.00    +0.000 OA
ATOM     13  C   UNL     1      -3.301  10.536  14.930  0.00  0.00    +0.000 C 
ENDBRANCH   8  12
BRANCH   9  14
ATOM     14  O   UNL     1      -5.984  11.734  18.024  0.00  0.00    +0.000 OA
ATOM     15  C   UNL     1      -6.777  10.684  18.553  0.00  0.00    +0.000 C 
ENDBRANCH   9  14
ENDBRANCH   3   6
ENDBRANCH   1   3
BRANCH   1  16
ATOM     16  C   UNL     1       0.946  10.255  19.756  0.00  0.00    +0.000 C 
BRANCH  16  17
ATOM     17  C   UNL     1       1.477   8.865  19.732  0.00  0.00    +0.000 A 
ATOM     18  C   UNL     1       1.452   7.907  20.717  0.00  0.00    +0.000 A 
ATOM     19  O   UNL     1       2.046   6.783  20.234  0.00  0.00    +0.000 OA
ATOM     20  C   UNL     1       2.403   7.113  18.951  0.00  0.00    +0.000 A 
ATOM     21  N   UNL     1       2.089   8.350  18.609  0.00  0.00    +0.000 NA
BRANCH  20  22
ATOM     22  C   UNL     1       3.063   6.079  18.161  0.00  0.00    +0.000 A 
ATOM     23  C   UNL     1       4.297   6.300  17.529  0.00  0.00    +0.000 A 
ATOM     24  C   UNL     1       4.911   5.294  16.776  0.00  0.00    +0.000 A 
ATOM     25  C   UNL     1       4.292   4.053  16.648  0.00  0.00    +0.000 A 
ATOM     26  C   UNL     1       3.071   3.831  17.273  0.00  0.00    +0.000 A 
ATOM     27  F   UNL     1       2.478   2.635  17.150  0.00  0.00    +0.000 F 
ATOM     28  C   UNL     1       2.455   4.821  18.021  0.00  0.00    +0.000 A 
ENDBRANCH  20  22
ENDBRANCH  16  17
ENDBRANCH   1  16
TORSDOF 8
ENDMDL
