MODEL 1
REMARK VINA RESULT:      -8.4      0.000      0.000
REMARK  Name = 
REMARK  6 active torsions:
REMARK  status: ('A' for Active; 'I' for Inactive)
REMARK    1  A    between atoms: N_1  and  C_2
REMARK    2  A    between atoms: C_5  and  C_6
REMARK    3  A    between atoms: C_6  and  N_7
REMARK    4  A    between atoms: C_10  and  C_11
REMARK    5  A    between atoms: C_11  and  C_12
REMARK    6  A    between atoms: C_19  and  C_20
REMARK                            x       y       z     vdW  Elec       q    Type
REMARK                         _______ _______ _______ _____ _____    ______ ____
ROOT
ATOM      1  N   UNL     1       0.074  11.078  20.331  0.00  0.00    +0.000 N 
ATOM      2  C   UNL     1      -0.919  11.419  21.306  0.00  0.00    +0.000 C 
ATOM      3  O   UNL     1      -0.863  10.890  22.429  0.00  0.00    +0.000 OA
ATOM      4  C   UNL     1      -2.216  12.299  21.062  0.00  0.00    +0.000 C 
ATOM      5  N   UNL     1      -2.344  13.086  19.795  0.00  0.00    +0.000 NA
ATOM      6  C   UNL     1      -1.839  12.414  18.826  0.00  0.00    +0.000 C 
ATOM      7  C   UNL     1      -0.412  12.845  18.702  0.00  0.00    +0.000 A 
ATOM      8  C   UNL     1      -0.129  14.212  18.513  0.00  0.00    +0.000 A 
ATOM      9  C   UNL     1       1.118  14.754  18.858  0.00  0.00    +0.000 A 
ATOM     10  C   UNL     1       2.140  13.911  19.271  0.00  0.00    +0.000 A 
ATOM     11  C   UNL     1       1.850  12.567  19.509  0.00  0.00    +0.000 A 
ATOM     12  C   UNL     1       0.518  12.098  19.423  0.00  0.00    +0.000 A 
ENDROOT
BRANCH   6  13
ATOM     13  C   UNL     1      -2.509  11.034  18.474  0.00  0.00    +0.000 C 
ATOM     14  C   UNL     1      -4.013  11.226  18.197  0.00  0.00    +0.000 C 
ATOM     15  C   UNL     1      -4.302  11.627  16.764  0.00  0.00    +0.000 C 
ATOM     16  C   UNL     1      -3.779  10.639  15.739  0.00  0.00    +0.000 C 
ATOM     17  C   UNL     1      -2.456   9.957  16.070  0.00  0.00    +0.000 C 
ATOM     18  C   UNL     1      -1.970   9.972  17.519  0.00  0.00    +0.000 C 
ENDBRANCH   6  13
BRANCH   1  19
ATOM     19  C   UNL     1       1.067  10.085  20.805  0.00  0.00    +0.000 C 
BRANCH  19  23
ATOM     20  C   UNL     1       2.564   6.768  18.412  0.00  0.00    +0.000 A 
ATOM     21  C   UNL     1       2.216   7.963  17.781  0.00  0.00    +0.000 A 
ATOM     22  C   UNL     1       1.669   9.030  18.510  0.00  0.00    +0.000 A 
ATOM     23  C   UNL     1       1.474   8.938  19.890  0.00  0.00    +0.000 A 
ATOM     24  C   UNL     1       1.729   7.696  20.495  0.00  0.00    +0.000 A 
ATOM     25  C   UNL     1       2.296   6.640  19.773  0.00  0.00    +0.000 A 
BRANCH  20  26
ATOM     26  N   UNL     1       3.400   5.850  17.771  0.00  0.00    +0.000 N 
ATOM     27  H   UNL     1       4.027   6.243  17.079  0.00  0.00    +0.000 HD
ATOM     28  H   UNL     1       2.957   4.987  17.478  0.00  0.00    +0.000 HD
ENDBRANCH  20  26
ENDBRANCH  19  23
ENDBRANCH   1  19
BRANCH   4  29
ATOM     29  C   UNL     1      -2.561  13.237  22.223  0.00  0.00    +0.000 C 
BRANCH  29  30
ATOM     30  C   UNL     1      -3.892  12.968  22.863  0.00  0.00    +0.000 A 
ATOM     31  C   UNL     1      -5.086  13.179  22.166  0.00  0.00    +0.000 A 
ATOM     32  C   UNL     1      -6.316  12.959  22.785  0.00  0.00    +0.000 A 
ATOM     33  C   UNL     1      -6.355  12.531  24.113  0.00  0.00    +0.000 A 
ATOM     34  C   UNL     1      -5.169  12.315  24.814  0.00  0.00    +0.000 A 
ATOM     35  C   UNL     1      -3.945  12.527  24.184  0.00  0.00    +0.000 A 
ENDBRANCH  29  30
ENDBRANCH   4  29
TORSDOF 6
ENDMDL
MODEL 2
REMARK VINA RESULT:      -8.0      1.319      2.262
REMARK  Name = 
REMARK  6 active torsions:
REMARK  status: ('A' for Active; 'I' for Inactive)
REMARK    1  A    between atoms: N_1  and  C_2
REMARK    2  A    between atoms: C_5  and  C_6
REMARK    3  A    between atoms: C_6  and  N_7
REMARK    4  A    between atoms: C_10  and  C_11
REMARK    5  A    between atoms: C_11  and  C_12
REMARK    6  A    between atoms: C_19  and  C_20
REMARK                            x       y       z     vdW  Elec       q    Type
REMARK                         _______ _______ _______ _____ _____    ______ ____
ROOT
ATOM      1  N   UNL     1       0.005  11.111  20.424  0.00  0.00    +0.000 N 
ATOM      2  C   UNL     1      -1.002  11.387  21.404  0.00  0.00    +0.000 C 
ATOM      3  O   UNL     1      -0.934  10.822  22.508  0.00  0.00    +0.000 OA
ATOM      4  C   UNL     1      -2.325  12.234  21.183  0.00  0.00    +0.000 C 
ATOM      5  N   UNL     1      -2.472  13.059  19.943  0.00  0.00    +0.000 NA
ATOM      6  C   UNL     1      -1.942  12.437  18.955  0.00  0.00    +0.000 C 
ATOM      7  C   UNL     1      -0.529  12.917  18.853  0.00  0.00    +0.000 A 
ATOM      8  C   UNL     1      -0.288  14.297  18.712  0.00  0.00    +0.000 A 
ATOM      9  C   UNL     1       0.939  14.866  19.082  0.00  0.00    +0.000 A 
ATOM     10  C   UNL     1       1.985  14.042  19.472  0.00  0.00    +0.000 A 
ATOM     11  C   UNL     1       1.737  12.682  19.662  0.00  0.00    +0.000 A 
ATOM     12  C   UNL     1       0.421  12.175  19.553  0.00  0.00    +0.000 A 
ENDROOT
BRANCH   6  13
ATOM     13  C   UNL     1      -2.566  11.049  18.552  0.00  0.00    +0.000 C 
ATOM     14  C   UNL     1      -4.063  11.213  18.222  0.00  0.00    +0.000 C 
ATOM     15  C   UNL     1      -4.307  11.635  16.786  0.00  0.00    +0.000 C 
ATOM     16  C   UNL     1      -3.723  10.678  15.764  0.00  0.00    +0.000 C 
ATOM     17  C   UNL     1      -2.399  10.020  16.133  0.00  0.00    +0.000 C 
ATOM     18  C   UNL     1      -1.968  10.018  17.599  0.00  0.00    +0.000 C 
ENDBRANCH   6  13
BRANCH   1  19
ATOM     19  C   UNL     1       1.027  10.134  20.868  0.00  0.00    +0.000 C 
BRANCH  19  23
ATOM     20  C   UNL     1       2.543   6.869  18.417  0.00  0.00    +0.000 A 
ATOM     21  C   UNL     1       2.167   8.065  17.805  0.00  0.00    +0.000 A 
ATOM     22  C   UNL     1       1.614   9.114  18.553  0.00  0.00    +0.000 A 
ATOM     23  C   UNL     1       1.439   9.004  19.935  0.00  0.00    +0.000 A 
ATOM     24  C   UNL     1       1.723   7.759  20.522  0.00  0.00    +0.000 A 
ATOM     25  C   UNL     1       2.297   6.721  19.780  0.00  0.00    +0.000 A 
BRANCH  20  26
ATOM     26  N   UNL     1       3.385   5.971  17.754  0.00  0.00    +0.000 N 
ATOM     27  H   UNL     1       4.309   6.323  17.537  0.00  0.00    +0.000 HD
ATOM     28  H   UNL     1       2.957   5.450  16.997  0.00  0.00    +0.000 HD
ENDBRANCH  20  26
ENDBRANCH  19  23
ENDBRANCH   1  19
BRANCH   4  29
ATOM     29  C   UNL     1      -2.705  13.120  22.373  0.00  0.00    +0.000 C 
BRANCH  29  30
ATOM     30  C   UNL     1      -1.976  14.432  22.427  0.00  0.00    +0.000 A 
ATOM     31  C   UNL     1      -2.652  15.642  22.239  0.00  0.00    +0.000 A 
ATOM     32  C   UNL     1      -1.956  16.852  22.255  0.00  0.00    +0.000 A 
ATOM     33  C   UNL     1      -0.575  16.852  22.455  0.00  0.00    +0.000 A 
ATOM     34  C   UNL     1       0.105  15.650  22.646  0.00  0.00    +0.000 A 
ATOM     35  C   UNL     1      -0.599  14.448  22.638  0.00  0.00    +0.000 A 
ENDBRANCH  29  30
ENDBRANCH   4  29
TORSDOF 6
ENDMDL
MODEL 3
REMARK VINA RESULT:      -7.9      2.168      7.063
REMARK  Name = 
REMARK  6 active torsions:
REMARK  status: ('A' for Active; 'I' for Inactive)
REMARK    1  A    between atoms: N_1  and  C_2
REMARK    2  A    between atoms: C_5  and  C_6
REMARK    3  A    between atoms: C_6  and  N_7
REMARK    4  A    between atoms: C_10  and  C_11
REMARK    5  A    between atoms: C_11  and  C_12
REMARK    6  A    between atoms: C_19  and  C_20
REMARK                            x       y       z     vdW  Elec       q    Type
REMARK                         _______ _______ _______ _____ _____    ______ ____
ROOT
ATOM      1  N   UNL     1      -1.154  12.536  21.917  0.00  0.00    +0.000 N 
ATOM      2  C   UNL     1      -0.142  13.360  21.325  0.00  0.00    +0.000 C 
ATOM      3  O   UNL     1       0.087  14.476  21.819  0.00  0.00    +0.000 OA
ATOM      4  C   UNL     1       0.634  13.073  19.972  0.00  0.00    +0.000 C 
ATOM      5  N   UNL     1       0.537  11.719  19.340  0.00  0.00    +0.000 NA
ATOM      6  C   UNL     1      -0.650  11.259  19.504  0.00  0.00    +0.000 C 
ATOM      7  C   UNL     1      -0.625  10.442  20.756  0.00  0.00    +0.000 A 
ATOM      8  C   UNL     1       0.298   9.383  20.859  0.00  0.00    +0.000 A 
ATOM      9  C   UNL     1       0.715   8.897  22.106  0.00  0.00    +0.000 A 
ATOM     10  C   UNL     1       0.115   9.374  23.263  0.00  0.00    +0.000 A 
ATOM     11  C   UNL     1      -0.761  10.457  23.169  0.00  0.00    +0.000 A 
ATOM     12  C   UNL     1      -0.955  11.114  21.932  0.00  0.00    +0.000 A 
ENDROOT
BRANCH   6  13
ATOM     13  C   UNL     1      -1.834  12.061  18.846  0.00  0.00    +0.000 C 
ATOM     14  C   UNL     1      -1.727  12.006  17.309  0.00  0.00    +0.000 C 
ATOM     15  C   UNL     1      -2.362  10.763  16.718  0.00  0.00    +0.000 C 
ATOM     16  C   UNL     1      -3.827  10.601  17.071  0.00  0.00    +0.000 C 
ATOM     17  C   UNL     1      -4.240  11.058  18.466  0.00  0.00    +0.000 C 
ATOM     18  C   UNL     1      -3.310  11.996  19.232  0.00  0.00    +0.000 C 
ENDBRANCH   6  13
BRANCH   1  19
ATOM     19  C   UNL     1      -1.834  13.157  23.078  0.00  0.00    +0.000 C 
BRANCH  19  23
ATOM     20  C   UNL     1      -6.125  12.552  23.504  0.00  0.00    +0.000 A 
ATOM     21  C   UNL     1      -5.621  13.042  22.299  0.00  0.00    +0.000 A 
ATOM     22  C   UNL     1      -4.253  13.311  22.147  0.00  0.00    +0.000 A 
ATOM     23  C   UNL     1      -3.350  13.080  23.188  0.00  0.00    +0.000 A 
ATOM     24  C   UNL     1      -3.884  12.687  24.427  0.00  0.00    +0.000 A 
ATOM     25  C   UNL     1      -5.244  12.397  24.572  0.00  0.00    +0.000 A 
BRANCH  20  26
ATOM     26  N   UNL     1      -7.397  11.976  23.554  0.00  0.00    +0.000 N 
ATOM     27  H   UNL     1      -8.171  12.618  23.429  0.00  0.00    +0.000 HD
ATOM     28  H   UNL     1      -7.542  11.301  24.296  0.00  0.00    +0.000 HD
ENDBRANCH  20  26
ENDBRANCH  19  23
ENDBRANCH   1  19
BRANCH   4  29
ATOM     29  C   UNL     1       2.116  13.457  20.009  0.00  0.00    +0.000 C 
BRANCH  29  30
ATOM     30  C   UNL     1       2.486  14.592  19.098  0.00  0.00    +0.000 A 
ATOM     31  C   UNL     1       1.687  15.737  19.008  0.00  0.00    +0.000 A 
ATOM     32  C   UNL     1       2.023  16.768  18.131  0.00  0.00    +0.000 A 
ATOM     33  C   UNL     1       3.162  16.653  17.333  0.00  0.00    +0.000 A 
ATOM     34  C   UNL     1       3.965  15.516  17.419  0.00  0.00    +0.000 A 
ATOM     35  C   UNL     1       3.628  14.496  18.305  0.00  0.00    +0.000 A 
ENDBRANCH  29  30
ENDBRANCH   4  29
TORSDOF 6
ENDMDL
MODEL 4
REMARK VINA RESULT:      -7.9      2.157      7.188
REMARK  Name = 
REMARK  6 active torsions:
REMARK  status: ('A' for Active; 'I' for Inactive)
REMARK    1  A    between atoms: N_1  and  C_2
REMARK    2  A    between atoms: C_5  and  C_6
REMARK    3  A    between atoms: C_6  and  N_7
REMARK    4  A    between atoms: C_10  and  C_11
REMARK    5  A    between atoms: C_11  and  C_12
REMARK    6  A    between atoms: C_19  and  C_20
REMARK                            x       y       z     vdW  Elec       q    Type
REMARK                         _______ _______ _______ _____ _____    ______ ____
ROOT
ATOM      1  N   UNL     1      -1.182  12.546  21.855  0.00  0.00    +0.000 N 
ATOM      2  C   UNL     1      -0.163  13.351  21.248  0.00  0.00    +0.000 C 
ATOM      3  O   UNL     1       0.073  14.475  21.721  0.00  0.00    +0.000 OA
ATOM      4  C   UNL     1       0.612  13.032  19.902  0.00  0.00    +0.000 C 
ATOM      5  N   UNL     1       0.506  11.667  19.296  0.00  0.00    +0.000 NA
ATOM      6  C   UNL     1      -0.684  11.219  19.468  0.00  0.00    +0.000 C 
ATOM      7  C   UNL     1      -0.666  10.426  20.736  0.00  0.00    +0.000 A 
ATOM      8  C   UNL     1       0.249   9.363  20.860  0.00  0.00    +0.000 A 
ATOM      9  C   UNL     1       0.662   8.898  22.117  0.00  0.00    +0.000 A 
ATOM     10  C   UNL     1       0.064   9.402  23.263  0.00  0.00    +0.000 A 
ATOM     11  C   UNL     1      -0.804  10.488  23.148  0.00  0.00    +0.000 A 
ATOM     12  C   UNL     1      -0.992  11.123  21.898  0.00  0.00    +0.000 A 
ENDROOT
BRANCH   6  13
ATOM     13  C   UNL     1      -1.862  12.016  18.793  0.00  0.00    +0.000 C 
ATOM     14  C   UNL     1      -1.742  11.948  17.258  0.00  0.00    +0.000 C 
ATOM     15  C   UNL     1      -2.373  10.700  16.672  0.00  0.00    +0.000 C 
ATOM     16  C   UNL     1      -3.842  10.543  17.015  0.00  0.00    +0.000 C 
ATOM     17  C   UNL     1      -4.266  11.012  18.402  0.00  0.00    +0.000 C 
ATOM     18  C   UNL     1      -3.341  11.955  19.168  0.00  0.00    +0.000 C 
ENDBRANCH   6  13
BRANCH   1  19
ATOM     19  C   UNL     1      -1.858  13.194  23.004  0.00  0.00    +0.000 C 
BRANCH  19  23
ATOM     20  C   UNL     1      -6.154  12.853  23.627  0.00  0.00    +0.000 A 
ATOM     21  C   UNL     1      -5.282  12.374  24.606  0.00  0.00    +0.000 A 
ATOM     22  C   UNL     1      -3.893  12.408  24.411  0.00  0.00    +0.000 A 
ATOM     23  C   UNL     1      -3.339  12.937  23.243  0.00  0.00    +0.000 A 
ATOM     24  C   UNL     1      -4.228  13.318  22.224  0.00  0.00    +0.000 A 
ATOM     25  C   UNL     1      -5.612  13.306  22.426  0.00  0.00    +0.000 A 
BRANCH  20  26
ATOM     26  N   UNL     1      -7.487  13.128  23.944  0.00  0.00    +0.000 N 
ATOM     27  H   UNL     1      -8.128  12.351  23.841  0.00  0.00    +0.000 HD
ATOM     28  H   UNL     1      -7.848  14.005  23.586  0.00  0.00    +0.000 HD
ENDBRANCH  20  26
ENDBRANCH  19  23
ENDBRANCH   1  19
BRANCH   4  29
ATOM     29  C   UNL     1       2.097  13.407  19.933  0.00  0.00    +0.000 C 
BRANCH  29  30
ATOM     30  C   UNL     1       2.474  14.526  19.006  0.00  0.00    +0.000 A 
ATOM     31  C   UNL     1       3.655  14.479  18.258  0.00  0.00    +0.000 A 
ATOM     32  C   UNL     1       4.010  15.542  17.428  0.00  0.00    +0.000 A 
ATOM     33  C   UNL     1       3.183  16.664  17.349  0.00  0.00    +0.000 A 
ATOM     34  C   UNL     1       2.003  16.717  18.089  0.00  0.00    +0.000 A 
ATOM     35  C   UNL     1       1.650  15.646  18.907  0.00  0.00    +0.000 A 
ENDBRANCH  29  30
ENDBRANCH   4  29
TORSDOF 6
ENDMDL
MODEL 5
REMARK VINA RESULT:      -7.5      0.545      1.301
REMARK  Name = 
REMARK  6 active torsions:
REMARK  status: ('A' for Active; 'I' for Inactive)
REMARK    1  A    between atoms: N_1  and  C_2
REMARK    2  A    between atoms: C_5  and  C_6
REMARK    3  A    between atoms: C_6  and  N_7
REMARK    4  A    between atoms: C_10  and  C_11
REMARK    5  A    between atoms: C_11  and  C_12
REMARK    6  A    between atoms: C_19  and  C_20
REMARK                            x       y       z     vdW  Elec       q    Type
REMARK                         _______ _______ _______ _____ _____    ______ ____
ROOT
ATOM      1  N   UNL     1      -0.137  11.110  20.576  0.00  0.00    +0.000 N 
ATOM      2  C   UNL     1      -1.267  11.467  21.381  0.00  0.00    +0.000 C 
ATOM      3  O   UNL     1      -1.366  10.985  22.522  0.00  0.00    +0.000 OA
ATOM      4  C   UNL     1      -2.529  12.307  20.914  0.00  0.00    +0.000 C 
ATOM      5  N   UNL     1      -2.485  13.039  19.610  0.00  0.00    +0.000 NA
ATOM      6  C   UNL     1      -1.832  12.341  18.754  0.00  0.00    +0.000 C 
ATOM      7  C   UNL     1      -0.410  12.800  18.820  0.00  0.00    +0.000 A 
ATOM      8  C   UNL     1      -0.126  14.164  18.615  0.00  0.00    +0.000 A 
ATOM      9  C   UNL     1       1.048  14.748  19.113  0.00  0.00    +0.000 A 
ATOM     10  C   UNL     1       2.013  13.946  19.706  0.00  0.00    +0.000 A 
ATOM     11  C   UNL     1       1.714  12.606  19.957  0.00  0.00    +0.000 A 
ATOM     12  C   UNL     1       0.418  12.103  19.698  0.00  0.00    +0.000 A 
ENDROOT
BRANCH   6  13
ATOM     13  C   UNL     1      -2.420  10.933  18.368  0.00  0.00    +0.000 C 
ATOM     14  C   UNL     1      -3.940  11.036  18.133  0.00  0.00    +0.000 C 
ATOM     15  C   UNL     1      -4.290  11.466  16.721  0.00  0.00    +0.000 C 
ATOM     16  C   UNL     1      -3.731  10.550  15.650  0.00  0.00    +0.000 C 
ATOM     17  C   UNL     1      -2.359   9.946  15.927  0.00  0.00    +0.000 C 
ATOM     18  C   UNL     1      -1.839   9.942  17.363  0.00  0.00    +0.000 C 
ENDBRANCH   6  13
BRANCH   1  19
ATOM     19  C   UNL     1       0.793  10.160  21.230  0.00  0.00    +0.000 C 
BRANCH  19  23
ATOM     20  C   UNL     1       2.166   6.907  18.680  0.00  0.00    +0.000 A 
ATOM     21  C   UNL     1       2.099   6.711  20.060  0.00  0.00    +0.000 A 
ATOM     22  C   UNL     1       1.724   7.756  20.919  0.00  0.00    +0.000 A 
ATOM     23  C   UNL     1       1.388   9.017  20.420  0.00  0.00    +0.000 A 
ATOM     24  C   UNL     1       1.561   9.231  19.042  0.00  0.00    +0.000 A 
ATOM     25  C   UNL     1       1.912   8.183  18.183  0.00  0.00    +0.000 A 
BRANCH  20  26
ATOM     26  N   UNL     1       2.207   5.811  17.814  0.00  0.00    +0.000 N 
ATOM     27  H   UNL     1       1.796   4.958  18.173  0.00  0.00    +0.000 HD
ATOM     28  H   UNL     1       3.087   5.669  17.332  0.00  0.00    +0.000 HD
ENDBRANCH  20  26
ENDBRANCH  19  23
ENDBRANCH   1  19
BRANCH   4  29
ATOM     29  C   UNL     1      -3.055  13.282  21.971  0.00  0.00    +0.000 C 
BRANCH  29  30
ATOM     30  C   UNL     1      -4.471  13.026  22.403  0.00  0.00    +0.000 A 
ATOM     31  C   UNL     1      -4.815  12.972  23.757  0.00  0.00    +0.000 A 
ATOM     32  C   UNL     1      -6.127  12.697  24.144  0.00  0.00    +0.000 A 
ATOM     33  C   UNL     1      -7.101  12.468  23.171  0.00  0.00    +0.000 A 
ATOM     34  C   UNL     1      -6.765  12.523  21.819  0.00  0.00    +0.000 A 
ATOM     35  C   UNL     1      -5.456  12.808  21.441  0.00  0.00    +0.000 A 
ENDBRANCH  29  30
ENDBRANCH   4  29
TORSDOF 6
ENDMDL
MODEL 6
REMARK VINA RESULT:      -7.4      2.643      4.100
REMARK  Name = 
REMARK  6 active torsions:
REMARK  status: ('A' for Active; 'I' for Inactive)
REMARK    1  A    between atoms: N_1  and  C_2
REMARK    2  A    between atoms: C_5  and  C_6
REMARK    3  A    between atoms: C_6  and  N_7
REMARK    4  A    between atoms: C_10  and  C_11
REMARK    5  A    between atoms: C_11  and  C_12
REMARK    6  A    between atoms: C_19  and  C_20
REMARK                            x       y       z     vdW  Elec       q    Type
REMARK                         _______ _______ _______ _____ _____    ______ ____
ROOT
ATOM      1  N   UNL     1      -2.856  13.057  22.328  0.00  0.00    +0.000 N 
ATOM      2  C   UNL     1      -4.083  12.804  23.024  0.00  0.00    +0.000 C 
ATOM      3  O   UNL     1      -4.045  12.178  24.096  0.00  0.00    +0.000 OA
ATOM      4  C   UNL     1      -5.547  13.099  22.491  0.00  0.00    +0.000 C 
ATOM      5  N   UNL     1      -5.730  13.949  21.273  0.00  0.00    +0.000 NA
ATOM      6  C   UNL     1      -4.786  13.704  20.439  0.00  0.00    +0.000 C 
ATOM      7  C   UNL     1      -3.702  14.698  20.713  0.00  0.00    +0.000 A 
ATOM      8  C   UNL     1      -4.011  16.071  20.669  0.00  0.00    +0.000 A 
ATOM      9  C   UNL     1      -3.234  17.017  21.353  0.00  0.00    +0.000 A 
ATOM     10  C   UNL     1      -2.063  16.616  21.979  0.00  0.00    +0.000 A 
ATOM     11  C   UNL     1      -1.780  15.253  22.069  0.00  0.00    +0.000 A 
ATOM     12  C   UNL     1      -2.719  14.297  21.616  0.00  0.00    +0.000 A 
ENDROOT
BRANCH   6  13
ATOM     13  C   UNL     1      -4.692  12.244  19.860  0.00  0.00    +0.000 C 
ATOM     14  C   UNL     1      -6.003  11.869  19.142  0.00  0.00    +0.000 C 
ATOM     15  C   UNL     1      -6.042  12.338  17.701  0.00  0.00    +0.000 C 
ATOM     16  C   UNL     1      -4.900  11.806  16.858  0.00  0.00    +0.000 C 
ATOM     17  C   UNL     1      -3.554  11.658  17.558  0.00  0.00    +0.000 C 
ATOM     18  C   UNL     1      -3.524  11.639  19.085  0.00  0.00    +0.000 C 
ENDBRANCH   6  13
BRANCH   1  19
ATOM     19  C   UNL     1      -1.657  12.500  22.997  0.00  0.00    +0.000 C 
BRANCH  19  23
ATOM     20  C   UNL     1       0.604   9.058  21.581  0.00  0.00    +0.000 A 
ATOM     21  C   UNL     1       0.355  10.117  20.708  0.00  0.00    +0.000 A 
ATOM     22  C   UNL     1      -0.425  11.213  21.109  0.00  0.00    +0.000 A 
ATOM     23  C   UNL     1      -0.960  11.287  22.397  0.00  0.00    +0.000 A 
ATOM     24  C   UNL     1      -0.791  10.169  23.230  0.00  0.00    +0.000 A 
ATOM     25  C   UNL     1       0.006   9.087  22.840  0.00  0.00    +0.000 A 
BRANCH  20  26
ATOM     26  N   UNL     1       1.631   8.150  21.313  0.00  0.00    +0.000 N 
ATOM     27  H   UNL     1       2.508   8.561  21.016  0.00  0.00    +0.000 HD
ATOM     28  H   UNL     1       1.362   7.332  20.778  0.00  0.00    +0.000 HD
ENDBRANCH  20  26
ENDBRANCH  19  23
ENDBRANCH   1  19
BRANCH   4  29
ATOM     29  C   UNL     1      -6.509  13.619  23.564  0.00  0.00    +0.000 C 
BRANCH  29  30
ATOM     30  C   UNL     1      -6.571  15.116  23.667  0.00  0.00    +0.000 A 
ATOM     31  C   UNL     1      -7.693  15.825  23.226  0.00  0.00    +0.000 A 
ATOM     32  C   UNL     1      -7.723  17.218  23.296  0.00  0.00    +0.000 A 
ATOM     33  C   UNL     1      -6.621  17.908  23.804  0.00  0.00    +0.000 A 
ATOM     34  C   UNL     1      -5.500  17.208  24.248  0.00  0.00    +0.000 A 
ATOM     35  C   UNL     1      -5.483  15.817  24.185  0.00  0.00    +0.000 A 
ENDBRANCH  29  30
ENDBRANCH   4  29
TORSDOF 6
ENDMDL
MODEL 7
REMARK VINA RESULT:      -7.4      2.224      7.209
REMARK  Name = 
REMARK  6 active torsions:
REMARK  status: ('A' for Active; 'I' for Inactive)
REMARK    1  A    between atoms: N_1  and  C_2
REMARK    2  A    between atoms: C_5  and  C_6
REMARK    3  A    between atoms: C_6  and  N_7
REMARK    4  A    between atoms: C_10  and  C_11
REMARK    5  A    between atoms: C_11  and  C_12
REMARK    6  A    between atoms: C_19  and  C_20
REMARK                            x       y       z     vdW  Elec       q    Type
REMARK                         _______ _______ _______ _____ _____    ______ ____
ROOT
ATOM      1  N   UNL     1      -1.059  12.521  21.922  0.00  0.00    +0.000 N 
ATOM      2  C   UNL     1      -0.039  13.344  21.344  0.00  0.00    +0.000 C 
ATOM      3  O   UNL     1       0.199  14.451  21.854  0.00  0.00    +0.000 OA
ATOM      4  C   UNL     1       0.738  13.068  19.989  0.00  0.00    +0.000 C 
ATOM      5  N   UNL     1       0.631  11.724  19.339  0.00  0.00    +0.000 NA
ATOM      6  C   UNL     1      -0.560  11.272  19.493  0.00  0.00    +0.000 C 
ATOM      7  C   UNL     1      -0.545  10.438  20.734  0.00  0.00    +0.000 A 
ATOM      8  C   UNL     1       0.368   9.370  20.825  0.00  0.00    +0.000 A 
ATOM      9  C   UNL     1       0.778   8.863  22.066  0.00  0.00    +0.000 A 
ATOM     10  C   UNL     1       0.179   9.330  23.228  0.00  0.00    +0.000 A 
ATOM     11  C   UNL     1      -0.687  10.421  23.147  0.00  0.00    +0.000 A 
ATOM     12  C   UNL     1      -0.872  11.097  21.918  0.00  0.00    +0.000 A 
ENDROOT
BRANCH   6  13
ATOM     13  C   UNL     1      -1.736  12.093  18.843  0.00  0.00    +0.000 C 
ATOM     14  C   UNL     1      -1.821  11.798  17.333  0.00  0.00    +0.000 C 
ATOM     15  C   UNL     1      -2.636  10.558  17.020  0.00  0.00    +0.000 C 
ATOM     16  C   UNL     1      -4.057  10.615  17.548  0.00  0.00    +0.000 C 
ATOM     17  C   UNL     1      -4.253  11.318  18.886  0.00  0.00    +0.000 C 
ATOM     18  C   UNL     1      -3.153  12.250  19.389  0.00  0.00    +0.000 C 
ENDBRANCH   6  13
BRANCH   1  19
ATOM     19  C   UNL     1      -1.736  13.132  23.091  0.00  0.00    +0.000 C 
BRANCH  19  23
ATOM     20  C   UNL     1      -5.813  14.458  22.327  0.00  0.00    +0.000 A 
ATOM     21  C   UNL     1      -4.794  15.406  22.423  0.00  0.00    +0.000 A 
ATOM     22  C   UNL     1      -3.481  15.022  22.733  0.00  0.00    +0.000 A 
ATOM     23  C   UNL     1      -3.148  13.680  22.936  0.00  0.00    +0.000 A 
ATOM     24  C   UNL     1      -4.200  12.750  22.940  0.00  0.00    +0.000 A 
ATOM     25  C   UNL     1      -5.505  13.128  22.609  0.00  0.00    +0.000 A 
BRANCH  20  26
ATOM     26  N   UNL     1      -7.021  14.782  21.703  0.00  0.00    +0.000 N 
ATOM     27  H   UNL     1      -6.956  14.993  20.715  0.00  0.00    +0.000 HD
ATOM     28  H   UNL     1      -7.622  15.416  22.218  0.00  0.00    +0.000 HD
ENDBRANCH  20  26
ENDBRANCH  19  23
ENDBRANCH   1  19
BRANCH   4  29
ATOM     29  C   UNL     1       2.224  13.439  20.035  0.00  0.00    +0.000 C 
BRANCH  29  30
ATOM     30  C   UNL     1       2.609  14.570  19.125  0.00  0.00    +0.000 A 
ATOM     31  C   UNL     1       1.816  15.718  19.023  0.00  0.00    +0.000 A 
ATOM     32  C   UNL     1       2.167  16.745  18.147  0.00  0.00    +0.000 A 
ATOM     33  C   UNL     1       3.316  16.623  17.363  0.00  0.00    +0.000 A 
ATOM     34  C   UNL     1       4.112  15.483  17.462  0.00  0.00    +0.000 A 
ATOM     35  C   UNL     1       3.760  14.467  18.346  0.00  0.00    +0.000 A 
ENDBRANCH  29  30
ENDBRANCH   4  29
TORSDOF 6
ENDMDL
MODEL 8
REMARK VINA RESULT:      -7.3      1.550      2.204
REMARK  Name = 
REMARK  6 active torsions:
REMARK  status: ('A' for Active; 'I' for Inactive)
REMARK    1  A    between atoms: N_1  and  C_2
REMARK    2  A    between atoms: C_5  and  C_6
REMARK    3  A    between atoms: C_6  and  N_7
REMARK    4  A    between atoms: C_10  and  C_11
REMARK    5  A    between atoms: C_11  and  C_12
REMARK    6  A    between atoms: C_19  and  C_20
REMARK                            x       y       z     vdW  Elec       q    Type
REMARK                         _______ _______ _______ _____ _____    ______ ____
ROOT
ATOM      1  N   UNL     1      -0.389  11.400  20.965  0.00  0.00    +0.000 N 
ATOM      2  C   UNL     1      -1.426  11.431  21.955  0.00  0.00    +0.000 C 
ATOM      3  O   UNL     1      -1.302  10.731  22.973  0.00  0.00    +0.000 OA
ATOM      4  C   UNL     1      -2.831  12.153  21.824  0.00  0.00    +0.000 C 
ATOM      5  N   UNL     1      -3.062  13.120  20.705  0.00  0.00    +0.000 NA
ATOM      6  C   UNL     1      -2.462  12.700  19.652  0.00  0.00    +0.000 C 
ATOM      7  C   UNL     1      -1.109  13.337  19.644  0.00  0.00    +0.000 A 
ATOM      8  C   UNL     1      -1.019  14.741  19.696  0.00  0.00    +0.000 A 
ATOM      9  C   UNL     1       0.138  15.382  20.164  0.00  0.00    +0.000 A 
ATOM     10  C   UNL     1       1.265  14.629  20.459  0.00  0.00    +0.000 A 
ATOM     11  C   UNL     1       1.165  13.237  20.458  0.00  0.00    +0.000 A 
ATOM     12  C   UNL     1      -0.087  12.612  20.255  0.00  0.00    +0.000 A 
ENDROOT
BRANCH   6  13
ATOM     13  C   UNL     1      -2.930  11.321  19.053  0.00  0.00    +0.000 C 
ATOM     14  C   UNL     1      -4.401  11.408  18.600  0.00  0.00    +0.000 C 
ATOM     15  C   UNL     1      -4.554  11.964  17.198  0.00  0.00    +0.000 C 
ATOM     16  C   UNL     1      -3.806  11.171  16.144  0.00  0.00    +0.000 C 
ATOM     17  C   UNL     1      -2.468  10.577  16.569  0.00  0.00    +0.000 C 
ATOM     18  C   UNL     1      -2.167  10.447  18.061  0.00  0.00    +0.000 C 
ENDBRANCH   6  13
BRANCH   1  19
ATOM     19  C   UNL     1       0.730  10.486  21.293  0.00  0.00    +0.000 C 
BRANCH  19  23
ATOM     20  C   UNL     1       2.369   7.510  18.569  0.00  0.00    +0.000 A 
ATOM     21  C   UNL     1       1.959   8.745  18.065  0.00  0.00    +0.000 A 
ATOM     22  C   UNL     1       1.367   9.703  18.901  0.00  0.00    +0.000 A 
ATOM     23  C   UNL     1       1.186   9.461  20.265  0.00  0.00    +0.000 A 
ATOM     24  C   UNL     1       1.505   8.177  20.738  0.00  0.00    +0.000 A 
ATOM     25  C   UNL     1       2.117   7.230  19.910  0.00  0.00    +0.000 A 
BRANCH  20  26
ATOM     26  N   UNL     1       3.244   6.705  17.836  0.00  0.00    +0.000 N 
ATOM     27  H   UNL     1       4.154   7.110  17.649  0.00  0.00    +0.000 HD
ATOM     28  H   UNL     1       2.836   6.230  17.038  0.00  0.00    +0.000 HD
ENDBRANCH  20  26
ENDBRANCH  19  23
ENDBRANCH   1  19
BRANCH   4  29
ATOM     29  C   UNL     1      -3.311  12.823  23.116  0.00  0.00    +0.000 C 
BRANCH  29  30
ATOM     30  C   UNL     1      -2.680  14.157  23.394  0.00  0.00    +0.000 A 
ATOM     31  C   UNL     1      -1.324  14.263  23.718  0.00  0.00    +0.000 A 
ATOM     32  C   UNL     1      -0.760  15.505  24.009  0.00  0.00    +0.000 A 
ATOM     33  C   UNL     1      -1.558  16.650  23.981  0.00  0.00    +0.000 A 
ATOM     34  C   UNL     1      -2.909  16.553  23.655  0.00  0.00    +0.000 A 
ATOM     35  C   UNL     1      -3.462  15.310  23.356  0.00  0.00    +0.000 A 
ENDBRANCH  29  30
ENDBRANCH   4  29
TORSDOF 6
ENDMDL
MODEL 9
REMARK VINA RESULT:      -7.2      1.866      6.877
REMARK  Name = 
REMARK  6 active torsions:
REMARK  status: ('A' for Active; 'I' for Inactive)
REMARK    1  A    between atoms: N_1  and  C_2
REMARK    2  A    between atoms: C_5  and  C_6
REMARK    3  A    between atoms: C_6  and  N_7
REMARK    4  A    between atoms: C_10  and  C_11
REMARK    5  A    between atoms: C_11  and  C_12
REMARK    6  A    between atoms: C_19  and  C_20
REMARK                            x       y       z     vdW  Elec       q    Type
REMARK                         _______ _______ _______ _____ _____    ______ ____
ROOT
ATOM      1  N   UNL     1      -0.866  11.517  21.649  0.00  0.00    +0.000 N 
ATOM      2  C   UNL     1      -0.010  12.605  21.279  0.00  0.00    +0.000 C 
ATOM      3  O   UNL     1       0.099  13.571  22.052  0.00  0.00    +0.000 OA
ATOM      4  C   UNL     1       0.712  12.801  19.880  0.00  0.00    +0.000 C 
ATOM      5  N   UNL     1       0.757  11.663  18.908  0.00  0.00    +0.000 NA
ATOM      6  C   UNL     1      -0.346  11.011  18.969  0.00  0.00    +0.000 C 
ATOM      7  C   UNL     1      -0.137   9.903  19.953  0.00  0.00    +0.000 A 
ATOM      8  C   UNL     1       0.922   9.000  19.743  0.00  0.00    +0.000 A 
ATOM      9  C   UNL     1       1.477   8.266  20.802  0.00  0.00    +0.000 A 
ATOM     10  C   UNL     1       0.891   8.328  22.058  0.00  0.00    +0.000 A 
ATOM     11  C   UNL     1      -0.124   9.259  22.282  0.00  0.00    +0.000 A 
ATOM     12  C   UNL     1      -0.479  10.185  21.274  0.00  0.00    +0.000 A 
ENDROOT
BRANCH   6  13
ATOM     13  C   UNL     1      -1.665  11.779  18.581  0.00  0.00    +0.000 C 
ATOM     14  C   UNL     1      -1.710  12.027  17.061  0.00  0.00    +0.000 C 
ATOM     15  C   UNL     1      -2.277  10.852  16.288  0.00  0.00    +0.000 C 
ATOM     16  C   UNL     1      -3.675  10.458  16.721  0.00  0.00    +0.000 C 
ATOM     17  C   UNL     1      -3.987  10.593  18.207  0.00  0.00    +0.000 C 
ATOM     18  C   UNL     1      -3.079  11.471  19.066  0.00  0.00    +0.000 C 
ENDBRANCH   6  13
BRANCH   1  19
ATOM     19  C   UNL     1      -1.549  11.704  22.951  0.00  0.00    +0.000 C 
BRANCH  19  23
ATOM     20  C   UNL     1      -5.702  12.991  23.201  0.00  0.00    +0.000 A 
ATOM     21  C   UNL     1      -5.040  13.055  21.974  0.00  0.00    +0.000 A 
ATOM     22  C   UNL     1      -3.684  12.710  21.869  0.00  0.00    +0.000 A 
ATOM     23  C   UNL     1      -2.959  12.276  22.982  0.00  0.00    +0.000 A 
ATOM     24  C   UNL     1      -3.607  12.316  24.228  0.00  0.00    +0.000 A 
ATOM     25  C   UNL     1      -4.965  12.637  24.329  0.00  0.00    +0.000 A 
BRANCH  20  26
ATOM     26  N   UNL     1      -7.098  13.004  23.250  0.00  0.00    +0.000 N 
ATOM     27  H   UNL     1      -7.512  12.446  23.987  0.00  0.00    +0.000 HD
ATOM     28  H   UNL     1      -7.567  12.914  22.356  0.00  0.00    +0.000 HD
ENDBRANCH  20  26
ENDBRANCH  19  23
ENDBRANCH   1  19
BRANCH   4  29
ATOM     29  C   UNL     1       2.130  13.371  19.985  0.00  0.00    +0.000 C 
BRANCH  29  30
ATOM     30  C   UNL     1       2.401  14.533  19.074  0.00  0.00    +0.000 A 
ATOM     31  C   UNL     1       3.451  14.499  18.151  0.00  0.00    +0.000 A 
ATOM     32  C   UNL     1       3.713  15.599  17.335  0.00  0.00    +0.000 A 
ATOM     33  C   UNL     1       2.924  16.745  17.446  0.00  0.00    +0.000 A 
ATOM     34  C   UNL     1       1.874  16.786  18.361  0.00  0.00    +0.000 A 
ATOM     35  C   UNL     1       1.612  15.679  19.165  0.00  0.00    +0.000 A 
ENDBRANCH  29  30
ENDBRANCH   4  29
TORSDOF 6
ENDMDL
