MODEL 1
REMARK VINA RESULT:      -8.1      0.000      0.000
REMARK  Name = 
REMARK  8 active torsions:
REMARK  status: ('A' for Active; 'I' for Inactive)
REMARK    1  A    between atoms: C_1  and  C_2
REMARK    2  A    between atoms: C_2  and  O_3
REMARK    3  A    between atoms: O_3  and  C_4
REMARK    4  A    between atoms: C_4  and  C_6
REMARK    5  A    between atoms: C_9  and  C_10
REMARK    6  A    between atoms: C_10  and  N_11
REMARK    7  A    between atoms: N_11  and  C_12
REMARK    8  A    between atoms: C_23  and  C_24
REMARK                            x       y       z     vdW  Elec       q    Type
REMARK                         _______ _______ _______ _____ _____    ______ ____
ROOT
ATOM      1  C   UNL     1       1.755   7.898  19.641  0.00  0.00    +0.000 A 
ATOM      2  C   UNL     1       1.507   7.761  21.011  0.00  0.00    +0.000 A 
ATOM      3  C   UNL     1       1.018   8.822  21.773  0.00  0.00    +0.000 A 
ATOM      4  C   UNL     1       0.643  10.014  21.189  0.00  0.00    +0.000 A 
ATOM      5  N   UNL     1       0.329  11.033  21.990  0.00  0.00    +0.000 NA
ATOM      6  C   UNL     1      -0.072  12.159  21.411  0.00  0.00    +0.000 A 
ATOM      7  N   UNL     1       0.135  13.358  22.074  0.00  0.00    +0.000 N 
ATOM      8  N   UNL     1      -0.351  12.295  20.125  0.00  0.00    +0.000 NA
ATOM      9  C   UNL     1       0.021  11.286  19.335  0.00  0.00    +0.000 A 
ATOM     10  N   UNL     1      -0.245  11.533  17.986  0.00  0.00    +0.000 N 
ATOM     11  C   UNL     1       0.672  10.124  19.799  0.00  0.00    +0.000 A 
ATOM     12  C   UNL     1       1.356   9.112  19.032  0.00  0.00    +0.000 A 
ATOM     13  C   UNL     1       1.754   9.417  17.606  0.00  0.00    +0.000 C 
ATOM     14  H   UNL     1       1.139  13.374  22.225  0.00  0.00    +0.000 HD
ATOM     15  H   UNL     1      -0.122  14.067  21.397  0.00  0.00    +0.000 HD
ATOM     16  H   UNL     1      -0.784  12.396  17.950  0.00  0.00    +0.000 HD
ATOM     17  H   UNL     1      -0.744  10.761  17.557  0.00  0.00    +0.000 HD
ENDROOT
BRANCH   1  18
ATOM     18  N   UNL     1       2.243   6.824  18.879  0.00  0.00    +0.000 N 
ATOM     19  H   UNL     1       2.206   6.986  17.877  0.00  0.00    +0.000 HD
BRANCH  18  20
ATOM     20  C   UNL     1       3.495   6.195  19.280  0.00  0.00    +0.000 C 
BRANCH  20  24
ATOM     21  C   UNL     1       5.805   5.158  15.781  0.00  0.00    +0.000 A 
ATOM     22  C   UNL     1       5.602   4.215  16.797  0.00  0.00    +0.000 A 
ATOM     23  C   UNL     1       4.872   4.555  17.935  0.00  0.00    +0.000 A 
ATOM     24  C   UNL     1       4.328   5.840  18.072  0.00  0.00    +0.000 A 
ATOM     25  C   UNL     1       4.550   6.788  17.062  0.00  0.00    +0.000 A 
ATOM     26  C   UNL     1       5.278   6.451  15.917  0.00  0.00    +0.000 A 
BRANCH  21  27
ATOM     27  C   UNL     1       6.640   4.753  14.636  0.00  0.00    +0.000 C 
ATOM     28  O   UNL     1       7.581   5.413  14.216  0.00  0.00    +0.000 OA
BRANCH  27  29
ATOM     29  O   UNL     1       6.151   3.622  14.059  0.00  0.00    +0.000 OA
BRANCH  29  31
ATOM     30  C   UNL     1       4.856   3.493  12.058  0.00  0.00    +0.000 C 
ATOM     31  C   UNL     1       6.264   3.574  12.625  0.00  0.00    +0.000 C 
ENDBRANCH  29  31
ENDBRANCH  27  29
ENDBRANCH  21  27
ENDBRANCH  20  24
ENDBRANCH  18  20
ENDBRANCH   1  18
TORSDOF 6
ENDMDL
MODEL 2
REMARK VINA RESULT:      -8.1      1.295      2.482
REMARK  Name = 
REMARK  8 active torsions:
REMARK  status: ('A' for Active; 'I' for Inactive)
REMARK    1  A    between atoms: C_1  and  C_2
REMARK    2  A    between atoms: C_2  and  O_3
REMARK    3  A    between atoms: O_3  and  C_4
REMARK    4  A    between atoms: C_4  and  C_6
REMARK    5  A    between atoms: C_9  and  C_10
REMARK    6  A    between atoms: C_10  and  N_11
REMARK    7  A    between atoms: N_11  and  C_12
REMARK    8  A    between atoms: C_23  and  C_24
REMARK                            x       y       z     vdW  Elec       q    Type
REMARK                         _______ _______ _______ _____ _____    ______ ____
ROOT
ATOM      1  C   UNL     1       1.812   7.933  19.850  0.00  0.00    +0.000 A 
ATOM      2  C   UNL     1       2.078   8.309  18.528  0.00  0.00    +0.000 A 
ATOM      3  C   UNL     1       1.434   9.395  17.937  0.00  0.00    +0.000 A 
ATOM      4  C   UNL     1       0.600  10.220  18.663  0.00  0.00    +0.000 A 
ATOM      5  N   UNL     1      -0.098  11.145  18.002  0.00  0.00    +0.000 NA
ATOM      6  C   UNL     1      -0.862  11.958  18.721  0.00  0.00    +0.000 A 
ATOM      7  N   UNL     1      -1.985  12.514  18.130  0.00  0.00    +0.000 N 
ATOM      8  N   UNL     1      -0.852  12.040  20.042  0.00  0.00    +0.000 NA
ATOM      9  C   UNL     1      -0.194  11.073  20.684  0.00  0.00    +0.000 A 
ATOM     10  N   UNL     1      -0.286  11.189  22.073  0.00  0.00    +0.000 N 
ATOM     11  C   UNL     1       0.470  10.011  20.036  0.00  0.00    +0.000 A 
ATOM     12  C   UNL     1       0.971   8.784  20.605  0.00  0.00    +0.000 A 
ATOM     13  C   UNL     1       0.483   8.358  21.972  0.00  0.00    +0.000 C 
ATOM     14  H   UNL     1      -2.516  11.703  17.826  0.00  0.00    +0.000 HD
ATOM     15  H   UNL     1      -2.469  12.975  18.892  0.00  0.00    +0.000 HD
ATOM     16  H   UNL     1      -0.746  12.079  22.259  0.00  0.00    +0.000 HD
ATOM     17  H   UNL     1       0.626  11.140  22.513  0.00  0.00    +0.000 HD
ENDROOT
BRANCH   1  18
ATOM     18  N   UNL     1       2.467   6.841  20.441  0.00  0.00    +0.000 N 
ATOM     19  H   UNL     1       2.394   6.822  21.454  0.00  0.00    +0.000 HD
BRANCH  18  20
ATOM     20  C   UNL     1       2.282   5.517  19.859  0.00  0.00    +0.000 C 
BRANCH  20  24
ATOM     21  C   UNL     1       5.560   4.604  17.198  0.00  0.00    +0.000 A 
ATOM     22  C   UNL     1       4.250   4.246  16.852  0.00  0.00    +0.000 A 
ATOM     23  C   UNL     1       3.194   4.524  17.720  0.00  0.00    +0.000 A 
ATOM     24  C   UNL     1       3.429   5.170  18.942  0.00  0.00    +0.000 A 
ATOM     25  C   UNL     1       4.745   5.509  19.294  0.00  0.00    +0.000 A 
ATOM     26  C   UNL     1       5.807   5.236  18.426  0.00  0.00    +0.000 A 
BRANCH  21  27
ATOM     27  C   UNL     1       6.636   4.223  16.265  0.00  0.00    +0.000 C 
ATOM     28  O   UNL     1       7.821   4.449  16.470  0.00  0.00    +0.000 OA
BRANCH  27  29
ATOM     29  O   UNL     1       6.118   3.700  15.121  0.00  0.00    +0.000 OA
BRANCH  29  31
ATOM     30  C   UNL     1       6.171   3.478  12.745  0.00  0.00    +0.000 C 
ATOM     31  C   UNL     1       6.483   4.396  13.915  0.00  0.00    +0.000 C 
ENDBRANCH  29  31
ENDBRANCH  27  29
ENDBRANCH  21  27
ENDBRANCH  20  24
ENDBRANCH  18  20
ENDBRANCH   1  18
TORSDOF 6
ENDMDL
MODEL 3
REMARK VINA RESULT:      -7.9      1.324      2.540
REMARK  Name = 
REMARK  8 active torsions:
REMARK  status: ('A' for Active; 'I' for Inactive)
REMARK    1  A    between atoms: C_1  and  C_2
REMARK    2  A    between atoms: C_2  and  O_3
REMARK    3  A    between atoms: O_3  and  C_4
REMARK    4  A    between atoms: C_4  and  C_6
REMARK    5  A    between atoms: C_9  and  C_10
REMARK    6  A    between atoms: C_10  and  N_11
REMARK    7  A    between atoms: N_11  and  C_12
REMARK    8  A    between atoms: C_23  and  C_24
REMARK                            x       y       z     vdW  Elec       q    Type
REMARK                         _______ _______ _______ _____ _____    ______ ____
ROOT
ATOM      1  C   UNL     1       1.755   7.825  19.988  0.00  0.00    +0.000 A 
ATOM      2  C   UNL     1       2.164   8.218  18.709  0.00  0.00    +0.000 A 
ATOM      3  C   UNL     1       1.633   9.349  18.091  0.00  0.00    +0.000 A 
ATOM      4  C   UNL     1       0.774  10.198  18.758  0.00  0.00    +0.000 A 
ATOM      5  N   UNL     1       0.189  11.172  18.060  0.00  0.00    +0.000 NA
ATOM      6  C   UNL     1      -0.601  12.006  18.727  0.00  0.00    +0.000 A 
ATOM      7  N   UNL     1      -1.634  12.631  18.049  0.00  0.00    +0.000 N 
ATOM      8  N   UNL     1      -0.714  12.056  20.045  0.00  0.00    +0.000 NA
ATOM      9  C   UNL     1      -0.167  11.042  20.718  0.00  0.00    +0.000 A 
ATOM     10  N   UNL     1      -0.387  11.129  22.095  0.00  0.00    +0.000 N 
ATOM     11  C   UNL     1       0.504   9.963  20.106  0.00  0.00    +0.000 A 
ATOM     12  C   UNL     1       0.888   8.699  20.685  0.00  0.00    +0.000 A 
ATOM     13  C   UNL     1       0.252   8.266  21.987  0.00  0.00    +0.000 C 
ATOM     14  H   UNL     1      -2.173  11.856  17.673  0.00  0.00    +0.000 HD
ATOM     15  H   UNL     1      -2.166  13.098  18.774  0.00  0.00    +0.000 HD
ATOM     16  H   UNL     1      -0.819  12.036  22.262  0.00  0.00    +0.000 HD
ATOM     17  H   UNL     1       0.476  11.023  22.618  0.00  0.00    +0.000 HD
ENDROOT
BRANCH   1  18
ATOM     18  N   UNL     1       2.297   6.687  20.608  0.00  0.00    +0.000 N 
ATOM     19  H   UNL     1       2.020   6.581  21.579  0.00  0.00    +0.000 HD
BRANCH  18  20
ATOM     20  C   UNL     1       2.260   5.417  19.891  0.00  0.00    +0.000 C 
BRANCH  20  24
ATOM     21  C   UNL     1       5.676   4.952  17.290  0.00  0.00    +0.000 A 
ATOM     22  C   UNL     1       5.850   5.387  18.610  0.00  0.00    +0.000 A 
ATOM     23  C   UNL     1       4.745   5.555  19.445  0.00  0.00    +0.000 A 
ATOM     24  C   UNL     1       3.452   5.284  18.975  0.00  0.00    +0.000 A 
ATOM     25  C   UNL     1       3.280   4.868  17.646  0.00  0.00    +0.000 A 
ATOM     26  C   UNL     1       4.385   4.695  16.806  0.00  0.00    +0.000 A 
BRANCH  21  27
ATOM     27  C   UNL     1       6.879   4.858  16.443  0.00  0.00    +0.000 C 
ATOM     28  O   UNL     1       7.924   4.333  16.806  0.00  0.00    +0.000 OA
BRANCH  27  29
ATOM     29  O   UNL     1       6.697   5.525  15.271  0.00  0.00    +0.000 OA
BRANCH  29  31
ATOM     30  C   UNL     1       6.019   3.886  13.673  0.00  0.00    +0.000 C 
ATOM     31  C   UNL     1       7.141   4.820  14.097  0.00  0.00    +0.000 C 
ENDBRANCH  29  31
ENDBRANCH  27  29
ENDBRANCH  21  27
ENDBRANCH  20  24
ENDBRANCH  18  20
ENDBRANCH   1  18
TORSDOF 6
ENDMDL
MODEL 4
REMARK VINA RESULT:      -7.9      1.456      1.707
REMARK  Name = 
REMARK  8 active torsions:
REMARK  status: ('A' for Active; 'I' for Inactive)
REMARK    1  A    between atoms: C_1  and  C_2
REMARK    2  A    between atoms: C_2  and  O_3
REMARK    3  A    between atoms: O_3  and  C_4
REMARK    4  A    between atoms: C_4  and  C_6
REMARK    5  A    between atoms: C_9  and  C_10
REMARK    6  A    between atoms: C_10  and  N_11
REMARK    7  A    between atoms: N_11  and  C_12
REMARK    8  A    between atoms: C_23  and  C_24
REMARK                            x       y       z     vdW  Elec       q    Type
REMARK                         _______ _______ _______ _____ _____    ______ ____
ROOT
ATOM      1  C   UNL     1       1.461   8.628  20.113  0.00  0.00    +0.000 A 
ATOM      2  C   UNL     1       1.437   8.319  21.477  0.00  0.00    +0.000 A 
ATOM      3  C   UNL     1       0.789   9.141  22.399  0.00  0.00    +0.000 A 
ATOM      4  C   UNL     1       0.042  10.228  21.993  0.00  0.00    +0.000 A 
ATOM      5  N   UNL     1      -0.422  11.054  22.931  0.00  0.00    +0.000 NA
ATOM      6  C   UNL     1      -1.175  12.070  22.526  0.00  0.00    +0.000 A 
ATOM      7  N   UNL     1      -1.207  13.223  23.294  0.00  0.00    +0.000 N 
ATOM      8  N   UNL     1      -1.644  12.227  21.299  0.00  0.00    +0.000 NA
ATOM      9  C   UNL     1      -1.125  11.425  20.367  0.00  0.00    +0.000 A 
ATOM     10  N   UNL     1      -1.617  11.697  19.088  0.00  0.00    +0.000 N 
ATOM     11  C   UNL     1      -0.138  10.452  20.628  0.00  0.00    +0.000 A 
ATOM     12  C   UNL     1       0.683   9.731  19.688  0.00  0.00    +0.000 A 
ATOM     13  C   UNL     1       0.800  10.246  18.271  0.00  0.00    +0.000 C 
ATOM     14  H   UNL     1      -0.231  13.501  23.342  0.00  0.00    +0.000 HD
ATOM     15  H   UNL     1      -1.726  13.887  22.730  0.00  0.00    +0.000 HD
ATOM     16  H   UNL     1      -2.364  12.380  19.204  0.00  0.00    +0.000 HD
ATOM     17  H   UNL     1      -1.947  10.855  18.629  0.00  0.00    +0.000 HD
ENDROOT
BRANCH   1  18
ATOM     18  N   UNL     1       2.111   7.793  19.189  0.00  0.00    +0.000 N 
ATOM     19  H   UNL     1       2.896   8.236  18.722  0.00  0.00    +0.000 HD
BRANCH  18  20
ATOM     20  C   UNL     1       2.417   6.422  19.581  0.00  0.00    +0.000 C 
BRANCH  20  24
ATOM     21  C   UNL     1       6.026   5.032  17.659  0.00  0.00    +0.000 A 
ATOM     22  C   UNL     1       5.495   4.333  18.751  0.00  0.00    +0.000 A 
ATOM     23  C   UNL     1       4.340   4.792  19.384  0.00  0.00    +0.000 A 
ATOM     24  C   UNL     1       3.695   5.952  18.930  0.00  0.00    +0.000 A 
ATOM     25  C   UNL     1       4.241   6.660  17.849  0.00  0.00    +0.000 A 
ATOM     26  C   UNL     1       5.397   6.202  17.209  0.00  0.00    +0.000 A 
BRANCH  21  27
ATOM     27  C   UNL     1       7.284   4.528  17.078  0.00  0.00    +0.000 C 
ATOM     28  O   UNL     1       8.259   4.209  17.746  0.00  0.00    +0.000 OA
BRANCH  27  29
ATOM     29  O   UNL     1       7.241   4.578  15.720  0.00  0.00    +0.000 OA
BRANCH  29  31
ATOM     30  C   UNL     1       5.904   4.220  13.774  0.00  0.00    +0.000 C 
ATOM     31  C   UNL     1       6.344   3.633  15.106  0.00  0.00    +0.000 C 
ENDBRANCH  29  31
ENDBRANCH  27  29
ENDBRANCH  21  27
ENDBRANCH  20  24
ENDBRANCH  18  20
ENDBRANCH   1  18
TORSDOF 6
ENDMDL
MODEL 5
REMARK VINA RESULT:      -7.9      1.141      1.518
REMARK  Name = 
REMARK  8 active torsions:
REMARK  status: ('A' for Active; 'I' for Inactive)
REMARK    1  A    between atoms: C_1  and  C_2
REMARK    2  A    between atoms: C_2  and  O_3
REMARK    3  A    between atoms: O_3  and  C_4
REMARK    4  A    between atoms: C_4  and  C_6
REMARK    5  A    between atoms: C_9  and  C_10
REMARK    6  A    between atoms: C_10  and  N_11
REMARK    7  A    between atoms: N_11  and  C_12
REMARK    8  A    between atoms: C_23  and  C_24
REMARK                            x       y       z     vdW  Elec       q    Type
REMARK                         _______ _______ _______ _____ _____    ______ ____
ROOT
ATOM      1  C   UNL     1       1.493   8.608  19.967  0.00  0.00    +0.000 A 
ATOM      2  C   UNL     1       1.478   8.265  21.323  0.00  0.00    +0.000 A 
ATOM      3  C   UNL     1       0.830   9.060  22.269  0.00  0.00    +0.000 A 
ATOM      4  C   UNL     1       0.075  10.152  21.895  0.00  0.00    +0.000 A 
ATOM      5  N   UNL     1      -0.388  10.952  22.856  0.00  0.00    +0.000 NA
ATOM      6  C   UNL     1      -1.149  11.973  22.480  0.00  0.00    +0.000 A 
ATOM      7  N   UNL     1      -1.184  13.106  23.277  0.00  0.00    +0.000 N 
ATOM      8  N   UNL     1      -1.625  12.159  21.260  0.00  0.00    +0.000 NA
ATOM      9  C   UNL     1      -1.106  11.384  20.305  0.00  0.00    +0.000 A 
ATOM     10  N   UNL     1      -1.607  11.685  19.036  0.00  0.00    +0.000 N 
ATOM     11  C   UNL     1      -0.113  10.411  20.537  0.00  0.00    +0.000 A 
ATOM     12  C   UNL     1       0.707   9.717  19.574  0.00  0.00    +0.000 A 
ATOM     13  C   UNL     1       0.814  10.270  18.170  0.00  0.00    +0.000 C 
ATOM     14  H   UNL     1      -0.208  13.389  23.328  0.00  0.00    +0.000 HD
ATOM     15  H   UNL     1      -1.708  13.782  22.733  0.00  0.00    +0.000 HD
ATOM     16  H   UNL     1      -2.357  12.361  19.173  0.00  0.00    +0.000 HD
ATOM     17  H   UNL     1      -1.935  10.854  18.557  0.00  0.00    +0.000 HD
ENDROOT
BRANCH   1  18
ATOM     18  N   UNL     1       2.143   7.801  19.019  0.00  0.00    +0.000 N 
ATOM     19  H   UNL     1       2.910   8.267  18.545  0.00  0.00    +0.000 HD
BRANCH  18  20
ATOM     20  C   UNL     1       2.483   6.431  19.385  0.00  0.00    +0.000 C 
BRANCH  20  24
ATOM     21  C   UNL     1       5.515   4.826  16.760  0.00  0.00    +0.000 A 
ATOM     22  C   UNL     1       5.252   6.202  16.775  0.00  0.00    +0.000 A 
ATOM     23  C   UNL     1       4.260   6.718  17.609  0.00  0.00    +0.000 A 
ATOM     24  C   UNL     1       3.522   5.869  18.445  0.00  0.00    +0.000 A 
ATOM     25  C   UNL     1       3.775   4.488  18.414  0.00  0.00    +0.000 A 
ATOM     26  C   UNL     1       4.770   3.966  17.582  0.00  0.00    +0.000 A 
BRANCH  21  27
ATOM     27  C   UNL     1       6.531   4.339  15.809  0.00  0.00    +0.000 C 
ATOM     28  O   UNL     1       7.734   4.499  15.963  0.00  0.00    +0.000 OA
BRANCH  27  29
ATOM     29  O   UNL     1       5.941   3.801  14.708  0.00  0.00    +0.000 OA
BRANCH  29  31
ATOM     30  C   UNL     1       5.897   3.324  12.369  0.00  0.00    +0.000 C 
ATOM     31  C   UNL     1       6.547   4.167  13.454  0.00  0.00    +0.000 C 
ENDBRANCH  29  31
ENDBRANCH  27  29
ENDBRANCH  21  27
ENDBRANCH  20  24
ENDBRANCH  18  20
ENDBRANCH   1  18
TORSDOF 6
ENDMDL
MODEL 6
REMARK VINA RESULT:      -7.8      1.088      2.386
REMARK  Name = 
REMARK  8 active torsions:
REMARK  status: ('A' for Active; 'I' for Inactive)
REMARK    1  A    between atoms: C_1  and  C_2
REMARK    2  A    between atoms: C_2  and  O_3
REMARK    3  A    between atoms: O_3  and  C_4
REMARK    4  A    between atoms: C_4  and  C_6
REMARK    5  A    between atoms: C_9  and  C_10
REMARK    6  A    between atoms: C_10  and  N_11
REMARK    7  A    between atoms: N_11  and  C_12
REMARK    8  A    between atoms: C_23  and  C_24
REMARK                            x       y       z     vdW  Elec       q    Type
REMARK                         _______ _______ _______ _____ _____    ______ ____
ROOT
ATOM      1  C   UNL     1       1.790   8.245  19.395  0.00  0.00    +0.000 A 
ATOM      2  C   UNL     1       1.730   8.808  18.115  0.00  0.00    +0.000 A 
ATOM      3  C   UNL     1       0.845   9.844  17.816  0.00  0.00    +0.000 A 
ATOM      4  C   UNL     1       0.078  10.440  18.796  0.00  0.00    +0.000 A 
ATOM      5  N   UNL     1      -0.853  11.316  18.415  0.00  0.00    +0.000 NA
ATOM      6  C   UNL     1      -1.552  11.913  19.374  0.00  0.00    +0.000 A 
ATOM      7  N   UNL     1      -2.834  12.353  19.087  0.00  0.00    +0.000 N 
ATOM      8  N   UNL     1      -1.284  11.841  20.668  0.00  0.00    +0.000 NA
ATOM      9  C   UNL     1      -0.390  10.919  21.030  0.00  0.00    +0.000 A 
ATOM     10  N   UNL     1      -0.211  10.857  22.414  0.00  0.00    +0.000 N 
ATOM     11  C   UNL     1       0.259  10.055  20.124  0.00  0.00    +0.000 A 
ATOM     12  C   UNL     1       1.019   8.862  20.407  0.00  0.00    +0.000 A 
ATOM     13  C   UNL     1       0.879   8.210  21.764  0.00  0.00    +0.000 C 
ATOM     14  H   UNL     1      -3.308  11.511  18.773  0.00  0.00    +0.000 HD
ATOM     15  H   UNL     1      -3.208  12.642  19.984  0.00  0.00    +0.000 HD
ATOM     16  H   UNL     1      -0.734  11.637  22.809  0.00  0.00    +0.000 HD
ATOM     17  H   UNL     1       0.770  10.897  22.666  0.00  0.00    +0.000 HD
ENDROOT
BRANCH   1  18
ATOM     18  N   UNL     1       2.687   7.205  19.690  0.00  0.00    +0.000 N 
ATOM     19  H   UNL     1       2.931   7.146  20.674  0.00  0.00    +0.000 HD
BRANCH  18  20
ATOM     20  C   UNL     1       2.445   5.889  19.112  0.00  0.00    +0.000 C 
BRANCH  20  24
ATOM     21  C   UNL     1       5.511   4.891  16.238  0.00  0.00    +0.000 A 
ATOM     22  C   UNL     1       5.495   6.156  16.842  0.00  0.00    +0.000 A 
ATOM     23  C   UNL     1       4.494   6.484  17.756  0.00  0.00    +0.000 A 
ATOM     24  C   UNL     1       3.500   5.553  18.086  0.00  0.00    +0.000 A 
ATOM     25  C   UNL     1       3.508   4.294  17.465  0.00  0.00    +0.000 A 
ATOM     26  C   UNL     1       4.511   3.959  16.550  0.00  0.00    +0.000 A 
BRANCH  21  27
ATOM     27  C   UNL     1       6.559   4.633  15.234  0.00  0.00    +0.000 C 
ATOM     28  O   UNL     1       7.577   5.304  15.128  0.00  0.00    +0.000 OA
BRANCH  27  29
ATOM     29  O   UNL     1       6.183   3.633  14.392  0.00  0.00    +0.000 OA
BRANCH  29  31
ATOM     30  C   UNL     1       6.082   2.831  12.145  0.00  0.00    +0.000 C 
ATOM     31  C   UNL     1       5.911   4.048  13.040  0.00  0.00    +0.000 C 
ENDBRANCH  29  31
ENDBRANCH  27  29
ENDBRANCH  21  27
ENDBRANCH  20  24
ENDBRANCH  18  20
ENDBRANCH   1  18
TORSDOF 6
ENDMDL
MODEL 7
REMARK VINA RESULT:      -7.8      4.771      7.757
REMARK  Name = 
REMARK  8 active torsions:
REMARK  status: ('A' for Active; 'I' for Inactive)
REMARK    1  A    between atoms: C_1  and  C_2
REMARK    2  A    between atoms: C_2  and  O_3
REMARK    3  A    between atoms: O_3  and  C_4
REMARK    4  A    between atoms: C_4  and  C_6
REMARK    5  A    between atoms: C_9  and  C_10
REMARK    6  A    between atoms: C_10  and  N_11
REMARK    7  A    between atoms: N_11  and  C_12
REMARK    8  A    between atoms: C_23  and  C_24
REMARK                            x       y       z     vdW  Elec       q    Type
REMARK                         _______ _______ _______ _____ _____    ______ ____
ROOT
ATOM      1  C   UNL     1       4.838   4.008  17.409  0.00  0.00    +0.000 A 
ATOM      2  C   UNL     1       4.928   4.643  16.165  0.00  0.00    +0.000 A 
ATOM      3  C   UNL     1       5.713   5.782  15.984  0.00  0.00    +0.000 A 
ATOM      4  C   UNL     1       6.528   6.261  16.989  0.00  0.00    +0.000 A 
ATOM      5  N   UNL     1       7.131   7.435  16.799  0.00  0.00    +0.000 NA
ATOM      6  C   UNL     1       7.946   7.860  17.757  0.00  0.00    +0.000 A 
ATOM      7  N   UNL     1       8.139   9.224  17.911  0.00  0.00    +0.000 N 
ATOM      8  N   UNL     1       8.340   7.141  18.795  0.00  0.00    +0.000 NA
ATOM      9  C   UNL     1       7.685   5.996  18.997  0.00  0.00    +0.000 A 
ATOM     10  N   UNL     1       8.110   5.327  20.147  0.00  0.00    +0.000 N 
ATOM     11  C   UNL     1       6.632   5.539  18.177  0.00  0.00    +0.000 A 
ATOM     12  C   UNL     1       5.683   4.484  18.439  0.00  0.00    +0.000 A 
ATOM     13  C   UNL     1       5.516   3.984  19.856  0.00  0.00    +0.000 C 
ATOM     14  H   UNL     1       7.199   9.580  18.059  0.00  0.00    +0.000 HD
ATOM     15  H   UNL     1       8.676   9.308  18.766  0.00  0.00    +0.000 HD
ATOM     16  H   UNL     1       8.923   5.833  20.493  0.00  0.00    +0.000 HD
ATOM     17  H   UNL     1       8.327   4.355  19.955  0.00  0.00    +0.000 HD
ENDROOT
BRANCH   1  18
ATOM     18  N   UNL     1       4.050   2.859  17.583  0.00  0.00    +0.000 N 
ATOM     19  H   UNL     1       4.456   2.180  18.219  0.00  0.00    +0.000 HD
BRANCH  18  20
ATOM     20  C   UNL     1       2.617   3.021  17.805  0.00  0.00    +0.000 C 
BRANCH  20  24
ATOM     21  C   UNL     1       1.873   6.780  19.797  0.00  0.00    +0.000 A 
ATOM     22  C   UNL     1       1.929   5.591  20.535  0.00  0.00    +0.000 A 
ATOM     23  C   UNL     1       2.151   4.374  19.889  0.00  0.00    +0.000 A 
ATOM     24  C   UNL     1       2.328   4.330  18.499  0.00  0.00    +0.000 A 
ATOM     25  C   UNL     1       2.251   5.521  17.761  0.00  0.00    +0.000 A 
ATOM     26  C   UNL     1       2.032   6.743  18.404  0.00  0.00    +0.000 A 
BRANCH  21  27
ATOM     27  C   UNL     1       1.571   8.021  20.533  0.00  0.00    +0.000 C 
ATOM     28  O   UNL     1       1.160   8.043  21.686  0.00  0.00    +0.000 OA
BRANCH  27  29
ATOM     29  O   UNL     1       1.705   9.107  19.724  0.00  0.00    +0.000 OA
BRANCH  29  31
ATOM     30  C   UNL     1      -0.029   9.994  18.343  0.00  0.00    +0.000 C 
ATOM     31  C   UNL     1       0.587  10.013  19.733  0.00  0.00    +0.000 C 
ENDBRANCH  29  31
ENDBRANCH  27  29
ENDBRANCH  21  27
ENDBRANCH  20  24
ENDBRANCH  18  20
ENDBRANCH   1  18
TORSDOF 6
ENDMDL
MODEL 8
REMARK VINA RESULT:      -7.7      0.707      1.112
REMARK  Name = 
REMARK  8 active torsions:
REMARK  status: ('A' for Active; 'I' for Inactive)
REMARK    1  A    between atoms: C_1  and  C_2
REMARK    2  A    between atoms: C_2  and  O_3
REMARK    3  A    between atoms: O_3  and  C_4
REMARK    4  A    between atoms: C_4  and  C_6
REMARK    5  A    between atoms: C_9  and  C_10
REMARK    6  A    between atoms: C_10  and  N_11
REMARK    7  A    between atoms: N_11  and  C_12
REMARK    8  A    between atoms: C_23  and  C_24
REMARK                            x       y       z     vdW  Elec       q    Type
REMARK                         _______ _______ _______ _____ _____    ______ ____
ROOT
ATOM      1  C   UNL     1       2.036   7.344  19.669  0.00  0.00    +0.000 A 
ATOM      2  C   UNL     1       1.683   7.159  21.010  0.00  0.00    +0.000 A 
ATOM      3  C   UNL     1       1.064   8.170  21.745  0.00  0.00    +0.000 A 
ATOM      4  C   UNL     1       0.663   9.349  21.153  0.00  0.00    +0.000 A 
ATOM      5  N   UNL     1       0.218  10.327  21.942  0.00  0.00    +0.000 NA
ATOM      6  C   UNL     1      -0.204  11.439  21.351  0.00  0.00    +0.000 A 
ATOM      7  N   UNL     1      -0.133  12.633  22.051  0.00  0.00    +0.000 N 
ATOM      8  N   UNL     1      -0.382  11.588  20.049  0.00  0.00    +0.000 NA
ATOM      9  C   UNL     1       0.120  10.623  19.276  0.00  0.00    +0.000 A 
ATOM     10  N   UNL     1      -0.046  10.883  17.913  0.00  0.00    +0.000 N 
ATOM     11  C   UNL     1       0.803   9.493  19.773  0.00  0.00    +0.000 A 
ATOM     12  C   UNL     1       1.614   8.544  19.050  0.00  0.00    +0.000 A 
ATOM     13  C   UNL     1       2.110   8.907  17.669  0.00  0.00    +0.000 C 
ATOM     14  H   UNL     1       0.852  12.708  22.288  0.00  0.00    +0.000 HD
ATOM     15  H   UNL     1      -0.376  13.340  21.367  0.00  0.00    +0.000 HD
ATOM     16  H   UNL     1      -0.635  11.712  17.846  0.00  0.00    +0.000 HD
ATOM     17  H   UNL     1      -0.456  10.092  17.429  0.00  0.00    +0.000 HD
ENDROOT
BRANCH   1  18
ATOM     18  N   UNL     1       2.655   6.321  18.932  0.00  0.00    +0.000 N 
ATOM     19  H   UNL     1       2.516   6.400  17.930  0.00  0.00    +0.000 HD
BRANCH  18  20
ATOM     20  C   UNL     1       4.028   5.955  19.262  0.00  0.00    +0.000 C 
BRANCH  20  24
ATOM     21  C   UNL     1       6.324   5.097  15.705  0.00  0.00    +0.000 A 
ATOM     22  C   UNL     1       5.205   5.938  15.637  0.00  0.00    +0.000 A 
ATOM     23  C   UNL     1       4.453   6.201  16.781  0.00  0.00    +0.000 A 
ATOM     24  C   UNL     1       4.811   5.633  18.012  0.00  0.00    +0.000 A 
ATOM     25  C   UNL     1       5.920   4.775  18.073  0.00  0.00    +0.000 A 
ATOM     26  C   UNL     1       6.679   4.511  16.929  0.00  0.00    +0.000 A 
BRANCH  21  27
ATOM     27  C   UNL     1       7.035   4.811  14.446  0.00  0.00    +0.000 C 
ATOM     28  O   UNL     1       7.953   5.497  14.016  0.00  0.00    +0.000 OA
BRANCH  27  29
ATOM     29  O   UNL     1       6.460   3.765  13.794  0.00  0.00    +0.000 OA
BRANCH  29  31
ATOM     30  C   UNL     1       5.814   2.612  11.806  0.00  0.00    +0.000 C 
ATOM     31  C   UNL     1       6.418   3.892  12.361  0.00  0.00    +0.000 C 
ENDBRANCH  29  31
ENDBRANCH  27  29
ENDBRANCH  21  27
ENDBRANCH  20  24
ENDBRANCH  18  20
ENDBRANCH   1  18
TORSDOF 6
ENDMDL
MODEL 9
REMARK VINA RESULT:      -7.7      1.536      2.084
REMARK  Name = 
REMARK  8 active torsions:
REMARK  status: ('A' for Active; 'I' for Inactive)
REMARK    1  A    between atoms: C_1  and  C_2
REMARK    2  A    between atoms: C_2  and  O_3
REMARK    3  A    between atoms: O_3  and  C_4
REMARK    4  A    between atoms: C_4  and  C_6
REMARK    5  A    between atoms: C_9  and  C_10
REMARK    6  A    between atoms: C_10  and  N_11
REMARK    7  A    between atoms: N_11  and  C_12
REMARK    8  A    between atoms: C_23  and  C_24
REMARK                            x       y       z     vdW  Elec       q    Type
REMARK                         _______ _______ _______ _____ _____    ______ ____
ROOT
ATOM      1  C   UNL     1       1.093   8.986  20.287  0.00  0.00    +0.000 A 
ATOM      2  C   UNL     1       1.115   8.660  21.648  0.00  0.00    +0.000 A 
ATOM      3  C   UNL     1       0.492   9.467  22.600  0.00  0.00    +0.000 A 
ATOM      4  C   UNL     1      -0.273  10.553  22.233  0.00  0.00    +0.000 A 
ATOM      5  N   UNL     1      -0.712  11.365  23.196  0.00  0.00    +0.000 NA
ATOM      6  C   UNL     1      -1.484  12.381  22.828  0.00  0.00    +0.000 A 
ATOM      7  N   UNL     1      -1.498  13.524  23.611  0.00  0.00    +0.000 N 
ATOM      8  N   UNL     1      -1.993  12.551  21.619  0.00  0.00    +0.000 NA
ATOM      9  C   UNL     1      -1.499  11.764  20.661  0.00  0.00    +0.000 A 
ATOM     10  N   UNL     1      -2.034  12.049  19.402  0.00  0.00    +0.000 N 
ATOM     11  C   UNL     1      -0.499  10.794  20.878  0.00  0.00    +0.000 A 
ATOM     12  C   UNL     1       0.296  10.090  19.902  0.00  0.00    +0.000 A 
ATOM     13  C   UNL     1       0.364  10.624  18.489  0.00  0.00    +0.000 C 
ATOM     14  H   UNL     1      -0.522  13.808  23.632  0.00  0.00    +0.000 HD
ATOM     15  H   UNL     1      -2.038  14.192  23.073  0.00  0.00    +0.000 HD
ATOM     16  H   UNL     1      -2.781  12.725  19.551  0.00  0.00    +0.000 HD
ATOM     17  H   UNL     1      -2.374  11.211  18.943  0.00  0.00    +0.000 HD
ENDROOT
BRANCH   1  18
ATOM     18  N   UNL     1       1.718   8.168  19.333  0.00  0.00    +0.000 N 
ATOM     19  H   UNL     1       2.368   8.665  18.733  0.00  0.00    +0.000 HD
BRANCH  18  20
ATOM     20  C   UNL     1       2.251   6.879  19.759  0.00  0.00    +0.000 C 
BRANCH  20  24
ATOM     21  C   UNL     1       5.734   5.840  17.425  0.00  0.00    +0.000 A 
ATOM     22  C   UNL     1       4.801   6.760  16.929  0.00  0.00    +0.000 A 
ATOM     23  C   UNL     1       3.667   7.082  17.674  0.00  0.00    +0.000 A 
ATOM     24  C   UNL     1       3.452   6.495  18.929  0.00  0.00    +0.000 A 
ATOM     25  C   UNL     1       4.378   5.559  19.414  0.00  0.00    +0.000 A 
ATOM     26  C   UNL     1       5.518   5.236  18.673  0.00  0.00    +0.000 A 
BRANCH  21  27
ATOM     27  C   UNL     1       6.876   5.497  16.559  0.00  0.00    +0.000 C 
ATOM     28  O   UNL     1       7.630   6.329  16.071  0.00  0.00    +0.000 OA
BRANCH  27  29
ATOM     29  O   UNL     1       6.898   4.163  16.296  0.00  0.00    +0.000 OA
BRANCH  29  31
ATOM     30  C   UNL     1       6.267   4.028  13.997  0.00  0.00    +0.000 C 
ATOM     31  C   UNL     1       5.852   3.699  15.422  0.00  0.00    +0.000 C 
ENDBRANCH  29  31
ENDBRANCH  27  29
ENDBRANCH  21  27
ENDBRANCH  20  24
ENDBRANCH  18  20
ENDBRANCH   1  18
TORSDOF 6
ENDMDL
