MODEL 1
REMARK VINA RESULT:      -8.0      0.000      0.000
REMARK  Name = 
REMARK  6 active torsions:
REMARK  status: ('A' for Active; 'I' for Inactive)
REMARK    1  A    between atoms: C_1  and  C_2
REMARK    2  A    between atoms: N_6  and  C_7
REMARK    3  A    between atoms: C_7  and  C_8
REMARK    4  A    between atoms: N_12  and  S_13
REMARK    5  A    between atoms: S_13  and  C_16
REMARK    6  A    between atoms: N_19  and  C_20
REMARK                            x       y       z     vdW  Elec       q    Type
REMARK                         _______ _______ _______ _____ _____    ______ ____
ROOT
ATOM      1  C   UNL     1       4.633   4.956  19.617  0.00  0.00    +0.000 C 
ATOM      2  C   UNL     1       3.559   6.002  19.267  0.00  0.00    +0.000 C 
ATOM      3  C   UNL     1       3.519   6.472  17.808  0.00  0.00    +0.000 C 
ATOM      4  C   UNL     1       4.868   6.616  17.102  0.00  0.00    +0.000 C 
ATOM      5  N   UNL     1       5.786   5.523  17.475  0.00  0.00    +0.000 NA
ATOM      6  C   UNL     1       5.964   5.338  18.930  0.00  0.00    +0.000 C 
ENDROOT
BRANCH   5   7
ATOM      7  S   UNL     1       7.154   5.302  16.483  0.00  0.00    +0.000 S 
ATOM      8  O   UNL     1       7.724   6.612  16.246  0.00  0.00    +0.000 OA
ATOM      9  O   UNL     1       7.952   4.238  17.045  0.00  0.00    +0.000 OA
BRANCH   7  10
ATOM     10  C   UNL     1       6.811   4.740  14.896  0.00  0.00    +0.000 A 
ATOM     11  C   UNL     1       7.622   5.067  13.789  0.00  0.00    +0.000 A 
ATOM     12  N   UNL     1       7.182   4.522  12.651  0.00  0.00    +0.000 NA
ATOM     13  N   UNL     1       6.097   3.826  13.028  0.00  0.00    +0.000 N 
ATOM     14  C   UNL     1       5.381   3.055  12.036  0.00  0.00    +0.000 C 
ATOM     15  C   UNL     1       5.822   3.932  14.372  0.00  0.00    +0.000 A 
ENDBRANCH   7  10
ENDBRANCH   5   7
BRANCH   1  16
ATOM     16  C   UNL     1       4.252   3.474  19.348  0.00  0.00    +0.000 C 
BRANCH  16  22
ATOM     17  C   UNL     1       2.246   3.098  21.760  0.00  0.00    +0.000 C 
ATOM     18  C   UNL     1       1.930   2.956  20.318  0.00  0.00    +0.000 A 
ATOM     19  N   UNL     1       0.757   2.554  19.865  0.00  0.00    +0.000 NA
ATOM     20  C   UNL     1       0.922   2.339  18.526  0.00  0.00    +0.000 A 
ATOM     21  C   UNL     1       2.201   2.671  18.145  0.00  0.00    +0.000 A 
ATOM     22  N   UNL     1       2.825   3.142  19.276  0.00  0.00    +0.000 N 
ENDBRANCH  16  22
ENDBRANCH   1  16
TORSDOF 4
ENDMDL
MODEL 2
REMARK VINA RESULT:      -8.0      0.505      1.283
REMARK  Name = 
REMARK  6 active torsions:
REMARK  status: ('A' for Active; 'I' for Inactive)
REMARK    1  A    between atoms: C_1  and  C_2
REMARK    2  A    between atoms: N_6  and  C_7
REMARK    3  A    between atoms: C_7  and  C_8
REMARK    4  A    between atoms: N_12  and  S_13
REMARK    5  A    between atoms: S_13  and  C_16
REMARK    6  A    between atoms: N_19  and  C_20
REMARK                            x       y       z     vdW  Elec       q    Type
REMARK                         _______ _______ _______ _____ _____    ______ ____
ROOT
ATOM      1  C   UNL     1       4.643   5.074  19.599  0.00  0.00    +0.000 C 
ATOM      2  C   UNL     1       3.595   6.137  19.221  0.00  0.00    +0.000 C 
ATOM      3  C   UNL     1       3.575   6.578  17.753  0.00  0.00    +0.000 C 
ATOM      4  C   UNL     1       4.931   6.676  17.052  0.00  0.00    +0.000 C 
ATOM      5  N   UNL     1       5.821   5.570  17.453  0.00  0.00    +0.000 NA
ATOM      6  C   UNL     1       5.986   5.411  18.913  0.00  0.00    +0.000 C 
ENDROOT
BRANCH   5   7
ATOM      7  S   UNL     1       7.189   5.298  16.475  0.00  0.00    +0.000 S 
ATOM      8  O   UNL     1       7.792   6.590  16.217  0.00  0.00    +0.000 OA
ATOM      9  O   UNL     1       7.957   4.226  17.062  0.00  0.00    +0.000 OA
BRANCH   7  10
ATOM     10  C   UNL     1       6.842   4.715  14.896  0.00  0.00    +0.000 A 
ATOM     11  C   UNL     1       7.604   5.089  13.770  0.00  0.00    +0.000 A 
ATOM     12  N   UNL     1       7.170   4.517  12.643  0.00  0.00    +0.000 NA
ATOM     13  N   UNL     1       6.139   3.758  13.046  0.00  0.00    +0.000 N 
ATOM     14  C   UNL     1       5.447   2.943  12.071  0.00  0.00    +0.000 C 
ATOM     15  C   UNL     1       5.891   3.848  14.396  0.00  0.00    +0.000 A 
ENDBRANCH   7  10
ENDBRANCH   5   7
BRANCH   1  16
ATOM     16  C   UNL     1       4.230   3.596  19.358  0.00  0.00    +0.000 C 
BRANCH  16  22
ATOM     17  C   UNL     1       1.385   3.521  17.987  0.00  0.00    +0.000 C 
ATOM     18  C   UNL     1       1.707   3.111  19.375  0.00  0.00    +0.000 A 
ATOM     19  N   UNL     1       0.796   2.741  20.256  0.00  0.00    +0.000 NA
ATOM     20  C   UNL     1       1.442   2.658  21.456  0.00  0.00    +0.000 A 
ATOM     21  C   UNL     1       2.781   2.926  21.295  0.00  0.00    +0.000 A 
ATOM     22  N   UNL     1       2.967   3.139  19.950  0.00  0.00    +0.000 N 
ENDBRANCH  16  22
ENDBRANCH   1  16
TORSDOF 4
ENDMDL
MODEL 3
REMARK VINA RESULT:      -7.0      2.790      3.890
REMARK  Name = 
REMARK  6 active torsions:
REMARK  status: ('A' for Active; 'I' for Inactive)
REMARK    1  A    between atoms: C_1  and  C_2
REMARK    2  A    between atoms: N_6  and  C_7
REMARK    3  A    between atoms: C_7  and  C_8
REMARK    4  A    between atoms: N_12  and  S_13
REMARK    5  A    between atoms: S_13  and  C_16
REMARK    6  A    between atoms: N_19  and  C_20
REMARK                            x       y       z     vdW  Elec       q    Type
REMARK                         _______ _______ _______ _____ _____    ______ ____
ROOT
ATOM      1  C   UNL     1       2.257   5.718  18.657  0.00  0.00    +0.000 C 
ATOM      2  C   UNL     1       1.850   4.353  19.241  0.00  0.00    +0.000 C 
ATOM      3  C   UNL     1       2.994   3.454  19.724  0.00  0.00    +0.000 C 
ATOM      4  C   UNL     1       4.282   3.488  18.899  0.00  0.00    +0.000 C 
ATOM      5  N   UNL     1       4.592   4.858  18.449  0.00  0.00    +0.000 NA
ATOM      6  C   UNL     1       3.488   5.538  17.741  0.00  0.00    +0.000 C 
ENDROOT
BRANCH   5   7
ATOM      7  S   UNL     1       6.176   5.136  17.885  0.00  0.00    +0.000 S 
ATOM      8  O   UNL     1       6.425   6.558  17.997  0.00  0.00    +0.000 OA
ATOM      9  O   UNL     1       7.054   4.178  18.514  0.00  0.00    +0.000 OA
BRANCH   7  10
ATOM     10  C   UNL     1       6.407   4.838  16.208  0.00  0.00    +0.000 A 
ATOM     11  C   UNL     1       7.387   5.511  15.451  0.00  0.00    +0.000 A 
ATOM     12  N   UNL     1       7.403   5.126  14.171  0.00  0.00    +0.000 NA
ATOM     13  N   UNL     1       6.444   4.189  14.108  0.00  0.00    +0.000 N 
ATOM     14  C   UNL     1       6.213   3.508  12.853  0.00  0.00    +0.000 C 
ATOM     15  C   UNL     1       5.803   3.983  15.308  0.00  0.00    +0.000 A 
ENDBRANCH   7  10
ENDBRANCH   5   7
BRANCH   1  16
ATOM     16  C   UNL     1       2.469   6.863  19.686  0.00  0.00    +0.000 C 
BRANCH  16  22
ATOM     17  C   UNL     1       0.598   8.642  21.507  0.00  0.00    +0.000 C 
ATOM     18  C   UNL     1       1.070   8.970  20.139  0.00  0.00    +0.000 A 
ATOM     19  N   UNL     1       0.676  10.036  19.467  0.00  0.00    +0.000 NA
ATOM     20  C   UNL     1       1.143   9.874  18.194  0.00  0.00    +0.000 A 
ATOM     21  C   UNL     1       1.883   8.719  18.102  0.00  0.00    +0.000 A 
ATOM     22  N   UNL     1       1.904   8.178  19.366  0.00  0.00    +0.000 N 
ENDBRANCH  16  22
ENDBRANCH   1  16
TORSDOF 4
ENDMDL
MODEL 4
REMARK VINA RESULT:      -7.0      1.634      2.521
REMARK  Name = 
REMARK  6 active torsions:
REMARK  status: ('A' for Active; 'I' for Inactive)
REMARK    1  A    between atoms: C_1  and  C_2
REMARK    2  A    between atoms: N_6  and  C_7
REMARK    3  A    between atoms: C_7  and  C_8
REMARK    4  A    between atoms: N_12  and  S_13
REMARK    5  A    between atoms: S_13  and  C_16
REMARK    6  A    between atoms: N_19  and  C_20
REMARK                            x       y       z     vdW  Elec       q    Type
REMARK                         _______ _______ _______ _____ _____    ______ ____
ROOT
ATOM      1  C   UNL     1       3.726   3.296  17.849  0.00  0.00    +0.000 C 
ATOM      2  C   UNL     1       4.478   3.270  19.193  0.00  0.00    +0.000 C 
ATOM      3  C   UNL     1       5.526   4.367  19.405  0.00  0.00    +0.000 C 
ATOM      4  C   UNL     1       6.338   4.782  18.177  0.00  0.00    +0.000 C 
ATOM      5  N   UNL     1       5.493   4.826  16.968  0.00  0.00    +0.000 NA
ATOM      6  C   UNL     1       4.725   3.591  16.708  0.00  0.00    +0.000 C 
ENDROOT
BRANCH   5   7
ATOM      7  S   UNL     1       6.129   5.653  15.621  0.00  0.00    +0.000 S 
ATOM      8  O   UNL     1       5.188   6.699  15.279  0.00  0.00    +0.000 OA
ATOM      9  O   UNL     1       7.513   5.962  15.894  0.00  0.00    +0.000 OA
BRANCH   7  10
ATOM     10  C   UNL     1       6.211   4.725  14.177  0.00  0.00    +0.000 A 
ATOM     11  C   UNL     1       7.280   4.842  13.266  0.00  0.00    +0.000 A 
ATOM     12  N   UNL     1       7.152   4.025  12.215  0.00  0.00    +0.000 NA
ATOM     13  N   UNL     1       6.007   3.367  12.460  0.00  0.00    +0.000 N 
ATOM     14  C   UNL     1       5.574   2.347  11.531  0.00  0.00    +0.000 C 
ATOM     15  C   UNL     1       5.393   3.758  13.627  0.00  0.00    +0.000 A 
ENDBRANCH   7  10
ENDBRANCH   5   7
BRANCH   1  16
ATOM     16  C   UNL     1       2.486   4.230  17.783  0.00  0.00    +0.000 C 
BRANCH  16  22
ATOM     17  C   UNL     1       1.070   3.993  20.597  0.00  0.00    +0.000 C 
ATOM     18  C   UNL     1       1.735   5.197  20.042  0.00  0.00    +0.000 A 
ATOM     19  N   UNL     1       1.732   6.373  20.641  0.00  0.00    +0.000 NA
ATOM     20  C   UNL     1       2.240   7.260  19.735  0.00  0.00    +0.000 A 
ATOM     21  C   UNL     1       2.613   6.604  18.585  0.00  0.00    +0.000 A 
ATOM     22  N   UNL     1       2.363   5.271  18.809  0.00  0.00    +0.000 N 
ENDBRANCH  16  22
ENDBRANCH   1  16
TORSDOF 4
ENDMDL
MODEL 5
REMARK VINA RESULT:      -6.9      2.824      4.037
REMARK  Name = 
REMARK  6 active torsions:
REMARK  status: ('A' for Active; 'I' for Inactive)
REMARK    1  A    between atoms: C_1  and  C_2
REMARK    2  A    between atoms: N_6  and  C_7
REMARK    3  A    between atoms: C_7  and  C_8
REMARK    4  A    between atoms: N_12  and  S_13
REMARK    5  A    between atoms: S_13  and  C_16
REMARK    6  A    between atoms: N_19  and  C_20
REMARK                            x       y       z     vdW  Elec       q    Type
REMARK                         _______ _______ _______ _____ _____    ______ ____
ROOT
ATOM      1  C   UNL     1       2.308   5.864  18.796  0.00  0.00    +0.000 C 
ATOM      2  C   UNL     1       1.867   4.480  19.305  0.00  0.00    +0.000 C 
ATOM      3  C   UNL     1       2.988   3.514  19.702  0.00  0.00    +0.000 C 
ATOM      4  C   UNL     1       4.257   3.555  18.849  0.00  0.00    +0.000 C 
ATOM      5  N   UNL     1       4.606   4.939  18.477  0.00  0.00    +0.000 NA
ATOM      6  C   UNL     1       3.510   5.700  17.840  0.00  0.00    +0.000 C 
ENDROOT
BRANCH   5   7
ATOM      7  S   UNL     1       6.185   5.198  17.890  0.00  0.00    +0.000 S 
ATOM      8  O   UNL     1       6.444   6.621  17.979  0.00  0.00    +0.000 OA
ATOM      9  O   UNL     1       7.063   4.244  18.524  0.00  0.00    +0.000 OA
BRANCH   7  10
ATOM     10  C   UNL     1       6.395   4.874  16.216  0.00  0.00    +0.000 A 
ATOM     11  C   UNL     1       7.389   5.509  15.444  0.00  0.00    +0.000 A 
ATOM     12  N   UNL     1       7.384   5.108  14.169  0.00  0.00    +0.000 NA
ATOM     13  N   UNL     1       6.397   4.198  14.124  0.00  0.00    +0.000 N 
ATOM     14  C   UNL     1       6.138   3.509  12.879  0.00  0.00    +0.000 C 
ATOM     15  C   UNL     1       5.760   4.026  15.331  0.00  0.00    +0.000 A 
ENDBRANCH   7  10
ENDBRANCH   5   7
BRANCH   1  16
ATOM     16  C   UNL     1       2.584   6.934  19.889  0.00  0.00    +0.000 C 
BRANCH  16  22
ATOM     17  C   UNL     1       2.032   9.282  17.848  0.00  0.00    +0.000 C 
ATOM     18  C   UNL     1       1.367   9.075  19.158  0.00  0.00    +0.000 A 
ATOM     19  N   UNL     1       0.504   9.927  19.681  0.00  0.00    +0.000 NA
ATOM     20  C   UNL     1       0.289   9.509  20.963  0.00  0.00    +0.000 A 
ATOM     21  C   UNL     1       0.988   8.350  21.209  0.00  0.00    +0.000 A 
ATOM     22  N   UNL     1       1.616   8.027  20.030  0.00  0.00    +0.000 N 
ENDBRANCH  16  22
ENDBRANCH   1  16
TORSDOF 4
ENDMDL
MODEL 6
REMARK VINA RESULT:      -6.9      2.323      4.067
REMARK  Name = 
REMARK  6 active torsions:
REMARK  status: ('A' for Active; 'I' for Inactive)
REMARK    1  A    between atoms: C_1  and  C_2
REMARK    2  A    between atoms: N_6  and  C_7
REMARK    3  A    between atoms: C_7  and  C_8
REMARK    4  A    between atoms: N_12  and  S_13
REMARK    5  A    between atoms: S_13  and  C_16
REMARK    6  A    between atoms: N_19  and  C_20
REMARK                            x       y       z     vdW  Elec       q    Type
REMARK                         _______ _______ _______ _____ _____    ______ ____
ROOT
ATOM      1  C   UNL     1       3.308   5.512  18.211  0.00  0.00    +0.000 C 
ATOM      2  C   UNL     1       2.597   4.357  17.481  0.00  0.00    +0.000 C 
ATOM      3  C   UNL     1       3.503   3.314  16.817  0.00  0.00    +0.000 C 
ATOM      4  C   UNL     1       4.789   3.838  16.176  0.00  0.00    +0.000 C 
ATOM      5  N   UNL     1       5.404   4.896  17.000  0.00  0.00    +0.000 NA
ATOM      6  C   UNL     1       4.495   6.006  17.354  0.00  0.00    +0.000 C 
ENDROOT
BRANCH   5   7
ATOM      7  S   UNL     1       7.025   5.290  16.652  0.00  0.00    +0.000 S 
ATOM      8  O   UNL     1       7.847   4.226  17.191  0.00  0.00    +0.000 OA
ATOM      9  O   UNL     1       7.111   5.659  15.259  0.00  0.00    +0.000 OA
BRANCH   7  10
ATOM     10  C   UNL     1       7.619   6.683  17.465  0.00  0.00    +0.000 A 
ATOM     11  C   UNL     1       8.198   6.616  18.749  0.00  0.00    +0.000 A 
ATOM     12  N   UNL     1       8.600   7.811  19.194  0.00  0.00    +0.000 NA
ATOM     13  N   UNL     1       8.298   8.645  18.187  0.00  0.00    +0.000 N 
ATOM     14  C   UNL     1       8.646  10.044  18.309  0.00  0.00    +0.000 C 
ATOM     15  C   UNL     1       7.694   8.017  17.121  0.00  0.00    +0.000 A 
ENDBRANCH   7  10
ENDBRANCH   5   7
BRANCH   1  16
ATOM     16  C   UNL     1       3.736   5.227  19.677  0.00  0.00    +0.000 C 
BRANCH  16  22
ATOM     17  C   UNL     1       4.471   2.189  20.135  0.00  0.00    +0.000 C 
ATOM     18  C   UNL     1       3.260   2.889  20.629  0.00  0.00    +0.000 A 
ATOM     19  N   UNL     1       2.273   2.281  21.261  0.00  0.00    +0.000 NA
ATOM     20  C   UNL     1       1.263   3.196  21.353  0.00  0.00    +0.000 A 
ATOM     21  C   UNL     1       1.662   4.399  20.821  0.00  0.00    +0.000 A 
ATOM     22  N   UNL     1       2.968   4.228  20.428  0.00  0.00    +0.000 N 
ENDBRANCH  16  22
ENDBRANCH   1  16
TORSDOF 4
ENDMDL
MODEL 7
REMARK VINA RESULT:      -6.8      1.822      2.571
REMARK  Name = 
REMARK  6 active torsions:
REMARK  status: ('A' for Active; 'I' for Inactive)
REMARK    1  A    between atoms: C_1  and  C_2
REMARK    2  A    between atoms: N_6  and  C_7
REMARK    3  A    between atoms: C_7  and  C_8
REMARK    4  A    between atoms: N_12  and  S_13
REMARK    5  A    between atoms: S_13  and  C_16
REMARK    6  A    between atoms: N_19  and  C_20
REMARK                            x       y       z     vdW  Elec       q    Type
REMARK                         _______ _______ _______ _____ _____    ______ ____
ROOT
ATOM      1  C   UNL     1       2.577   6.514  20.056  0.00  0.00    +0.000 C 
ATOM      2  C   UNL     1       2.336   7.719  19.129  0.00  0.00    +0.000 C 
ATOM      3  C   UNL     1       2.655   7.508  17.645  0.00  0.00    +0.000 C 
ATOM      4  C   UNL     1       3.868   6.634  17.326  0.00  0.00    +0.000 C 
ATOM      5  N   UNL     1       3.954   5.483  18.245  0.00  0.00    +0.000 NA
ATOM      6  C   UNL     1       3.914   5.836  19.679  0.00  0.00    +0.000 C 
ENDROOT
BRANCH   5   7
ATOM      7  S   UNL     1       4.985   4.209  17.779  0.00  0.00    +0.000 S 
ATOM      8  O   UNL     1       6.017   4.105  18.790  0.00  0.00    +0.000 OA
ATOM      9  O   UNL     1       4.167   3.069  17.436  0.00  0.00    +0.000 OA
BRANCH   7  10
ATOM     10  C   UNL     1       5.883   4.495  16.342  0.00  0.00    +0.000 A 
ATOM     11  C   UNL     1       7.091   5.221  16.341  0.00  0.00    +0.000 A 
ATOM     12  N   UNL     1       7.629   5.321  15.122  0.00  0.00    +0.000 NA
ATOM     13  N   UNL     1       6.776   4.642  14.339  0.00  0.00    +0.000 N 
ATOM     14  C   UNL     1       7.077   4.502  12.931  0.00  0.00    +0.000 C 
ATOM     15  C   UNL     1       5.698   4.131  15.024  0.00  0.00    +0.000 A 
ENDBRANCH   7  10
ENDBRANCH   5   7
BRANCH   1  16
ATOM     16  C   UNL     1       1.417   5.485  20.149  0.00  0.00    +0.000 C 
BRANCH  16  22
ATOM     17  C   UNL     1       0.879   2.905  18.406  0.00  0.00    +0.000 C 
ATOM     18  C   UNL     1       1.525   2.950  19.741  0.00  0.00    +0.000 A 
ATOM     19  N   UNL     1       1.878   1.873  20.417  0.00  0.00    +0.000 NA
ATOM     20  C   UNL     1       2.224   2.306  21.665  0.00  0.00    +0.000 A 
ATOM     21  C   UNL     1       2.135   3.677  21.734  0.00  0.00    +0.000 A 
ATOM     22  N   UNL     1       1.764   4.098  20.479  0.00  0.00    +0.000 N 
ENDBRANCH  16  22
ENDBRANCH   1  16
TORSDOF 4
ENDMDL
MODEL 8
REMARK VINA RESULT:      -6.8      1.539      1.812
REMARK  Name = 
REMARK  6 active torsions:
REMARK  status: ('A' for Active; 'I' for Inactive)
REMARK    1  A    between atoms: C_1  and  C_2
REMARK    2  A    between atoms: N_6  and  C_7
REMARK    3  A    between atoms: C_7  and  C_8
REMARK    4  A    between atoms: N_12  and  S_13
REMARK    5  A    between atoms: S_13  and  C_16
REMARK    6  A    between atoms: N_19  and  C_20
REMARK                            x       y       z     vdW  Elec       q    Type
REMARK                         _______ _______ _______ _____ _____    ______ ____
ROOT
ATOM      1  C   UNL     1       2.290   5.889  19.241  0.00  0.00    +0.000 C 
ATOM      2  C   UNL     1       2.024   7.347  18.825  0.00  0.00    +0.000 C 
ATOM      3  C   UNL     1       2.947   7.925  17.746  0.00  0.00    +0.000 C 
ATOM      4  C   UNL     1       4.411   7.485  17.795  0.00  0.00    +0.000 C 
ATOM      5  N   UNL     1       4.528   6.057  18.146  0.00  0.00    +0.000 NA
ATOM      6  C   UNL     1       3.813   5.664  19.377  0.00  0.00    +0.000 C 
ENDROOT
BRANCH   5   7
ATOM      7  S   UNL     1       6.034   5.318  17.843  0.00  0.00    +0.000 S 
ATOM      8  O   UNL     1       7.057   6.300  18.138  0.00  0.00    +0.000 OA
ATOM      9  O   UNL     1       6.040   4.026  18.488  0.00  0.00    +0.000 OA
BRANCH   7  10
ATOM     10  C   UNL     1       6.333   4.936  16.195  0.00  0.00    +0.000 A 
ATOM     11  C   UNL     1       7.435   5.459  15.488  0.00  0.00    +0.000 A 
ATOM     12  N   UNL     1       7.485   5.030  14.223  0.00  0.00    +0.000 NA
ATOM     13  N   UNL     1       6.423   4.215  14.120  0.00  0.00    +0.000 N 
ATOM     14  C   UNL     1       6.190   3.524  12.871  0.00  0.00    +0.000 C 
ATOM     15  C   UNL     1       5.686   4.130  15.279  0.00  0.00    +0.000 A 
ENDBRANCH   7  10
ENDBRANCH   5   7
BRANCH   1  16
ATOM     16  C   UNL     1       1.625   4.798  18.356  0.00  0.00    +0.000 C 
BRANCH  16  22
ATOM     17  C   UNL     1       1.342   2.919  20.881  0.00  0.00    +0.000 C 
ATOM     18  C   UNL     1       2.010   2.582  19.600  0.00  0.00    +0.000 A 
ATOM     19  N   UNL     1       2.664   1.455  19.392  0.00  0.00    +0.000 NA
ATOM     20  C   UNL     1       3.313   1.608  18.201  0.00  0.00    +0.000 A 
ATOM     21  C   UNL     1       3.004   2.826  17.644  0.00  0.00    +0.000 A 
ATOM     22  N   UNL     1       2.108   3.420  18.500  0.00  0.00    +0.000 N 
ENDBRANCH  16  22
ENDBRANCH   1  16
TORSDOF 4
ENDMDL
MODEL 9
REMARK VINA RESULT:      -6.7      1.075      1.381
REMARK  Name = 
REMARK  6 active torsions:
REMARK  status: ('A' for Active; 'I' for Inactive)
REMARK    1  A    between atoms: C_1  and  C_2
REMARK    2  A    between atoms: N_6  and  C_7
REMARK    3  A    between atoms: C_7  and  C_8
REMARK    4  A    between atoms: N_12  and  S_13
REMARK    5  A    between atoms: S_13  and  C_16
REMARK    6  A    between atoms: N_19  and  C_20
REMARK                            x       y       z     vdW  Elec       q    Type
REMARK                         _______ _______ _______ _____ _____    ______ ____
ROOT
ATOM      1  C   UNL     1       4.035   5.708  19.280  0.00  0.00    +0.000 C 
ATOM      2  C   UNL     1       3.218   6.904  18.757  0.00  0.00    +0.000 C 
ATOM      3  C   UNL     1       3.417   7.268  17.281  0.00  0.00    +0.000 C 
ATOM      4  C   UNL     1       4.834   7.114  16.727  0.00  0.00    +0.000 C 
ATOM      5  N   UNL     1       5.487   5.902  17.257  0.00  0.00    +0.000 NA
ATOM      6  C   UNL     1       5.477   5.792  18.731  0.00  0.00    +0.000 C 
ENDROOT
BRANCH   5   7
ATOM      7  S   UNL     1       6.883   5.367  16.440  0.00  0.00    +0.000 S 
ATOM      8  O   UNL     1       7.706   6.533  16.192  0.00  0.00    +0.000 OA
ATOM      9  O   UNL     1       7.411   4.225  17.149  0.00  0.00    +0.000 OA
BRANCH   7  10
ATOM     10  C   UNL     1       6.604   4.753  14.859  0.00  0.00    +0.000 A 
ATOM     11  C   UNL     1       7.492   4.991  13.791  0.00  0.00    +0.000 A 
ATOM     12  N   UNL     1       7.090   4.418  12.651  0.00  0.00    +0.000 NA
ATOM     13  N   UNL     1       5.951   3.794  12.992  0.00  0.00    +0.000 N 
ATOM     14  C   UNL     1       5.255   3.015  11.992  0.00  0.00    +0.000 C 
ATOM     15  C   UNL     1       5.606   3.972  14.312  0.00  0.00    +0.000 A 
ENDBRANCH   7  10
ENDBRANCH   5   7
BRANCH   1  16
ATOM     16  C   UNL     1       3.411   4.304  19.045  0.00  0.00    +0.000 C 
BRANCH  16  22
ATOM     17  C   UNL     1       4.596   1.891  20.705  0.00  0.00    +0.000 C 
ATOM     18  C   UNL     1       3.292   2.562  20.930  0.00  0.00    +0.000 A 
ATOM     19  N   UNL     1       2.407   2.156  21.821  0.00  0.00    +0.000 NA
ATOM     20  C   UNL     1       1.271   2.874  21.579  0.00  0.00    +0.000 A 
ATOM     21  C   UNL     1       1.484   3.773  20.562  0.00  0.00    +0.000 A 
ATOM     22  N   UNL     1       2.801   3.630  20.197  0.00  0.00    +0.000 N 
ENDBRANCH  16  22
ENDBRANCH   1  16
TORSDOF 4
ENDMDL
