MODEL 1
REMARK VINA RESULT:      -7.2      0.000      0.000
REMARK  Name = 
REMARK  9 active torsions:
REMARK  status: ('A' for Active; 'I' for Inactive)
REMARK    1  A    between atoms: C_1  and  O_2
REMARK    2  A    between atoms: O_2  and  C_3
REMARK    3  A    between atoms: C_3  and  C_4
REMARK    4  A    between atoms: C_4  and  C_5
REMARK    5  A    between atoms: C_5  and  N_6
REMARK    6  A    between atoms: C_7  and  C_9
REMARK    7  A    between atoms: C_11  and  C_12
REMARK    8  A    between atoms: C_12  and  C_13
REMARK    9  A    between atoms: C_12  and  C_14
REMARK                            x       y       z     vdW  Elec       q    Type
REMARK                         _______ _______ _______ _____ _____    ______ ____
ROOT
ATOM      1  C   UNL     1       6.157   4.750  15.630  0.00  0.00    +0.000 A 
ATOM      2  C   UNL     1       6.934   5.595  16.395  0.00  0.00    +0.000 A 
ATOM      3  C   UNL     1       6.499   5.825  17.677  0.00  0.00    +0.000 A 
ATOM      4  N   UNL     1       5.339   5.289  18.118  0.00  0.00    +0.000 NA
ATOM      5  C   UNL     1       4.625   4.479  17.304  0.00  0.00    +0.000 A 
ATOM      6  N   UNL     1       3.441   3.977  17.759  0.00  0.00    +0.000 N 
ATOM      7  C   UNL     1       2.869   4.318  19.045  0.00  0.00    +0.000 C 
ATOM      8  C   UNL     1       2.247   3.000  19.486  0.00  0.00    +0.000 C 
ATOM      9  C   UNL     1       1.741   2.398  18.180  0.00  0.00    +0.000 C 
ATOM     10  C   UNL     1       2.728   2.893  17.111  0.00  0.00    +0.000 C 
ATOM     11  N   UNL     1       5.018   4.158  16.061  0.00  0.00    +0.000 NA
ENDROOT
BRANCH   1  13
ATOM     12  N   UNL     1       6.126   3.326  13.621  0.00  0.00    +0.000 N 
ATOM     13  C   UNL     1       6.586   4.481  14.220  0.00  0.00    +0.000 C 
ATOM     14  O   UNL     1       7.314   5.289  13.636  0.00  0.00    +0.000 OA
ATOM     15  H   UNL     1       5.447   2.768  14.138  0.00  0.00    +0.000 HD
BRANCH  12  16
ATOM     16  C   UNL     1       6.487   2.985  12.257  0.00  0.00    +0.000 C 
BRANCH  16  17
ATOM     17  C   UNL     1       5.306   2.468  11.444  0.00  0.00    +0.000 C 
BRANCH  17  18
ATOM     18  C   UNL     1       4.136   3.452  11.476  0.00  0.00    +0.000 C 
BRANCH  18  20
ATOM     19  C   UNL     1       2.899   4.168   9.601  0.00  0.00    +0.000 C 
ATOM     20  O   UNL     1       3.178   3.090  10.483  0.00  0.00    +0.000 OA
ENDBRANCH  18  20
ENDBRANCH  17  18
ENDBRANCH  16  17
ENDBRANCH  12  16
ENDBRANCH   1  13
BRANCH   3  21
ATOM     21  C   UNL     1       7.311   6.702  18.622  0.00  0.00    +0.000 C 
ATOM     22  C   UNL     1       8.300   5.875  19.444  0.00  0.00    +0.000 C 
ATOM     23  C   UNL     1       8.074   7.814  17.890  0.00  0.00    +0.000 C 
ENDBRANCH   3  21
TORSDOF 6
ENDMDL
MODEL 2
REMARK VINA RESULT:      -7.1      5.025      8.782
REMARK  Name = 
REMARK  9 active torsions:
REMARK  status: ('A' for Active; 'I' for Inactive)
REMARK    1  A    between atoms: C_1  and  O_2
REMARK    2  A    between atoms: O_2  and  C_3
REMARK    3  A    between atoms: C_3  and  C_4
REMARK    4  A    between atoms: C_4  and  C_5
REMARK    5  A    between atoms: C_5  and  N_6
REMARK    6  A    between atoms: C_7  and  C_9
REMARK    7  A    between atoms: C_11  and  C_12
REMARK    8  A    between atoms: C_12  and  C_13
REMARK    9  A    between atoms: C_12  and  C_14
REMARK                            x       y       z     vdW  Elec       q    Type
REMARK                         _______ _______ _______ _____ _____    ______ ____
ROOT
ATOM      1  C   UNL     1       2.477   6.392  19.443  0.00  0.00    +0.000 A 
ATOM      2  C   UNL     1       1.888   5.231  19.900  0.00  0.00    +0.000 A 
ATOM      3  C   UNL     1       2.376   4.057  19.382  0.00  0.00    +0.000 A 
ATOM      4  N   UNL     1       3.338   4.070  18.433  0.00  0.00    +0.000 NA
ATOM      5  C   UNL     1       3.860   5.250  18.026  0.00  0.00    +0.000 A 
ATOM      6  N   UNL     1       4.806   5.240  17.043  0.00  0.00    +0.000 N 
ATOM      7  C   UNL     1       5.237   4.039  16.360  0.00  0.00    +0.000 C 
ATOM      8  C   UNL     1       6.727   4.290  16.165  0.00  0.00    +0.000 C 
ATOM      9  C   UNL     1       6.796   5.791  15.904  0.00  0.00    +0.000 C 
ATOM     10  C   UNL     1       5.635   6.384  16.717  0.00  0.00    +0.000 C 
ATOM     11  N   UNL     1       3.478   6.433  18.532  0.00  0.00    +0.000 NA
ENDROOT
BRANCH   1  13
ATOM     12  N   UNL     1       1.747   7.795  21.329  0.00  0.00    +0.000 N 
ATOM     13  C   UNL     1       1.968   7.698  19.971  0.00  0.00    +0.000 C 
ATOM     14  O   UNL     1       1.775   8.639  19.195  0.00  0.00    +0.000 OA
ATOM     15  H   UNL     1       2.030   7.006  21.908  0.00  0.00    +0.000 HD
BRANCH  12  16
ATOM     16  C   UNL     1       1.256   9.023  21.930  0.00  0.00    +0.000 C 
BRANCH  16  17
ATOM     17  C   UNL     1      -0.247   8.997  22.183  0.00  0.00    +0.000 C 
BRANCH  17  18
ATOM     18  C   UNL     1      -0.678  10.152  23.088  0.00  0.00    +0.000 C 
BRANCH  18  20
ATOM     19  C   UNL     1      -1.385  12.400  23.012  0.00  0.00    +0.000 C 
ATOM     20  O   UNL     1      -0.662  11.372  22.349  0.00  0.00    +0.000 OA
ENDBRANCH  18  20
ENDBRANCH  17  18
ENDBRANCH  16  17
ENDBRANCH  12  16
ENDBRANCH   1  13
BRANCH   3  21
ATOM     21  C   UNL     1       1.830   2.717  19.857  0.00  0.00    +0.000 C 
ATOM     22  C   UNL     1       1.314   2.799  21.294  0.00  0.00    +0.000 C 
ATOM     23  C   UNL     1       0.711   2.179  18.954  0.00  0.00    +0.000 C 
ENDBRANCH   3  21
TORSDOF 6
ENDMDL
MODEL 3
REMARK VINA RESULT:      -7.0      5.386      9.016
REMARK  Name = 
REMARK  9 active torsions:
REMARK  status: ('A' for Active; 'I' for Inactive)
REMARK    1  A    between atoms: C_1  and  O_2
REMARK    2  A    between atoms: O_2  and  C_3
REMARK    3  A    between atoms: C_3  and  C_4
REMARK    4  A    between atoms: C_4  and  C_5
REMARK    5  A    between atoms: C_5  and  N_6
REMARK    6  A    between atoms: C_7  and  C_9
REMARK    7  A    between atoms: C_11  and  C_12
REMARK    8  A    between atoms: C_12  and  C_13
REMARK    9  A    between atoms: C_12  and  C_14
REMARK                            x       y       z     vdW  Elec       q    Type
REMARK                         _______ _______ _______ _____ _____    ______ ____
ROOT
ATOM      1  C   UNL     1       2.126   6.642  19.771  0.00  0.00    +0.000 A 
ATOM      2  C   UNL     1       1.506   5.525  20.291  0.00  0.00    +0.000 A 
ATOM      3  C   UNL     1       1.867   4.320  19.744  0.00  0.00    +0.000 A 
ATOM      4  N   UNL     1       2.738   4.265  18.712  0.00  0.00    +0.000 NA
ATOM      5  C   UNL     1       3.298   5.405  18.248  0.00  0.00    +0.000 A 
ATOM      6  N   UNL     1       4.148   5.328  17.184  0.00  0.00    +0.000 N 
ATOM      7  C   UNL     1       4.437   4.098  16.478  0.00  0.00    +0.000 C 
ATOM      8  C   UNL     1       5.916   4.249  16.147  0.00  0.00    +0.000 C 
ATOM      9  C   UNL     1       6.059   5.740  15.866  0.00  0.00    +0.000 C 
ATOM     10  C   UNL     1       5.018   6.413  16.773  0.00  0.00    +0.000 C 
ATOM     11  N   UNL     1       3.041   6.613  18.774  0.00  0.00    +0.000 NA
ENDROOT
BRANCH   1  13
ATOM     12  N   UNL     1       1.705   8.111  21.702  0.00  0.00    +0.000 N 
ATOM     13  C   UNL     1       1.753   7.982  20.329  0.00  0.00    +0.000 C 
ATOM     14  O   UNL     1       1.516   8.921  19.563  0.00  0.00    +0.000 OA
ATOM     15  H   UNL     1       2.015   7.316  22.259  0.00  0.00    +0.000 HD
BRANCH  12  16
ATOM     16  C   UNL     1       1.356   9.372  22.331  0.00  0.00    +0.000 C 
BRANCH  16  17
ATOM     17  C   UNL     1      -0.094   9.417  22.799  0.00  0.00    +0.000 C 
BRANCH  17  18
ATOM     18  C   UNL     1      -0.797  10.685  22.310  0.00  0.00    +0.000 C 
BRANCH  18  20
ATOM     19  C   UNL     1      -2.420  12.178  23.141  0.00  0.00    +0.000 C 
ATOM     20  O   UNL     1      -1.234  11.452  23.430  0.00  0.00    +0.000 OA
ENDBRANCH  18  20
ENDBRANCH  17  18
ENDBRANCH  16  17
ENDBRANCH  12  16
ENDBRANCH   1  13
BRANCH   3  21
ATOM     21  C   UNL     1       1.279   3.020  20.280  0.00  0.00    +0.000 C 
ATOM     22  C   UNL     1       1.554   1.849  19.337  0.00  0.00    +0.000 C 
ATOM     23  C   UNL     1       1.799   2.668  21.680  0.00  0.00    +0.000 C 
ENDBRANCH   3  21
TORSDOF 6
ENDMDL
MODEL 4
REMARK VINA RESULT:      -6.9      5.074      7.780
REMARK  Name = 
REMARK  9 active torsions:
REMARK  status: ('A' for Active; 'I' for Inactive)
REMARK    1  A    between atoms: C_1  and  O_2
REMARK    2  A    between atoms: O_2  and  C_3
REMARK    3  A    between atoms: C_3  and  C_4
REMARK    4  A    between atoms: C_4  and  C_5
REMARK    5  A    between atoms: C_5  and  N_6
REMARK    6  A    between atoms: C_7  and  C_9
REMARK    7  A    between atoms: C_11  and  C_12
REMARK    8  A    between atoms: C_12  and  C_13
REMARK    9  A    between atoms: C_12  and  C_14
REMARK                            x       y       z     vdW  Elec       q    Type
REMARK                         _______ _______ _______ _____ _____    ______ ____
ROOT
ATOM      1  C   UNL     1       2.701   7.567  18.249  0.00  0.00    +0.000 A 
ATOM      2  C   UNL     1       3.735   7.436  17.345  0.00  0.00    +0.000 A 
ATOM      3  C   UNL     1       4.348   6.209  17.297  0.00  0.00    +0.000 A 
ATOM      4  N   UNL     1       3.979   5.221  18.141  0.00  0.00    +0.000 NA
ATOM      5  C   UNL     1       2.963   5.428  19.009  0.00  0.00    +0.000 A 
ATOM      6  N   UNL     1       2.631   4.427  19.875  0.00  0.00    +0.000 N 
ATOM      7  C   UNL     1       3.352   3.175  19.964  0.00  0.00    +0.000 C 
ATOM      8  C   UNL     1       2.235   2.172  20.224  0.00  0.00    +0.000 C 
ATOM      9  C   UNL     1       1.266   2.951  21.107  0.00  0.00    +0.000 C 
ATOM     10  C   UNL     1       1.405   4.411  20.650  0.00  0.00    +0.000 C 
ATOM     11  N   UNL     1       2.276   6.579  19.071  0.00  0.00    +0.000 NA
ENDROOT
BRANCH   1  13
ATOM     12  N   UNL     1       1.353   9.187  19.522  0.00  0.00    +0.000 N 
ATOM     13  C   UNL     1       2.011   8.894  18.346  0.00  0.00    +0.000 C 
ATOM     14  O   UNL     1       2.060   9.680  17.395  0.00  0.00    +0.000 OA
ATOM     15  H   UNL     1       1.450   8.526  20.292  0.00  0.00    +0.000 HD
BRANCH  12  16
ATOM     16  C   UNL     1       0.659  10.450  19.706  0.00  0.00    +0.000 C 
BRANCH  16  17
ATOM     17  C   UNL     1      -0.564  10.326  20.607  0.00  0.00    +0.000 C 
BRANCH  17  18
ATOM     18  C   UNL     1      -0.641  11.484  21.603  0.00  0.00    +0.000 C 
BRANCH  18  20
ATOM     19  C   UNL     1      -0.450   9.729  23.166  0.00  0.00    +0.000 C 
ATOM     20  O   UNL     1      -0.104  11.072  22.859  0.00  0.00    +0.000 OA
ENDBRANCH  18  20
ENDBRANCH  17  18
ENDBRANCH  16  17
ENDBRANCH  12  16
ENDBRANCH   1  13
BRANCH   3  21
ATOM     21  C   UNL     1       5.467   5.944  16.298  0.00  0.00    +0.000 C 
ATOM     22  C   UNL     1       6.844   6.151  16.930  0.00  0.00    +0.000 C 
ATOM     23  C   UNL     1       5.400   4.534  15.694  0.00  0.00    +0.000 C 
ENDBRANCH   3  21
TORSDOF 6
ENDMDL
MODEL 5
REMARK VINA RESULT:      -6.9      4.808      8.216
REMARK  Name = 
REMARK  9 active torsions:
REMARK  status: ('A' for Active; 'I' for Inactive)
REMARK    1  A    between atoms: C_1  and  O_2
REMARK    2  A    between atoms: O_2  and  C_3
REMARK    3  A    between atoms: C_3  and  C_4
REMARK    4  A    between atoms: C_4  and  C_5
REMARK    5  A    between atoms: C_5  and  N_6
REMARK    6  A    between atoms: C_7  and  C_9
REMARK    7  A    between atoms: C_11  and  C_12
REMARK    8  A    between atoms: C_12  and  C_13
REMARK    9  A    between atoms: C_12  and  C_14
REMARK                            x       y       z     vdW  Elec       q    Type
REMARK                         _______ _______ _______ _____ _____    ______ ____
ROOT
ATOM      1  C   UNL     1       2.614   7.230  18.488  0.00  0.00    +0.000 A 
ATOM      2  C   UNL     1       2.226   6.391  19.513  0.00  0.00    +0.000 A 
ATOM      3  C   UNL     1       2.771   5.132  19.507  0.00  0.00    +0.000 A 
ATOM      4  N   UNL     1       3.593   4.742  18.507  0.00  0.00    +0.000 NA
ATOM      5  C   UNL     1       3.919   5.617  17.529  0.00  0.00    +0.000 A 
ATOM      6  N   UNL     1       4.722   5.190  16.513  0.00  0.00    +0.000 N 
ATOM      7  C   UNL     1       5.194   3.827  16.385  0.00  0.00    +0.000 C 
ATOM      8  C   UNL     1       6.607   4.018  15.848  0.00  0.00    +0.000 C 
ATOM      9  C   UNL     1       6.470   5.228  14.930  0.00  0.00    +0.000 C 
ATOM     10  C   UNL     1       5.366   6.084  15.570  0.00  0.00    +0.000 C 
ATOM     11  N   UNL     1       3.475   6.883  17.503  0.00  0.00    +0.000 NA
ENDROOT
BRANCH   1  13
ATOM     12  N   UNL     1       1.396   9.069  19.581  0.00  0.00    +0.000 N 
ATOM     13  C   UNL     1       2.034   8.610  18.447  0.00  0.00    +0.000 C 
ATOM     14  O   UNL     1       2.150   9.294  17.425  0.00  0.00    +0.000 OA
ATOM     15  H   UNL     1       1.435   8.481  20.412  0.00  0.00    +0.000 HD
BRANCH  12  16
ATOM     16  C   UNL     1       0.806  10.395  19.633  0.00  0.00    +0.000 C 
BRANCH  16  17
ATOM     17  C   UNL     1      -0.589  10.398  20.248  0.00  0.00    +0.000 C 
BRANCH  17  18
ATOM     18  C   UNL     1      -0.594  11.090  21.612  0.00  0.00    +0.000 C 
BRANCH  18  20
ATOM     19  C   UNL     1       0.011   9.479  23.223  0.00  0.00    +0.000 C 
ATOM     20  O   UNL     1       0.457  10.563  22.421  0.00  0.00    +0.000 OA
ENDBRANCH  18  20
ENDBRANCH  17  18
ENDBRANCH  16  17
ENDBRANCH  12  16
ENDBRANCH   1  13
BRANCH   3  21
ATOM     21  C   UNL     1       2.448   4.145  20.621  0.00  0.00    +0.000 C 
ATOM     22  C   UNL     1       0.971   3.749  20.609  0.00  0.00    +0.000 C 
ATOM     23  C   UNL     1       3.307   2.874  20.555  0.00  0.00    +0.000 C 
ENDBRANCH   3  21
TORSDOF 6
ENDMDL
MODEL 6
REMARK VINA RESULT:      -6.9      3.706      6.478
REMARK  Name = 
REMARK  9 active torsions:
REMARK  status: ('A' for Active; 'I' for Inactive)
REMARK    1  A    between atoms: C_1  and  O_2
REMARK    2  A    between atoms: O_2  and  C_3
REMARK    3  A    between atoms: C_3  and  C_4
REMARK    4  A    between atoms: C_4  and  C_5
REMARK    5  A    between atoms: C_5  and  N_6
REMARK    6  A    between atoms: C_7  and  C_9
REMARK    7  A    between atoms: C_11  and  C_12
REMARK    8  A    between atoms: C_12  and  C_13
REMARK    9  A    between atoms: C_12  and  C_14
REMARK                            x       y       z     vdW  Elec       q    Type
REMARK                         _______ _______ _______ _____ _____    ______ ____
ROOT
ATOM      1  C   UNL     1       3.044   6.126  18.548  0.00  0.00    +0.000 A 
ATOM      2  C   UNL     1       2.679   4.903  19.071  0.00  0.00    +0.000 A 
ATOM      3  C   UNL     1       1.794   4.931  20.120  0.00  0.00    +0.000 A 
ATOM      4  N   UNL     1       1.367   6.107  20.630  0.00  0.00    +0.000 NA
ATOM      5  C   UNL     1       1.779   7.268  20.070  0.00  0.00    +0.000 A 
ATOM      6  N   UNL     1       1.362   8.443  20.624  0.00  0.00    +0.000 N 
ATOM      7  C   UNL     1       0.554   8.520  21.823  0.00  0.00    +0.000 C 
ATOM      8  C   UNL     1      -0.366   9.696  21.522  0.00  0.00    +0.000 C 
ATOM      9  C   UNL     1       0.527  10.645  20.732  0.00  0.00    +0.000 C 
ATOM     10  C   UNL     1       1.496   9.730  19.968  0.00  0.00    +0.000 C 
ATOM     11  N   UNL     1       2.593   7.318  19.005  0.00  0.00    +0.000 NA
ENDROOT
BRANCH   1  13
ATOM     12  N   UNL     1       4.379   4.933  16.857  0.00  0.00    +0.000 N 
ATOM     13  C   UNL     1       4.019   6.144  17.410  0.00  0.00    +0.000 C 
ATOM     14  O   UNL     1       4.457   7.223  16.995  0.00  0.00    +0.000 OA
ATOM     15  H   UNL     1       3.893   4.102  17.191  0.00  0.00    +0.000 HD
BRANCH  12  16
ATOM     16  C   UNL     1       5.316   4.855  15.750  0.00  0.00    +0.000 C 
BRANCH  16  17
ATOM     17  C   UNL     1       6.565   4.049  16.088  0.00  0.00    +0.000 C 
BRANCH  17  18
ATOM     18  C   UNL     1       7.417   4.760  17.140  0.00  0.00    +0.000 C 
BRANCH  18  20
ATOM     19  C   UNL     1       7.056   5.556  19.329  0.00  0.00    +0.000 C 
ATOM     20  O   UNL     1       6.925   4.454  18.443  0.00  0.00    +0.000 OA
ENDBRANCH  18  20
ENDBRANCH  17  18
ENDBRANCH  16  17
ENDBRANCH  12  16
ENDBRANCH   1  13
BRANCH   3  21
ATOM     21  C   UNL     1       1.287   3.634  20.738  0.00  0.00    +0.000 C 
ATOM     22  C   UNL     1       0.839   2.640  19.666  0.00  0.00    +0.000 C 
ATOM     23  C   UNL     1       2.330   2.961  21.640  0.00  0.00    +0.000 C 
ENDBRANCH   3  21
TORSDOF 6
ENDMDL
MODEL 7
REMARK VINA RESULT:      -6.9      2.596      6.199
REMARK  Name = 
REMARK  9 active torsions:
REMARK  status: ('A' for Active; 'I' for Inactive)
REMARK    1  A    between atoms: C_1  and  O_2
REMARK    2  A    between atoms: O_2  and  C_3
REMARK    3  A    between atoms: C_3  and  C_4
REMARK    4  A    between atoms: C_4  and  C_5
REMARK    5  A    between atoms: C_5  and  N_6
REMARK    6  A    between atoms: C_7  and  C_9
REMARK    7  A    between atoms: C_11  and  C_12
REMARK    8  A    between atoms: C_12  and  C_13
REMARK    9  A    between atoms: C_12  and  C_14
REMARK                            x       y       z     vdW  Elec       q    Type
REMARK                         _______ _______ _______ _____ _____    ______ ____
ROOT
ATOM      1  C   UNL     1       4.677   3.871  17.125  0.00  0.00    +0.000 A 
ATOM      2  C   UNL     1       5.264   4.763  17.998  0.00  0.00    +0.000 A 
ATOM      3  C   UNL     1       6.309   5.502  17.500  0.00  0.00    +0.000 A 
ATOM      4  N   UNL     1       6.755   5.301  16.241  0.00  0.00    +0.000 NA
ATOM      5  C   UNL     1       6.135   4.399  15.447  0.00  0.00    +0.000 A 
ATOM      6  N   UNL     1       6.625   4.190  14.191  0.00  0.00    +0.000 N 
ATOM      7  C   UNL     1       7.817   4.833  13.680  0.00  0.00    +0.000 C 
ATOM      8  C   UNL     1       7.453   5.087  12.223  0.00  0.00    +0.000 C 
ATOM      9  C   UNL     1       6.615   3.868  11.855  0.00  0.00    +0.000 C 
ATOM     10  C   UNL     1       5.902   3.474  13.158  0.00  0.00    +0.000 C 
ATOM     11  N   UNL     1       5.069   3.686  15.843  0.00  0.00    +0.000 NA
ENDROOT
BRANCH   1  13
ATOM     12  N   UNL     1       2.362   3.677  17.942  0.00  0.00    +0.000 N 
ATOM     13  C   UNL     1       3.541   3.033  17.630  0.00  0.00    +0.000 C 
ATOM     14  O   UNL     1       3.682   1.811  17.738  0.00  0.00    +0.000 OA
ATOM     15  H   UNL     1       2.298   4.671  17.725  0.00  0.00    +0.000 HD
BRANCH  12  16
ATOM     16  C   UNL     1       1.208   2.946  18.434  0.00  0.00    +0.000 C 
BRANCH  16  17
ATOM     17  C   UNL     1       1.129   2.923  19.956  0.00  0.00    +0.000 C 
BRANCH  17  18
ATOM     18  C   UNL     1       0.982   4.334  20.527  0.00  0.00    +0.000 C 
BRANCH  18  20
ATOM     19  C   UNL     1       2.248   6.278  20.109  0.00  0.00    +0.000 C 
ATOM     20  O   UNL     1       2.264   4.951  20.616  0.00  0.00    +0.000 OA
ENDBRANCH  18  20
ENDBRANCH  17  18
ENDBRANCH  16  17
ENDBRANCH  12  16
ENDBRANCH   1  13
BRANCH   3  21
ATOM     21  C   UNL     1       6.994   6.551  18.366  0.00  0.00    +0.000 C 
ATOM     22  C   UNL     1       8.022   5.920  19.305  0.00  0.00    +0.000 C 
ATOM     23  C   UNL     1       7.679   7.647  17.537  0.00  0.00    +0.000 C 
ENDBRANCH   3  21
TORSDOF 6
ENDMDL
MODEL 8
REMARK VINA RESULT:      -6.9      4.648      8.264
REMARK  Name = 
REMARK  9 active torsions:
REMARK  status: ('A' for Active; 'I' for Inactive)
REMARK    1  A    between atoms: C_1  and  O_2
REMARK    2  A    between atoms: O_2  and  C_3
REMARK    3  A    between atoms: C_3  and  C_4
REMARK    4  A    between atoms: C_4  and  C_5
REMARK    5  A    between atoms: C_5  and  N_6
REMARK    6  A    between atoms: C_7  and  C_9
REMARK    7  A    between atoms: C_11  and  C_12
REMARK    8  A    between atoms: C_12  and  C_13
REMARK    9  A    between atoms: C_12  and  C_14
REMARK                            x       y       z     vdW  Elec       q    Type
REMARK                         _______ _______ _______ _____ _____    ______ ____
ROOT
ATOM      1  C   UNL     1       2.486   6.396  19.461  0.00  0.00    +0.000 A 
ATOM      2  C   UNL     1       1.897   5.243  19.939  0.00  0.00    +0.000 A 
ATOM      3  C   UNL     1       2.351   4.063  19.404  0.00  0.00    +0.000 A 
ATOM      4  N   UNL     1       3.280   4.064  18.423  0.00  0.00    +0.000 NA
ATOM      5  C   UNL     1       3.803   5.236  17.999  0.00  0.00    +0.000 A 
ATOM      6  N   UNL     1       4.715   5.214  16.984  0.00  0.00    +0.000 N 
ATOM      7  C   UNL     1       5.106   4.007  16.287  0.00  0.00    +0.000 C 
ATOM      8  C   UNL     1       6.592   4.238  16.040  0.00  0.00    +0.000 C 
ATOM      9  C   UNL     1       6.672   5.738  15.777  0.00  0.00    +0.000 C 
ATOM     10  C   UNL     1       5.548   6.347  16.629  0.00  0.00    +0.000 C 
ATOM     11  N   UNL     1       3.455   6.424  18.517  0.00  0.00    +0.000 NA
ENDROOT
BRANCH   1  13
ATOM     12  N   UNL     1       1.789   7.793  21.365  0.00  0.00    +0.000 N 
ATOM     13  C   UNL     1       2.012   7.709  20.007  0.00  0.00    +0.000 C 
ATOM     14  O   UNL     1       1.850   8.667  19.244  0.00  0.00    +0.000 OA
ATOM     15  H   UNL     1       2.046   6.988  21.934  0.00  0.00    +0.000 HD
BRANCH  12  16
ATOM     16  C   UNL     1       1.332   9.026  21.982  0.00  0.00    +0.000 C 
BRANCH  16  17
ATOM     17  C   UNL     1      -0.186   9.165  21.971  0.00  0.00    +0.000 C 
BRANCH  17  18
ATOM     18  C   UNL     1      -0.613  10.565  21.529  0.00  0.00    +0.000 C 
BRANCH  18  20
ATOM     19  C   UNL     1      -0.202  11.605  19.454  0.00  0.00    +0.000 C 
ATOM     20  O   UNL     1      -0.890  10.563  20.130  0.00  0.00    +0.000 OA
ENDBRANCH  18  20
ENDBRANCH  17  18
ENDBRANCH  16  17
ENDBRANCH  12  16
ENDBRANCH   1  13
BRANCH   3  21
ATOM     21  C   UNL     1       1.803   2.731  19.898  0.00  0.00    +0.000 C 
ATOM     22  C   UNL     1       1.270   2.838  21.328  0.00  0.00    +0.000 C 
ATOM     23  C   UNL     1       0.697   2.172  18.993  0.00  0.00    +0.000 C 
ENDBRANCH   3  21
TORSDOF 6
ENDMDL
MODEL 9
REMARK VINA RESULT:      -6.8      4.836      6.801
REMARK  Name = 
REMARK  9 active torsions:
REMARK  status: ('A' for Active; 'I' for Inactive)
REMARK    1  A    between atoms: C_1  and  O_2
REMARK    2  A    between atoms: O_2  and  C_3
REMARK    3  A    between atoms: C_3  and  C_4
REMARK    4  A    between atoms: C_4  and  C_5
REMARK    5  A    between atoms: C_5  and  N_6
REMARK    6  A    between atoms: C_7  and  C_9
REMARK    7  A    between atoms: C_11  and  C_12
REMARK    8  A    between atoms: C_12  and  C_13
REMARK    9  A    between atoms: C_12  and  C_14
REMARK                            x       y       z     vdW  Elec       q    Type
REMARK                         _______ _______ _______ _____ _____    ______ ____
ROOT
ATOM      1  C   UNL     1       2.761   7.556  18.235  0.00  0.00    +0.000 A 
ATOM      2  C   UNL     1       3.842   7.427  17.387  0.00  0.00    +0.000 A 
ATOM      3  C   UNL     1       4.464   6.204  17.378  0.00  0.00    +0.000 A 
ATOM      4  N   UNL     1       4.057   5.217  18.208  0.00  0.00    +0.000 NA
ATOM      5  C   UNL     1       2.996   5.422  19.020  0.00  0.00    +0.000 A 
ATOM      6  N   UNL     1       2.625   4.425  19.873  0.00  0.00    +0.000 N 
ATOM      7  C   UNL     1       3.347   3.177  20.007  0.00  0.00    +0.000 C 
ATOM      8  C   UNL     1       2.224   2.169  20.214  0.00  0.00    +0.000 C 
ATOM      9  C   UNL     1       1.206   2.946  21.040  0.00  0.00    +0.000 C 
ATOM     10  C   UNL     1       1.360   4.405  20.583  0.00  0.00    +0.000 C 
ATOM     11  N   UNL     1       2.299   6.570  19.039  0.00  0.00    +0.000 NA
ENDROOT
BRANCH   1  13
ATOM     12  N   UNL     1       1.408   9.210  19.458  0.00  0.00    +0.000 N 
ATOM     13  C   UNL     1       2.059   8.878  18.288  0.00  0.00    +0.000 C 
ATOM     14  O   UNL     1       2.092   9.629  17.308  0.00  0.00    +0.000 OA
ATOM     15  H   UNL     1       1.518   8.580  20.252  0.00  0.00    +0.000 HD
BRANCH  12  16
ATOM     16  C   UNL     1       0.704  10.472  19.601  0.00  0.00    +0.000 C 
BRANCH  16  17
ATOM     17  C   UNL     1      -0.809  10.321  19.488  0.00  0.00    +0.000 C 
BRANCH  17  18
ATOM     18  C   UNL     1      -1.301  10.683  18.086  0.00  0.00    +0.000 C 
BRANCH  18  20
ATOM     19  C   UNL     1      -2.568   9.841  16.285  0.00  0.00    +0.000 C 
ATOM     20  O   UNL     1      -2.312   9.762  17.680  0.00  0.00    +0.000 OA
ENDBRANCH  18  20
ENDBRANCH  17  18
ENDBRANCH  16  17
ENDBRANCH  12  16
ENDBRANCH   1  13
BRANCH   3  21
ATOM     21  C   UNL     1       5.636   5.940  16.441  0.00  0.00    +0.000 C 
ATOM     22  C   UNL     1       6.959   6.400  17.054  0.00  0.00    +0.000 C 
ATOM     23  C   UNL     1       5.756   4.462  16.043  0.00  0.00    +0.000 C 
ENDBRANCH   3  21
TORSDOF 6
ENDMDL
