MODEL 1
REMARK VINA RESULT:      -7.6      0.000      0.000
REMARK  Name = 
REMARK  5 active torsions:
REMARK  status: ('A' for Active; 'I' for Inactive)
REMARK    1  A    between atoms: C_1  and  N_2
REMARK    2  A    between atoms: C_7  and  C_8
REMARK    3  A    between atoms: C_9  and  C_10
REMARK    4  A    between atoms: C_14  and  N_15
REMARK    5  A    between atoms: N_19  and  C_20
REMARK                            x       y       z     vdW  Elec       q    Type
REMARK                         _______ _______ _______ _____ _____    ______ ____
ROOT
ATOM      1  C   UNL     1       7.039   4.614  17.452  0.00  0.00    +0.000 C 
ATOM      2  N   UNL     1       5.786   5.239  17.824  0.00  0.00    +0.000 N 
ATOM      3  C   UNL     1       5.424   6.418  17.151  0.00  0.00    +0.000 A 
ATOM      4  O   UNL     1       6.103   6.946  16.272  0.00  0.00    +0.000 OA
ATOM      5  C   UNL     1       4.160   6.961  17.596  0.00  0.00    +0.000 A 
ATOM      6  N   UNL     1       3.509   8.091  17.168  0.00  0.00    +0.000 NA
ATOM      7  C   UNL     1       2.398   8.155  17.881  0.00  0.00    +0.000 A 
ATOM      8  N   UNL     1       2.323   7.088  18.755  0.00  0.00    +0.000 N 
ATOM      9  C   UNL     1       3.445   6.331  18.576  0.00  0.00    +0.000 A 
ATOM     10  N   UNL     1       3.824   5.174  19.220  0.00  0.00    +0.000 N 
ATOM     11  C   UNL     1       3.067   4.508  20.262  0.00  0.00    +0.000 C 
ATOM     12  C   UNL     1       5.047   4.592  18.835  0.00  0.00    +0.000 A 
ATOM     13  O   UNL     1       5.453   3.555  19.368  0.00  0.00    +0.000 OA
ATOM     14  H   UNL     1       1.570   6.912  19.404  0.00  0.00    +0.000 HD
ENDROOT
BRANCH   7  15
ATOM     15  C   UNL     1       1.347   9.106  17.872  0.00  0.00    +0.000 C 
ATOM     16  C   UNL     1       0.760   9.461  19.028  0.00  0.00    +0.000 C 
BRANCH  16  17
ATOM     17  C   UNL     1      -0.330  10.443  19.154  0.00  0.00    +0.000 A 
ATOM     18  C   UNL     1      -0.435  11.183  20.339  0.00  0.00    +0.000 A 
ATOM     19  C   UNL     1      -1.449  12.129  20.496  0.00  0.00    +0.000 A 
ATOM     20  C   UNL     1      -2.381  12.328  19.478  0.00  0.00    +0.000 A 
ATOM     21  C   UNL     1      -2.344  11.551  18.320  0.00  0.00    +0.000 A 
ATOM     22  C   UNL     1      -1.293  10.640  18.153  0.00  0.00    +0.000 A 
BRANCH  21  23
ATOM     23  N   UNL     1      -3.200  11.842  17.248  0.00  0.00    +0.000 N 
ATOM     24  H   UNL     1      -2.783  12.448  16.548  0.00  0.00    +0.000 HD
ATOM     25  H   UNL     1      -4.119  12.160  17.534  0.00  0.00    +0.000 HD
ENDBRANCH  21  23
ENDBRANCH  16  17
ENDBRANCH   7  15
TORSDOF 3
ENDMDL
MODEL 2
REMARK VINA RESULT:      -7.6      7.102      9.981
REMARK  Name = 
REMARK  5 active torsions:
REMARK  status: ('A' for Active; 'I' for Inactive)
REMARK    1  A    between atoms: C_1  and  N_2
REMARK    2  A    between atoms: C_7  and  C_8
REMARK    3  A    between atoms: C_9  and  C_10
REMARK    4  A    between atoms: C_14  and  N_15
REMARK    5  A    between atoms: N_19  and  C_20
REMARK                            x       y       z     vdW  Elec       q    Type
REMARK                         _______ _______ _______ _____ _____    ______ ____
ROOT
ATOM      1  C   UNL     1      11.757  16.098  17.099  0.00  0.00    +0.000 C 
ATOM      2  N   UNL     1      10.954  15.025  17.651  0.00  0.00    +0.000 N 
ATOM      3  C   UNL     1      11.252  13.714  17.242  0.00  0.00    +0.000 A 
ATOM      4  O   UNL     1      12.148  13.427  16.450  0.00  0.00    +0.000 OA
ATOM      5  C   UNL     1      10.393  12.721  17.848  0.00  0.00    +0.000 A 
ATOM      6  N   UNL     1      10.396  11.360  17.676  0.00  0.00    +0.000 NA
ATOM      7  C   UNL     1       9.424  10.900  18.444  0.00  0.00    +0.000 A 
ATOM      8  N   UNL     1       8.799  11.940  19.107  0.00  0.00    +0.000 N 
ATOM      9  C   UNL     1       9.414  13.098  18.725  0.00  0.00    +0.000 A 
ATOM     10  N   UNL     1       9.144  14.392  19.109  0.00  0.00    +0.000 N 
ATOM     11  C   UNL     1       8.103  14.791  20.036  0.00  0.00    +0.000 C 
ATOM     12  C   UNL     1       9.943  15.410  18.555  0.00  0.00    +0.000 A 
ATOM     13  O   UNL     1       9.758  16.595  18.851  0.00  0.00    +0.000 OA
ATOM     14  H   UNL     1       8.030  11.846  19.752  0.00  0.00    +0.000 HD
ENDROOT
BRANCH   7  15
ATOM     15  C   UNL     1       8.964   9.577  18.662  0.00  0.00    +0.000 C 
ATOM     16  C   UNL     1       8.145   9.000  17.767  0.00  0.00    +0.000 C 
BRANCH  16  17
ATOM     17  C   UNL     1       7.608   7.633  17.872  0.00  0.00    +0.000 A 
ATOM     18  C   UNL     1       8.199   6.746  18.781  0.00  0.00    +0.000 A 
ATOM     19  C   UNL     1       7.715   5.444  18.917  0.00  0.00    +0.000 A 
ATOM     20  C   UNL     1       6.650   5.010  18.130  0.00  0.00    +0.000 A 
ATOM     21  C   UNL     1       6.093   5.850  17.163  0.00  0.00    +0.000 A 
ATOM     22  C   UNL     1       6.554   7.168  17.070  0.00  0.00    +0.000 A 
BRANCH  21  23
ATOM     23  N   UNL     1       4.942   5.456  16.466  0.00  0.00    +0.000 N 
ATOM     24  H   UNL     1       4.346   4.824  16.990  0.00  0.00    +0.000 HD
ATOM     25  H   UNL     1       5.128   5.118  15.528  0.00  0.00    +0.000 HD
ENDBRANCH  21  23
ENDBRANCH  16  17
ENDBRANCH   7  15
TORSDOF 3
ENDMDL
MODEL 3
REMARK VINA RESULT:      -7.6      3.522      8.532
REMARK  Name = 
REMARK  5 active torsions:
REMARK  status: ('A' for Active; 'I' for Inactive)
REMARK    1  A    between atoms: C_1  and  N_2
REMARK    2  A    between atoms: C_7  and  C_8
REMARK    3  A    between atoms: C_9  and  C_10
REMARK    4  A    between atoms: C_14  and  N_15
REMARK    5  A    between atoms: N_19  and  C_20
REMARK                            x       y       z     vdW  Elec       q    Type
REMARK                         _______ _______ _______ _____ _____    ______ ____
ROOT
ATOM      1  C   UNL     1      -3.127  12.761  20.299  0.00  0.00    +0.000 C 
ATOM      2  N   UNL     1      -2.272  11.888  19.519  0.00  0.00    +0.000 N 
ATOM      3  C   UNL     1      -1.005  11.584  20.043  0.00  0.00    +0.000 A 
ATOM      4  O   UNL     1      -0.582  12.011  21.116  0.00  0.00    +0.000 OA
ATOM      5  C   UNL     1      -0.232  10.710  19.189  0.00  0.00    +0.000 A 
ATOM      6  N   UNL     1       1.034  10.217  19.381  0.00  0.00    +0.000 NA
ATOM      7  C   UNL     1       1.291   9.469  18.322  0.00  0.00    +0.000 A 
ATOM      8  N   UNL     1       0.214   9.471  17.456  0.00  0.00    +0.000 N 
ATOM      9  C   UNL     1      -0.753  10.263  18.007  0.00  0.00    +0.000 A 
ATOM     10  N   UNL     1      -2.000  10.576  17.517  0.00  0.00    +0.000 N 
ATOM     11  C   UNL     1      -2.551  10.105  16.261  0.00  0.00    +0.000 C 
ATOM     12  C   UNL     1      -2.806  11.426  18.299  0.00  0.00    +0.000 A 
ATOM     13  O   UNL     1      -3.936  11.753  17.923  0.00  0.00    +0.000 OA
ATOM     14  H   UNL     1       0.165   8.974  16.580  0.00  0.00    +0.000 HD
ENDROOT
BRANCH   7  15
ATOM     15  C   UNL     1       2.444   8.721  17.976  0.00  0.00    +0.000 C 
ATOM     16  C   UNL     1       2.491   7.405  18.245  0.00  0.00    +0.000 C 
BRANCH  16  17
ATOM     17  C   UNL     1       3.621   6.517  17.928  0.00  0.00    +0.000 A 
ATOM     18  C   UNL     1       4.427   6.823  16.823  0.00  0.00    +0.000 A 
ATOM     19  C   UNL     1       5.514   6.012  16.493  0.00  0.00    +0.000 A 
ATOM     20  C   UNL     1       5.792   4.875  17.252  0.00  0.00    +0.000 A 
ATOM     21  C   UNL     1       4.960   4.507  18.311  0.00  0.00    +0.000 A 
ATOM     22  C   UNL     1       3.903   5.355  18.663  0.00  0.00    +0.000 A 
BRANCH  21  23
ATOM     23  N   UNL     1       5.315   3.441  19.149  0.00  0.00    +0.000 N 
ATOM     24  H   UNL     1       5.825   3.728  19.978  0.00  0.00    +0.000 HD
ATOM     25  H   UNL     1       5.771   2.675  18.664  0.00  0.00    +0.000 HD
ENDBRANCH  21  23
ENDBRANCH  16  17
ENDBRANCH   7  15
TORSDOF 3
ENDMDL
MODEL 4
REMARK VINA RESULT:      -7.5      3.685      8.363
REMARK  Name = 
REMARK  5 active torsions:
REMARK  status: ('A' for Active; 'I' for Inactive)
REMARK    1  A    between atoms: C_1  and  N_2
REMARK    2  A    between atoms: C_7  and  C_8
REMARK    3  A    between atoms: C_9  and  C_10
REMARK    4  A    between atoms: C_14  and  N_15
REMARK    5  A    between atoms: N_19  and  C_20
REMARK                            x       y       z     vdW  Elec       q    Type
REMARK                         _______ _______ _______ _____ _____    ______ ____
ROOT
ATOM      1  C   UNL     1      -1.593  11.997  23.009  0.00  0.00    +0.000 C 
ATOM      2  N   UNL     1      -1.071  11.451  21.772  0.00  0.00    +0.000 N 
ATOM      3  C   UNL     1      -0.058  10.483  21.867  0.00  0.00    +0.000 A 
ATOM      4  O   UNL     1       0.409  10.076  22.929  0.00  0.00    +0.000 OA
ATOM      5  C   UNL     1       0.393  10.006  20.579  0.00  0.00    +0.000 A 
ATOM      6  N   UNL     1       1.361   9.075  20.296  0.00  0.00    +0.000 NA
ATOM      7  C   UNL     1       1.400   8.989  18.977  0.00  0.00    +0.000 A 
ATOM      8  N   UNL     1       0.475   9.843  18.410  0.00  0.00    +0.000 N 
ATOM      9  C   UNL     1      -0.163  10.492  19.429  0.00  0.00    +0.000 A 
ATOM     10  N   UNL     1      -1.158  11.442  19.365  0.00  0.00    +0.000 N 
ATOM     11  C   UNL     1      -1.745  11.960  18.145  0.00  0.00    +0.000 C 
ATOM     12  C   UNL     1      -1.642  11.952  20.585  0.00  0.00    +0.000 A 
ATOM     13  O   UNL     1      -2.533  12.807  20.606  0.00  0.00    +0.000 OA
ATOM     14  H   UNL     1       0.311   9.958  17.421  0.00  0.00    +0.000 HD
ENDROOT
BRANCH   7  15
ATOM     15  C   UNL     1       2.209   8.195  18.126  0.00  0.00    +0.000 C 
ATOM     16  C   UNL     1       2.623   6.985  18.537  0.00  0.00    +0.000 C 
BRANCH  16  17
ATOM     17  C   UNL     1       3.455   6.063  17.746  0.00  0.00    +0.000 A 
ATOM     18  C   UNL     1       3.153   4.695  17.770  0.00  0.00    +0.000 A 
ATOM     19  C   UNL     1       3.912   3.789  17.028  0.00  0.00    +0.000 A 
ATOM     20  C   UNL     1       4.993   4.240  16.271  0.00  0.00    +0.000 A 
ATOM     21  C   UNL     1       5.361   5.586  16.290  0.00  0.00    +0.000 A 
ATOM     22  C   UNL     1       4.563   6.493  16.999  0.00  0.00    +0.000 A 
BRANCH  21  23
ATOM     23  N   UNL     1       6.365   6.055  15.431  0.00  0.00    +0.000 N 
ATOM     24  H   UNL     1       6.320   5.656  14.498  0.00  0.00    +0.000 HD
ATOM     25  H   UNL     1       7.297   6.005  15.826  0.00  0.00    +0.000 HD
ENDBRANCH  21  23
ENDBRANCH  16  17
ENDBRANCH   7  15
TORSDOF 3
ENDMDL
MODEL 5
REMARK VINA RESULT:      -7.5      3.776      8.567
REMARK  Name = 
REMARK  5 active torsions:
REMARK  status: ('A' for Active; 'I' for Inactive)
REMARK    1  A    between atoms: C_1  and  N_2
REMARK    2  A    between atoms: C_7  and  C_8
REMARK    3  A    between atoms: C_9  and  C_10
REMARK    4  A    between atoms: C_14  and  N_15
REMARK    5  A    between atoms: N_19  and  C_20
REMARK                            x       y       z     vdW  Elec       q    Type
REMARK                         _______ _______ _______ _____ _____    ______ ____
ROOT
ATOM      1  C   UNL     1      -1.785  12.269  23.149  0.00  0.00    +0.000 C 
ATOM      2  N   UNL     1      -1.163  11.608  22.019  0.00  0.00    +0.000 N 
ATOM      3  C   UNL     1      -0.282  10.549  22.291  0.00  0.00    +0.000 A 
ATOM      4  O   UNL     1      -0.010  10.153  23.423  0.00  0.00    +0.000 OA
ATOM      5  C   UNL     1       0.284   9.960  21.098  0.00  0.00    +0.000 A 
ATOM      6  N   UNL     1       1.175   8.922  20.989  0.00  0.00    +0.000 NA
ATOM      7  C   UNL     1       1.381   8.762  19.694  0.00  0.00    +0.000 A 
ATOM      8  N   UNL     1       0.639   9.675  18.970  0.00  0.00    +0.000 N 
ATOM      9  C   UNL     1      -0.057  10.438  19.864  0.00  0.00    +0.000 A 
ATOM     10  N   UNL     1      -0.925  11.479  19.625  0.00  0.00    +0.000 N 
ATOM     11  C   UNL     1      -1.283  11.989  18.316  0.00  0.00    +0.000 C 
ATOM     12  C   UNL     1      -1.512  12.100  20.745  0.00  0.00    +0.000 A 
ATOM     13  O   UNL     1      -2.300  13.042  20.609  0.00  0.00    +0.000 OA
ATOM     14  H   UNL     1       0.623   9.753  17.964  0.00  0.00    +0.000 HD
ENDROOT
BRANCH   7  15
ATOM     15  C   UNL     1       2.207   7.846  18.995  0.00  0.00    +0.000 C 
ATOM     16  C   UNL     1       2.242   6.557  19.372  0.00  0.00    +0.000 C 
BRANCH  16  17
ATOM     17  C   UNL     1       3.047   5.509  18.724  0.00  0.00    +0.000 A 
ATOM     18  C   UNL     1       2.417   4.631  17.832  0.00  0.00    +0.000 A 
ATOM     19  C   UNL     1       3.146   3.629  17.190  0.00  0.00    +0.000 A 
ATOM     20  C   UNL     1       4.508   3.481  17.452  0.00  0.00    +0.000 A 
ATOM     21  C   UNL     1       5.142   4.293  18.393  0.00  0.00    +0.000 A 
ATOM     22  C   UNL     1       4.412   5.326  18.993  0.00  0.00    +0.000 A 
BRANCH  21  23
ATOM     23  N   UNL     1       6.533   4.227  18.557  0.00  0.00    +0.000 N 
ATOM     24  H   UNL     1       6.894   3.278  18.583  0.00  0.00    +0.000 HD
ATOM     25  H   UNL     1       6.881   4.791  19.324  0.00  0.00    +0.000 HD
ENDBRANCH  21  23
ENDBRANCH  16  17
ENDBRANCH   7  15
TORSDOF 3
ENDMDL
MODEL 6
REMARK VINA RESULT:      -7.5      3.714      8.420
REMARK  Name = 
REMARK  5 active torsions:
REMARK  status: ('A' for Active; 'I' for Inactive)
REMARK    1  A    between atoms: C_1  and  N_2
REMARK    2  A    between atoms: C_7  and  C_8
REMARK    3  A    between atoms: C_9  and  C_10
REMARK    4  A    between atoms: C_14  and  N_15
REMARK    5  A    between atoms: N_19  and  C_20
REMARK                            x       y       z     vdW  Elec       q    Type
REMARK                         _______ _______ _______ _____ _____    ______ ____
ROOT
ATOM      1  C   UNL     1      -1.683  12.022  23.085  0.00  0.00    +0.000 C 
ATOM      2  N   UNL     1      -1.144  11.486  21.851  0.00  0.00    +0.000 N 
ATOM      3  C   UNL     1      -0.120  10.530  21.951  0.00  0.00    +0.000 A 
ATOM      4  O   UNL     1       0.342  10.123  23.016  0.00  0.00    +0.000 OA
ATOM      5  C   UNL     1       0.348  10.062  20.666  0.00  0.00    +0.000 A 
ATOM      6  N   UNL     1       1.330   9.143  20.388  0.00  0.00    +0.000 NA
ATOM      7  C   UNL     1       1.382   9.062  19.070  0.00  0.00    +0.000 A 
ATOM      8  N   UNL     1       0.452   9.909  18.497  0.00  0.00    +0.000 N 
ATOM      9  C   UNL     1      -0.202  10.546  19.512  0.00  0.00    +0.000 A 
ATOM     10  N   UNL     1      -1.207  11.485  19.443  0.00  0.00    +0.000 N 
ATOM     11  C   UNL     1      -1.789  12.001  18.219  0.00  0.00    +0.000 C 
ATOM     12  C   UNL     1      -1.709  11.985  20.660  0.00  0.00    +0.000 A 
ATOM     13  O   UNL     1      -2.610  12.830  20.676  0.00  0.00    +0.000 OA
ATOM     14  H   UNL     1       0.296  10.025  17.507  0.00  0.00    +0.000 HD
ENDROOT
BRANCH   7  15
ATOM     15  C   UNL     1       2.208   8.282  18.223  0.00  0.00    +0.000 C 
ATOM     16  C   UNL     1       2.655   7.087  18.645  0.00  0.00    +0.000 C 
BRANCH  16  17
ATOM     17  C   UNL     1       3.507   6.179  17.860  0.00  0.00    +0.000 A 
ATOM     18  C   UNL     1       4.363   6.726  16.895  0.00  0.00    +0.000 A 
ATOM     19  C   UNL     1       5.194   5.901  16.135  0.00  0.00    +0.000 A 
ATOM     20  C   UNL     1       5.160   4.519  16.318  0.00  0.00    +0.000 A 
ATOM     21  C   UNL     1       4.262   3.943  17.218  0.00  0.00    +0.000 A 
ATOM     22  C   UNL     1       3.470   4.784  18.009  0.00  0.00    +0.000 A 
BRANCH  21  23
ATOM     23  N   UNL     1       4.321   2.570  17.492  0.00  0.00    +0.000 N 
ATOM     24  H   UNL     1       4.865   2.343  18.319  0.00  0.00    +0.000 HD
ATOM     25  H   UNL     1       4.585   2.004  16.692  0.00  0.00    +0.000 HD
ENDBRANCH  21  23
ENDBRANCH  16  17
ENDBRANCH   7  15
TORSDOF 3
ENDMDL
MODEL 7
REMARK VINA RESULT:      -7.4      6.136      7.423
REMARK  Name = 
REMARK  5 active torsions:
REMARK  status: ('A' for Active; 'I' for Inactive)
REMARK    1  A    between atoms: C_1  and  N_2
REMARK    2  A    between atoms: C_7  and  C_8
REMARK    3  A    between atoms: C_9  and  C_10
REMARK    4  A    between atoms: C_14  and  N_15
REMARK    5  A    between atoms: N_19  and  C_20
REMARK                            x       y       z     vdW  Elec       q    Type
REMARK                         _______ _______ _______ _____ _____    ______ ____
ROOT
ATOM      1  C   UNL     1       5.172   3.374  14.587  0.00  0.00    +0.000 C 
ATOM      2  N   UNL     1       5.620   4.218  15.676  0.00  0.00    +0.000 N 
ATOM      3  C   UNL     1       6.567   5.212  15.380  0.00  0.00    +0.000 A 
ATOM      4  O   UNL     1       7.035   5.406  14.260  0.00  0.00    +0.000 OA
ATOM      5  C   UNL     1       6.948   5.995  16.534  0.00  0.00    +0.000 A 
ATOM      6  N   UNL     1       7.842   7.033  16.614  0.00  0.00    +0.000 NA
ATOM      7  C   UNL     1       7.837   7.413  17.880  0.00  0.00    +0.000 A 
ATOM      8  N   UNL     1       6.957   6.641  18.613  0.00  0.00    +0.000 N 
ATOM      9  C   UNL     1       6.394   5.737  17.757  0.00  0.00    +0.000 A 
ATOM     10  N   UNL     1       5.465   4.755  18.019  0.00  0.00    +0.000 N 
ATOM     11  C   UNL     1       4.881   4.479  19.318  0.00  0.00    +0.000 C 
ATOM     12  C   UNL     1       5.051   3.953  16.939  0.00  0.00    +0.000 A 
ATOM     13  O   UNL     1       4.222   3.052  17.098  0.00  0.00    +0.000 OA
ATOM     14  H   UNL     1       6.773   6.737  19.600  0.00  0.00    +0.000 HD
ENDROOT
BRANCH   7  15
ATOM     15  C   UNL     1       8.566   8.433  18.542  0.00  0.00    +0.000 C 
ATOM     16  C   UNL     1       8.477   9.703  18.113  0.00  0.00    +0.000 C 
BRANCH  16  17
ATOM     17  C   UNL     1       9.172  10.850  18.719  0.00  0.00    +0.000 A 
ATOM     18  C   UNL     1       9.645  10.733  20.032  0.00  0.00    +0.000 A 
ATOM     19  C   UNL     1      10.317  11.794  20.641  0.00  0.00    +0.000 A 
ATOM     20  C   UNL     1      10.503  12.990  19.949  0.00  0.00    +0.000 A 
ATOM     21  C   UNL     1       9.976  13.159  18.667  0.00  0.00    +0.000 A 
ATOM     22  C   UNL     1       9.347  12.071  18.049  0.00  0.00    +0.000 A 
BRANCH  21  23
ATOM     23  N   UNL     1      10.276  14.311  17.927  0.00  0.00    +0.000 N 
ATOM     24  H   UNL     1      10.345  15.151  18.494  0.00  0.00    +0.000 HD
ATOM     25  H   UNL     1       9.681  14.443  17.117  0.00  0.00    +0.000 HD
ENDBRANCH  21  23
ENDBRANCH  16  17
ENDBRANCH   7  15
TORSDOF 3
ENDMDL
MODEL 8
REMARK VINA RESULT:      -7.4      6.131      8.046
REMARK  Name = 
REMARK  5 active torsions:
REMARK  status: ('A' for Active; 'I' for Inactive)
REMARK    1  A    between atoms: C_1  and  N_2
REMARK    2  A    between atoms: C_7  and  C_8
REMARK    3  A    between atoms: C_9  and  C_10
REMARK    4  A    between atoms: C_14  and  N_15
REMARK    5  A    between atoms: N_19  and  C_20
REMARK                            x       y       z     vdW  Elec       q    Type
REMARK                         _______ _______ _______ _____ _____    ______ ____
ROOT
ATOM      1  C   UNL     1       4.106   3.085  18.146  0.00  0.00    +0.000 C 
ATOM      2  N   UNL     1       5.046   4.085  17.681  0.00  0.00    +0.000 N 
ATOM      3  C   UNL     1       5.407   5.104  18.578  0.00  0.00    +0.000 A 
ATOM      4  O   UNL     1       4.976   5.196  19.726  0.00  0.00    +0.000 OA
ATOM      5  C   UNL     1       6.346   6.049  18.016  0.00  0.00    +0.000 A 
ATOM      6  N   UNL     1       6.905   7.159  18.598  0.00  0.00    +0.000 NA
ATOM      7  C   UNL     1       7.694   7.687  17.679  0.00  0.00    +0.000 A 
ATOM      8  N   UNL     1       7.655   6.936  16.520  0.00  0.00    +0.000 N 
ATOM      9  C   UNL     1       6.795   5.896  16.733  0.00  0.00    +0.000 A 
ATOM     10  N   UNL     1       6.425   4.886  15.875  0.00  0.00    +0.000 N 
ATOM     11  C   UNL     1       6.898   4.727  14.513  0.00  0.00    +0.000 C 
ATOM     12  C   UNL     1       5.510   3.931  16.359  0.00  0.00    +0.000 A 
ATOM     13  O   UNL     1       5.130   2.997  15.645  0.00  0.00    +0.000 OA
ATOM     14  H   UNL     1       8.172   7.132  15.676  0.00  0.00    +0.000 HD
ENDROOT
BRANCH   7  15
ATOM     15  C   UNL     1       8.515   8.841  17.717  0.00  0.00    +0.000 C 
ATOM     16  C   UNL     1       8.831   9.396  18.900  0.00  0.00    +0.000 C 
BRANCH  16  17
ATOM     17  C   UNL     1       9.681  10.585  19.075  0.00  0.00    +0.000 A 
ATOM     18  C   UNL     1       9.672  11.242  20.312  0.00  0.00    +0.000 A 
ATOM     19  C   UNL     1      10.470  12.368  20.522  0.00  0.00    +0.000 A 
ATOM     20  C   UNL     1      11.267  12.861  19.490  0.00  0.00    +0.000 A 
ATOM     21  C   UNL     1      11.236  12.270  18.225  0.00  0.00    +0.000 A 
ATOM     22  C   UNL     1      10.470  11.112  18.041  0.00  0.00    +0.000 A 
BRANCH  21  23
ATOM     23  N   UNL     1      12.132  12.686  17.230  0.00  0.00    +0.000 N 
ATOM     24  H   UNL     1      12.776  13.408  17.540  0.00  0.00    +0.000 HD
ATOM     25  H   UNL     1      11.686  12.921  16.351  0.00  0.00    +0.000 HD
ENDBRANCH  21  23
ENDBRANCH  16  17
ENDBRANCH   7  15
TORSDOF 3
ENDMDL
MODEL 9
REMARK VINA RESULT:      -7.3      6.261      7.552
REMARK  Name = 
REMARK  5 active torsions:
REMARK  status: ('A' for Active; 'I' for Inactive)
REMARK    1  A    between atoms: C_1  and  N_2
REMARK    2  A    between atoms: C_7  and  C_8
REMARK    3  A    between atoms: C_9  and  C_10
REMARK    4  A    between atoms: C_14  and  N_15
REMARK    5  A    between atoms: N_19  and  C_20
REMARK                            x       y       z     vdW  Elec       q    Type
REMARK                         _______ _______ _______ _____ _____    ______ ____
ROOT
ATOM      1  C   UNL     1       5.480   3.323  14.264  0.00  0.00    +0.000 C 
ATOM      2  N   UNL     1       5.819   4.138  15.413  0.00  0.00    +0.000 N 
ATOM      3  C   UNL     1       6.737   5.184  15.219  0.00  0.00    +0.000 A 
ATOM      4  O   UNL     1       7.265   5.446  14.140  0.00  0.00    +0.000 OA
ATOM      5  C   UNL     1       7.007   5.933  16.426  0.00  0.00    +0.000 A 
ATOM      6  N   UNL     1       7.846   7.005  16.605  0.00  0.00    +0.000 NA
ATOM      7  C   UNL     1       7.743   7.330  17.882  0.00  0.00    +0.000 A 
ATOM      8  N   UNL     1       6.855   6.489  18.524  0.00  0.00    +0.000 N 
ATOM      9  C   UNL     1       6.389   5.599  17.599  0.00  0.00    +0.000 A 
ATOM     10  N   UNL     1       5.492   4.568  17.761  0.00  0.00    +0.000 N 
ATOM     11  C   UNL     1       4.840   4.212  19.006  0.00  0.00    +0.000 C 
ATOM     12  C   UNL     1       5.184   3.796  16.624  0.00  0.00    +0.000 A 
ATOM     13  O   UNL     1       4.389   2.853  16.693  0.00  0.00    +0.000 OA
ATOM     14  H   UNL     1       6.605   6.536  19.501  0.00  0.00    +0.000 HD
ENDROOT
BRANCH   7  15
ATOM     15  C   UNL     1       8.381   8.351  18.630  0.00  0.00    +0.000 C 
ATOM     16  C   UNL     1       8.642   9.536  18.054  0.00  0.00    +0.000 C 
BRANCH  16  17
ATOM     17  C   UNL     1       9.288  10.677  18.723  0.00  0.00    +0.000 A 
ATOM     18  C   UNL     1       9.967  11.620  17.941  0.00  0.00    +0.000 A 
ATOM     19  C   UNL     1      10.586  12.721  18.536  0.00  0.00    +0.000 A 
ATOM     20  C   UNL     1      10.549  12.877  19.921  0.00  0.00    +0.000 A 
ATOM     21  C   UNL     1       9.944  11.913  20.729  0.00  0.00    +0.000 A 
ATOM     22  C   UNL     1       9.285  10.839  20.118  0.00  0.00    +0.000 A 
BRANCH  21  23
ATOM     23  N   UNL     1       9.796  12.137  22.105  0.00  0.00    +0.000 N 
ATOM     24  H   UNL     1       9.143  11.502  22.553  0.00  0.00    +0.000 HD
ATOM     25  H   UNL     1       9.614  13.106  22.344  0.00  0.00    +0.000 HD
ENDBRANCH  21  23
ENDBRANCH  16  17
ENDBRANCH   7  15
TORSDOF 3
ENDMDL
