MODEL 1
REMARK VINA RESULT:      -9.9      0.000      0.000
REMARK  Name = 
REMARK  4 active torsions:
REMARK  status: ('A' for Active; 'I' for Inactive)
REMARK    1  A    between atoms: C_2  and  C_12
REMARK    2  A    between atoms: N_3  and  C_4
REMARK    3  A    between atoms: C_15  and  O_16
REMARK    4  A    between atoms: C_19  and  O_20
REMARK                            x       y       z     vdW  Elec       q    Type
REMARK                         _______ _______ _______ _____ _____    ______ ____
ROOT
ATOM      1  C   UNL     1       2.164   7.756  18.768  0.00  0.00    +0.000 A 
ATOM      2  C   UNL     1       1.497   8.706  18.028  0.00  0.00    +0.000 A 
ATOM      3  C   UNL     1       0.735   9.476  18.929  0.00  0.00    +0.000 A 
ATOM      4  C   UNL     1      -0.254  10.452  18.761  0.00  0.00    +0.000 A 
ATOM      5  C   UNL     1      -0.869  11.022  19.886  0.00  0.00    +0.000 A 
ATOM      6  C   UNL     1      -0.398  10.734  21.171  0.00  0.00    +0.000 A 
ATOM      7  C   UNL     1       0.620   9.754  21.363  0.00  0.00    +0.000 A 
ATOM      8  C   UNL     1       1.115   9.096  20.213  0.00  0.00    +0.000 A 
ATOM      9  O   UNL     1       1.989   8.021  20.117  0.00  0.00    +0.000 OA
ATOM     10  C   UNL     1      -0.996  11.471  22.324  0.00  0.00    +0.000 C 
ATOM     11  O   UNL     1      -0.514  11.326  23.447  0.00  0.00    +0.000 OA
ATOM     12  C   UNL     1      -2.164  12.374  22.107  0.00  0.00    +0.000 A 
ATOM     13  C   UNL     1      -2.775  13.065  23.168  0.00  0.00    +0.000 A 
ATOM     14  C   UNL     1      -3.911  13.857  22.935  0.00  0.00    +0.000 A 
ATOM     15  C   UNL     1      -4.448  13.972  21.655  0.00  0.00    +0.000 A 
ATOM     16  C   UNL     1      -3.836  13.306  20.602  0.00  0.00    +0.000 A 
ATOM     17  C   UNL     1      -2.694  12.519  20.831  0.00  0.00    +0.000 A 
ATOM     18  C   UNL     1      -2.089  11.832  19.693  0.00  0.00    +0.000 C 
ATOM     19  O   UNL     1      -2.668  11.898  18.617  0.00  0.00    +0.000 OA
ENDROOT
BRANCH   1  21
ATOM     20  O   UNL     1       2.348   5.586  17.882  0.00  0.00    +0.000 OA
ATOM     21  C   UNL     1       2.906   6.627  18.236  0.00  0.00    +0.000 C 
ATOM     22  N   UNL     1       4.273   6.752  18.185  0.00  0.00    +0.000 N 
ATOM     23  H   UNL     1       4.659   7.587  18.616  0.00  0.00    +0.000 HD
BRANCH  22  24
ATOM     24  C   UNL     1       5.148   5.660  17.754  0.00  0.00    +0.000 C 
ATOM     25  C   UNL     1       5.925   4.987  18.924  0.00  0.00    +0.000 C 
ATOM     26  N   UNL     1       7.401   5.083  18.747  0.00  0.00    +0.000 NA
ATOM     27  C   UNL     1       7.781   4.395  17.494  0.00  0.00    +0.000 C 
ATOM     28  C   UNL     1       7.051   4.985  16.277  0.00  0.00    +0.000 C 
ATOM     29  C   UNL     1       6.174   6.170  16.723  0.00  0.00    +0.000 C 
ATOM     30  C   UNL     1       7.107   7.178  17.416  0.00  0.00    +0.000 C 
ATOM     31  C   UNL     1       7.770   6.510  18.631  0.00  0.00    +0.000 C 
ENDBRANCH  22  24
ENDBRANCH   1  21
BRANCH   4  32
ATOM     32  O   UNL     1      -0.621  10.816  17.498  0.00  0.00    +0.000 OA
ATOM     33  H   UNL     1      -0.218  10.203  16.860  0.00  0.00    +0.000 HD
ENDBRANCH   4  32
BRANCH   7  34
ATOM     34  O   UNL     1       1.100   9.429  22.609  0.00  0.00    +0.000 OA
ATOM     35  H   UNL     1       1.105  10.243  23.163  0.00  0.00    +0.000 HD
ENDBRANCH   7  34
TORSDOF 4
ENDMDL
MODEL 2
REMARK VINA RESULT:      -9.7      2.162      2.853
REMARK  Name = 
REMARK  4 active torsions:
REMARK  status: ('A' for Active; 'I' for Inactive)
REMARK    1  A    between atoms: C_2  and  C_12
REMARK    2  A    between atoms: N_3  and  C_4
REMARK    3  A    between atoms: C_15  and  O_16
REMARK    4  A    between atoms: C_19  and  O_20
REMARK                            x       y       z     vdW  Elec       q    Type
REMARK                         _______ _______ _______ _____ _____    ______ ____
ROOT
ATOM      1  C   UNL     1       2.080   8.044  19.018  0.00  0.00    +0.000 A 
ATOM      2  C   UNL     1       1.414   8.937  18.208  0.00  0.00    +0.000 A 
ATOM      3  C   UNL     1       0.576   9.707  19.039  0.00  0.00    +0.000 A 
ATOM      4  C   UNL     1      -0.442  10.634  18.783  0.00  0.00    +0.000 A 
ATOM      5  C   UNL     1      -1.137  11.218  19.852  0.00  0.00    +0.000 A 
ATOM      6  C   UNL     1      -0.723  10.998  21.170  0.00  0.00    +0.000 A 
ATOM      7  C   UNL     1       0.323  10.070  21.452  0.00  0.00    +0.000 A 
ATOM      8  C   UNL     1       0.903   9.391  20.355  0.00  0.00    +0.000 A 
ATOM      9  O   UNL     1       1.824   8.351  20.345  0.00  0.00    +0.000 OA
ATOM     10  C   UNL     1      -1.409  11.751  22.262  0.00  0.00    +0.000 C 
ATOM     11  O   UNL     1      -0.981  11.668  23.412  0.00  0.00    +0.000 OA
ATOM     12  C   UNL     1      -2.599  12.595  21.951  0.00  0.00    +0.000 A 
ATOM     13  C   UNL     1      -3.293  13.298  22.951  0.00  0.00    +0.000 A 
ATOM     14  C   UNL     1      -4.446  14.033  22.630  0.00  0.00    +0.000 A 
ATOM     15  C   UNL     1      -4.920  14.077  21.321  0.00  0.00    +0.000 A 
ATOM     16  C   UNL     1      -4.227  13.399  20.328  0.00  0.00    +0.000 A 
ATOM     17  C   UNL     1      -3.067  12.670  20.645  0.00  0.00    +0.000 A 
ATOM     18  C   UNL     1      -2.376  11.968  19.567  0.00  0.00    +0.000 C 
ATOM     19  O   UNL     1      -2.901  11.969  18.461  0.00  0.00    +0.000 OA
ENDROOT
BRANCH   1  21
ATOM     20  O   UNL     1       3.776   7.063  17.719  0.00  0.00    +0.000 OA
ATOM     21  C   UNL     1       2.893   6.929  18.569  0.00  0.00    +0.000 C 
ATOM     22  N   UNL     1       2.603   5.696  19.102  0.00  0.00    +0.000 N 
ATOM     23  H   UNL     1       1.778   5.651  19.693  0.00  0.00    +0.000 HD
BRANCH  22  24
ATOM     24  C   UNL     1       3.283   4.472  18.673  0.00  0.00    +0.000 C 
ATOM     25  C   UNL     1       2.641   3.811  17.418  0.00  0.00    +0.000 C 
ATOM     26  N   UNL     1       2.173   2.424  17.692  0.00  0.00    +0.000 NA
ATOM     27  C   UNL     1       3.330   1.597  18.098  0.00  0.00    +0.000 C 
ATOM     28  C   UNL     1       4.041   2.180  19.330  0.00  0.00    +0.000 C 
ATOM     29  C   UNL     1       3.291   3.436  19.815  0.00  0.00    +0.000 C 
ATOM     30  C   UNL     1       1.841   3.007  20.099  0.00  0.00    +0.000 C 
ATOM     31  C   UNL     1       1.206   2.463  18.810  0.00  0.00    +0.000 C 
ENDBRANCH  22  24
ENDBRANCH   1  21
BRANCH   4  32
ATOM     32  O   UNL     1      -0.756  10.935  17.490  0.00  0.00    +0.000 OA
ATOM     33  H   UNL     1       0.062  11.002  16.971  0.00  0.00    +0.000 HD
ENDBRANCH   4  32
BRANCH   7  34
ATOM     34  O   UNL     1       0.750   9.811  22.733  0.00  0.00    +0.000 OA
ATOM     35  H   UNL     1      -0.008   9.949  23.346  0.00  0.00    +0.000 HD
ENDBRANCH   7  34
TORSDOF 4
ENDMDL
MODEL 3
REMARK VINA RESULT:      -8.9      1.371      2.608
REMARK  Name = 
REMARK  4 active torsions:
REMARK  status: ('A' for Active; 'I' for Inactive)
REMARK    1  A    between atoms: C_2  and  C_12
REMARK    2  A    between atoms: N_3  and  C_4
REMARK    3  A    between atoms: C_15  and  O_16
REMARK    4  A    between atoms: C_19  and  O_20
REMARK                            x       y       z     vdW  Elec       q    Type
REMARK                         _______ _______ _______ _____ _____    ______ ____
ROOT
ATOM      1  C   UNL     1       2.158   7.200  19.726  0.00  0.00    +0.000 A 
ATOM      2  C   UNL     1       1.277   7.320  20.778  0.00  0.00    +0.000 A 
ATOM      3  C   UNL     1       0.767   8.632  20.746  0.00  0.00    +0.000 A 
ATOM      4  C   UNL     1      -0.017   9.380  21.633  0.00  0.00    +0.000 A 
ATOM      5  C   UNL     1      -0.335  10.712  21.328  0.00  0.00    +0.000 A 
ATOM      6  C   UNL     1      -0.004  11.251  20.080  0.00  0.00    +0.000 A 
ATOM      7  C   UNL     1       0.781  10.500  19.156  0.00  0.00    +0.000 A 
ATOM      8  C   UNL     1       1.205   9.212  19.558  0.00  0.00    +0.000 A 
ATOM      9  O   UNL     1       2.078   8.333  18.932  0.00  0.00    +0.000 OA
ATOM     10  C   UNL     1      -0.485  12.626  19.754  0.00  0.00    +0.000 C 
ATOM     11  O   UNL     1      -0.314  13.072  18.620  0.00  0.00    +0.000 OA
ATOM     12  C   UNL     1      -1.169  13.444  20.798  0.00  0.00    +0.000 A 
ATOM     13  C   UNL     1      -1.613  14.753  20.543  0.00  0.00    +0.000 A 
ATOM     14  C   UNL     1      -2.198  15.514  21.569  0.00  0.00    +0.000 A 
ATOM     15  C   UNL     1      -2.346  14.988  22.850  0.00  0.00    +0.000 A 
ATOM     16  C   UNL     1      -1.925  13.689  23.100  0.00  0.00    +0.000 A 
ATOM     17  C   UNL     1      -1.349  12.922  22.073  0.00  0.00    +0.000 A 
ATOM     18  C   UNL     1      -0.916  11.563  22.386  0.00  0.00    +0.000 C 
ATOM     19  O   UNL     1      -0.987  11.199  23.553  0.00  0.00    +0.000 OA
ENDROOT
BRANCH   1  21
ATOM     20  O   UNL     1       3.026   5.062  20.175  0.00  0.00    +0.000 OA
ATOM     21  C   UNL     1       3.062   6.088  19.494  0.00  0.00    +0.000 C 
ATOM     22  N   UNL     1       4.000   6.249  18.503  0.00  0.00    +0.000 N 
ATOM     23  H   UNL     1       4.047   7.172  18.081  0.00  0.00    +0.000 HD
BRANCH  22  24
ATOM     24  C   UNL     1       5.029   5.246  18.222  0.00  0.00    +0.000 C 
ATOM     25  C   UNL     1       6.143   5.176  19.309  0.00  0.00    +0.000 C 
ATOM     26  N   UNL     1       7.493   5.460  18.748  0.00  0.00    +0.000 NA
ATOM     27  C   UNL     1       7.805   4.451  17.712  0.00  0.00    +0.000 C 
ATOM     28  C   UNL     1       6.749   4.436  16.596  0.00  0.00    +0.000 C 
ATOM     29  C   UNL     1       5.698   5.529  16.862  0.00  0.00    +0.000 C 
ATOM     30  C   UNL     1       6.458   6.864  16.958  0.00  0.00    +0.000 C 
ATOM     31  C   UNL     1       7.470   6.795  18.112  0.00  0.00    +0.000 C 
ENDBRANCH  22  24
ENDBRANCH   1  21
BRANCH   4  32
ATOM     32  O   UNL     1      -0.439   8.804  22.795  0.00  0.00    +0.000 OA
ATOM     33  H   UNL     1      -0.894   9.471  23.335  0.00  0.00    +0.000 HD
ENDBRANCH   4  32
BRANCH   7  34
ATOM     34  O   UNL     1       1.142  10.997  17.926  0.00  0.00    +0.000 OA
ATOM     35  H   UNL     1       0.432  10.776  17.281  0.00  0.00    +0.000 HD
ENDBRANCH   7  34
TORSDOF 4
ENDMDL
MODEL 4
REMARK VINA RESULT:      -8.8      3.095      9.776
REMARK  Name = 
REMARK  4 active torsions:
REMARK  status: ('A' for Active; 'I' for Inactive)
REMARK    1  A    between atoms: C_2  and  C_12
REMARK    2  A    between atoms: N_3  and  C_4
REMARK    3  A    between atoms: C_15  and  O_16
REMARK    4  A    between atoms: C_19  and  O_20
REMARK                            x       y       z     vdW  Elec       q    Type
REMARK                         _______ _______ _______ _____ _____    ______ ____
ROOT
ATOM      1  C   UNL     1       0.552   9.231  21.529  0.00  0.00    +0.000 A 
ATOM      2  C   UNL     1       0.767   9.541  20.204  0.00  0.00    +0.000 A 
ATOM      3  C   UNL     1       1.528   8.493  19.650  0.00  0.00    +0.000 A 
ATOM      4  C   UNL     1       2.183   8.325  18.424  0.00  0.00    +0.000 A 
ATOM      5  C   UNL     1       2.910   7.151  18.177  0.00  0.00    +0.000 A 
ATOM      6  C   UNL     1       2.862   6.085  19.083  0.00  0.00    +0.000 A 
ATOM      7  C   UNL     1       2.187   6.230  20.331  0.00  0.00    +0.000 A 
ATOM      8  C   UNL     1       1.587   7.481  20.605  0.00  0.00    +0.000 A 
ATOM      9  O   UNL     1       0.996   7.941  21.774  0.00  0.00    +0.000 OA
ATOM     10  C   UNL     1       3.541   4.809  18.709  0.00  0.00    +0.000 C 
ATOM     11  O   UNL     1       3.407   3.822  19.431  0.00  0.00    +0.000 OA
ATOM     12  C   UNL     1       4.368   4.740  17.470  0.00  0.00    +0.000 A 
ATOM     13  C   UNL     1       5.047   3.568  17.094  0.00  0.00    +0.000 A 
ATOM     14  C   UNL     1       5.866   3.559  15.954  0.00  0.00    +0.000 A 
ATOM     15  C   UNL     1       6.020   4.706  15.178  0.00  0.00    +0.000 A 
ATOM     16  C   UNL     1       5.336   5.860  15.535  0.00  0.00    +0.000 A 
ATOM     17  C   UNL     1       4.508   5.868  16.672  0.00  0.00    +0.000 A 
ATOM     18  C   UNL     1       3.814   7.108  17.011  0.00  0.00    +0.000 C 
ATOM     19  O   UNL     1       4.070   8.102  16.344  0.00  0.00    +0.000 OA
ENDROOT
BRANCH   1  21
ATOM     20  O   UNL     1       0.086   9.887  23.737  0.00  0.00    +0.000 OA
ATOM     21  C   UNL     1      -0.011  10.117  22.531  0.00  0.00    +0.000 C 
ATOM     22  N   UNL     1      -0.703  11.212  22.071  0.00  0.00    +0.000 N 
ATOM     23  H   UNL     1      -0.848  11.256  21.066  0.00  0.00    +0.000 HD
BRANCH  22  24
ATOM     24  C   UNL     1      -1.397  12.139  22.967  0.00  0.00    +0.000 C 
ATOM     25  C   UNL     1      -2.926  12.245  22.691  0.00  0.00    +0.000 C 
ATOM     26  N   UNL     1      -3.339  13.632  22.344  0.00  0.00    +0.000 NA
ATOM     27  C   UNL     1      -3.019  14.527  23.477  0.00  0.00    +0.000 C 
ATOM     28  C   UNL     1      -1.525  14.482  23.834  0.00  0.00    +0.000 C 
ATOM     29  C   UNL     1      -0.787  13.550  22.855  0.00  0.00    +0.000 C 
ATOM     30  C   UNL     1      -1.054  14.090  21.439  0.00  0.00    +0.000 C 
ATOM     31  C   UNL     1      -2.566  14.074  21.163  0.00  0.00    +0.000 C 
ENDBRANCH  22  24
ENDBRANCH   1  21
BRANCH   4  32
ATOM     32  O   UNL     1       2.121   9.323  17.496  0.00  0.00    +0.000 OA
ATOM     33  H   UNL     1       2.764   9.141  16.790  0.00  0.00    +0.000 HD
ENDBRANCH   4  32
BRANCH   7  34
ATOM     34  O   UNL     1       2.129   5.215  21.256  0.00  0.00    +0.000 OA
ATOM     35  H   UNL     1       1.798   5.587  22.105  0.00  0.00    +0.000 HD
ENDBRANCH   7  34
TORSDOF 4
ENDMDL
MODEL 5
REMARK VINA RESULT:      -8.6      2.207      3.074
REMARK  Name = 
REMARK  4 active torsions:
REMARK  status: ('A' for Active; 'I' for Inactive)
REMARK    1  A    between atoms: C_2  and  C_12
REMARK    2  A    between atoms: N_3  and  C_4
REMARK    3  A    between atoms: C_15  and  O_16
REMARK    4  A    between atoms: C_19  and  O_20
REMARK                            x       y       z     vdW  Elec       q    Type
REMARK                         _______ _______ _______ _____ _____    ______ ____
ROOT
ATOM      1  C   UNL     1       0.975   9.557  18.958  0.00  0.00    +0.000 A 
ATOM      2  C   UNL     1       0.059  10.304  18.251  0.00  0.00    +0.000 A 
ATOM      3  C   UNL     1      -0.767  10.949  19.192  0.00  0.00    +0.000 A 
ATOM      4  C   UNL     1      -1.951  11.688  19.084  0.00  0.00    +0.000 A 
ATOM      5  C   UNL     1      -2.573  12.181  20.241  0.00  0.00    +0.000 A 
ATOM      6  C   UNL     1      -1.943  12.069  21.485  0.00  0.00    +0.000 A 
ATOM      7  C   UNL     1      -0.727  11.334  21.614  0.00  0.00    +0.000 A 
ATOM      8  C   UNL     1      -0.206  10.729  20.447  0.00  0.00    +0.000 A 
ATOM      9  O   UNL     1       0.865   9.855  20.307  0.00  0.00    +0.000 OA
ATOM     10  C   UNL     1      -2.581  12.730  22.662  0.00  0.00    +0.000 C 
ATOM     11  O   UNL     1      -1.983  12.752  23.738  0.00  0.00    +0.000 OA
ATOM     12  C   UNL     1      -3.927  13.358  22.526  0.00  0.00    +0.000 A 
ATOM     13  C   UNL     1      -4.577  13.966  23.614  0.00  0.00    +0.000 A 
ATOM     14  C   UNL     1      -5.871  14.491  23.462  0.00  0.00    +0.000 A 
ATOM     15  C   UNL     1      -6.529  14.419  22.237  0.00  0.00    +0.000 A 
ATOM     16  C   UNL     1      -5.883  13.836  21.155  0.00  0.00    +0.000 A 
ATOM     17  C   UNL     1      -4.584  13.318  21.302  0.00  0.00    +0.000 A 
ATOM     18  C   UNL     1      -3.948  12.708  20.138  0.00  0.00    +0.000 C 
ATOM     19  O   UNL     1      -4.620  12.591  19.121  0.00  0.00    +0.000 OA
ENDROOT
BRANCH   1  21
ATOM     20  O   UNL     1       2.435   8.741  17.306  0.00  0.00    +0.000 OA
ATOM     21  C   UNL     1       1.889   8.577  18.399  0.00  0.00    +0.000 C 
ATOM     22  N   UNL     1       2.087   7.428  19.126  0.00  0.00    +0.000 N 
ATOM     23  H   UNL     1       1.500   7.316  19.948  0.00  0.00    +0.000 HD
BRANCH  22  24
ATOM     24  C   UNL     1       2.912   6.321  18.640  0.00  0.00    +0.000 C 
ATOM     25  C   UNL     1       2.126   5.294  17.772  0.00  0.00    +0.000 C 
ATOM     26  N   UNL     1       2.161   3.924  18.355  0.00  0.00    +0.000 NA
ATOM     27  C   UNL     1       3.566   3.470  18.435  0.00  0.00    +0.000 C 
ATOM     28  C   UNL     1       4.429   4.432  19.267  0.00  0.00    +0.000 C 
ATOM     29  C   UNL     1       3.548   5.566  19.825  0.00  0.00    +0.000 C 
ATOM     30  C   UNL     1       2.428   4.899  20.641  0.00  0.00    +0.000 C 
ATOM     31  C   UNL     1       1.606   3.979  19.725  0.00  0.00    +0.000 C 
ENDBRANCH  22  24
ENDBRANCH   1  21
BRANCH   4  32
ATOM     32  O   UNL     1      -2.495  11.896  17.850  0.00  0.00    +0.000 OA
ATOM     33  H   UNL     1      -1.779  11.992  17.199  0.00  0.00    +0.000 HD
ENDBRANCH   4  32
BRANCH   7  34
ATOM     34  O   UNL     1      -0.083  11.187  22.820  0.00  0.00    +0.000 OA
ATOM     35  H   UNL     1       0.244  12.070  23.108  0.00  0.00    +0.000 HD
ENDBRANCH   7  34
TORSDOF 4
ENDMDL
MODEL 6
REMARK VINA RESULT:      -8.5      2.590      3.863
REMARK  Name = 
REMARK  4 active torsions:
REMARK  status: ('A' for Active; 'I' for Inactive)
REMARK    1  A    between atoms: C_2  and  C_12
REMARK    2  A    between atoms: N_3  and  C_4
REMARK    3  A    between atoms: C_15  and  O_16
REMARK    4  A    between atoms: C_19  and  O_20
REMARK                            x       y       z     vdW  Elec       q    Type
REMARK                         _______ _______ _______ _____ _____    ______ ____
ROOT
ATOM      1  C   UNL     1       2.167   7.858  19.083  0.00  0.00    +0.000 A 
ATOM      2  C   UNL     1       1.289   7.861  20.144  0.00  0.00    +0.000 A 
ATOM      3  C   UNL     1       0.854   9.189  20.319  0.00  0.00    +0.000 A 
ATOM      4  C   UNL     1       0.108   9.832  21.315  0.00  0.00    +0.000 A 
ATOM      5  C   UNL     1      -0.135  11.211  21.222  0.00  0.00    +0.000 A 
ATOM      6  C   UNL     1       0.232  11.918  20.072  0.00  0.00    +0.000 A 
ATOM      7  C   UNL     1       0.978  11.278  19.039  0.00  0.00    +0.000 A 
ATOM      8  C   UNL     1       1.328   9.921  19.235  0.00  0.00    +0.000 A 
ATOM      9  O   UNL     1       2.154   9.103  18.475  0.00  0.00    +0.000 OA
ATOM     10  C   UNL     1      -0.170  13.352  19.966  0.00  0.00    +0.000 C 
ATOM     11  O   UNL     1       0.031  13.958  18.914  0.00  0.00    +0.000 OA
ATOM     12  C   UNL     1      -0.813  14.034  21.127  0.00  0.00    +0.000 A 
ATOM     13  C   UNL     1      -1.182  15.390  21.081  0.00  0.00    +0.000 A 
ATOM     14  C   UNL     1      -1.728  16.014  22.215  0.00  0.00    +0.000 A 
ATOM     15  C   UNL     1      -1.911  15.304  23.399  0.00  0.00    +0.000 A 
ATOM     16  C   UNL     1      -1.565  13.960  23.443  0.00  0.00    +0.000 A 
ATOM     17  C   UNL     1      -1.027  13.331  22.306  0.00  0.00    +0.000 A 
ATOM     18  C   UNL     1      -0.672  11.918  22.402  0.00  0.00    +0.000 C 
ATOM     19  O   UNL     1      -0.768  11.382  23.499  0.00  0.00    +0.000 OA
ENDROOT
BRANCH   1  21
ATOM     20  O   UNL     1       3.904   6.876  17.840  0.00  0.00    +0.000 OA
ATOM     21  C   UNL     1       3.009   6.747  18.677  0.00  0.00    +0.000 C 
ATOM     22  N   UNL     1       2.734   5.523  19.239  0.00  0.00    +0.000 N 
ATOM     23  H   UNL     1       1.900   5.478  19.818  0.00  0.00    +0.000 HD
BRANCH  22  24
ATOM     24  C   UNL     1       3.445   4.303  18.855  0.00  0.00    +0.000 C 
ATOM     25  C   UNL     1       2.857   3.612  17.590  0.00  0.00    +0.000 C 
ATOM     26  N   UNL     1       2.399   2.223  17.871  0.00  0.00    +0.000 NA
ATOM     27  C   UNL     1       3.552   1.420  18.331  0.00  0.00    +0.000 C 
ATOM     28  C   UNL     1       4.212   2.033  19.577  0.00  0.00    +0.000 C 
ATOM     29  C   UNL     1       3.429   3.286  20.014  0.00  0.00    +0.000 C 
ATOM     30  C   UNL     1       1.976   2.841  20.255  0.00  0.00    +0.000 C 
ATOM     31  C   UNL     1       1.393   2.267  18.954  0.00  0.00    +0.000 C 
ENDBRANCH  22  24
ENDBRANCH   1  21
BRANCH   4  32
ATOM     32  O   UNL     1      -0.351   9.106  22.375  0.00  0.00    +0.000 OA
ATOM     33  H   UNL     1       0.068   9.432  23.189  0.00  0.00    +0.000 HD
ENDBRANCH   4  32
BRANCH   7  34
ATOM     34  O   UNL     1       1.372  11.939  17.901  0.00  0.00    +0.000 OA
ATOM     35  H   UNL     1       0.713  11.758  17.192  0.00  0.00    +0.000 HD
ENDBRANCH   7  34
TORSDOF 4
ENDMDL
MODEL 7
REMARK VINA RESULT:      -8.4      2.045      2.905
REMARK  Name = 
REMARK  4 active torsions:
REMARK  status: ('A' for Active; 'I' for Inactive)
REMARK    1  A    between atoms: C_2  and  C_12
REMARK    2  A    between atoms: N_3  and  C_4
REMARK    3  A    between atoms: C_15  and  O_16
REMARK    4  A    between atoms: C_19  and  O_20
REMARK                            x       y       z     vdW  Elec       q    Type
REMARK                         _______ _______ _______ _____ _____    ______ ____
ROOT
ATOM      1  C   UNL     1       2.260   8.051  18.504  0.00  0.00    +0.000 A 
ATOM      2  C   UNL     1       1.310   8.130  19.498  0.00  0.00    +0.000 A 
ATOM      3  C   UNL     1       1.068   9.498  19.732  0.00  0.00    +0.000 A 
ATOM      4  C   UNL     1       0.350  10.192  20.714  0.00  0.00    +0.000 A 
ATOM      5  C   UNL     1       0.327  11.595  20.699  0.00  0.00    +0.000 A 
ATOM      6  C   UNL     1       0.887  12.300  19.628  0.00  0.00    +0.000 A 
ATOM      7  C   UNL     1       1.608  11.611  18.609  0.00  0.00    +0.000 A 
ATOM      8  C   UNL     1       1.733  10.208  18.736  0.00  0.00    +0.000 A 
ATOM      9  O   UNL     1       2.483   9.315  17.983  0.00  0.00    +0.000 OA
ATOM     10  C   UNL     1       0.715  13.783  19.592  0.00  0.00    +0.000 C 
ATOM     11  O   UNL     1       1.088  14.409  18.600  0.00  0.00    +0.000 OA
ATOM     12  C   UNL     1       0.092  14.490  20.749  0.00  0.00    +0.000 A 
ATOM     13  C   UNL     1      -0.064  15.887  20.769  0.00  0.00    +0.000 A 
ATOM     14  C   UNL     1      -0.598  16.523  21.901  0.00  0.00    +0.000 A 
ATOM     15  C   UNL     1      -0.981  15.784  23.019  0.00  0.00    +0.000 A 
ATOM     16  C   UNL     1      -0.846  14.403  22.995  0.00  0.00    +0.000 A 
ATOM     17  C   UNL     1      -0.320  13.763  21.859  0.00  0.00    +0.000 A 
ATOM     18  C   UNL     1      -0.190  12.309  21.884  0.00  0.00    +0.000 C 
ATOM     19  O   UNL     1      -0.454  11.733  22.932  0.00  0.00    +0.000 OA
ENDROOT
BRANCH   1  21
ATOM     20  O   UNL     1       2.373   5.769  17.948  0.00  0.00    +0.000 OA
ATOM     21  C   UNL     1       2.955   6.847  18.084  0.00  0.00    +0.000 C 
ATOM     22  N   UNL     1       4.311   6.951  17.886  0.00  0.00    +0.000 N 
ATOM     23  H   UNL     1       4.730   7.839  18.147  0.00  0.00    +0.000 HD
BRANCH  22  24
ATOM     24  C   UNL     1       5.148   5.799  17.548  0.00  0.00    +0.000 C 
ATOM     25  C   UNL     1       5.783   5.105  18.790  0.00  0.00    +0.000 C 
ATOM     26  N   UNL     1       7.271   5.109  18.734  0.00  0.00    +0.000 NA
ATOM     27  C   UNL     1       7.709   4.371  17.529  0.00  0.00    +0.000 C 
ATOM     28  C   UNL     1       7.120   4.977  16.246  0.00  0.00    +0.000 C 
ATOM     29  C   UNL     1       6.285   6.223  16.597  0.00  0.00    +0.000 C 
ATOM     30  C   UNL     1       7.219   7.188  17.348  0.00  0.00    +0.000 C 
ATOM     31  C   UNL     1       7.737   6.507  18.625  0.00  0.00    +0.000 C 
ENDBRANCH  22  24
ENDBRANCH   1  21
BRANCH   4  32
ATOM     32  O   UNL     1      -0.296   9.488  21.687  0.00  0.00    +0.000 OA
ATOM     33  H   UNL     1       0.286   8.779  22.008  0.00  0.00    +0.000 HD
ENDBRANCH   4  32
BRANCH   7  34
ATOM     34  O   UNL     1       2.187  12.266  17.549  0.00  0.00    +0.000 OA
ATOM     35  H   UNL     1       2.143  13.235  17.720  0.00  0.00    +0.000 HD
ENDBRANCH   7  34
TORSDOF 4
ENDMDL
MODEL 8
REMARK VINA RESULT:      -8.3      3.807     10.532
REMARK  Name = 
REMARK  4 active torsions:
REMARK  status: ('A' for Active; 'I' for Inactive)
REMARK    1  A    between atoms: C_2  and  C_12
REMARK    2  A    between atoms: N_3  and  C_4
REMARK    3  A    between atoms: C_15  and  O_16
REMARK    4  A    between atoms: C_19  and  O_20
REMARK                            x       y       z     vdW  Elec       q    Type
REMARK                         _______ _______ _______ _____ _____    ______ ____
ROOT
ATOM      1  C   UNL     1      -1.784  12.478  21.910  0.00  0.00    +0.000 A 
ATOM      2  C   UNL     1      -1.128  11.486  22.605  0.00  0.00    +0.000 A 
ATOM      3  C   UNL     1      -0.354  10.768  21.673  0.00  0.00    +0.000 A 
ATOM      4  C   UNL     1       0.378   9.577  21.746  0.00  0.00    +0.000 A 
ATOM      5  C   UNL     1       1.029   9.087  20.604  0.00  0.00    +0.000 A 
ATOM      6  C   UNL     1       1.079   9.854  19.435  0.00  0.00    +0.000 A 
ATOM      7  C   UNL     1       0.354  11.079  19.344  0.00  0.00    +0.000 A 
ATOM      8  C   UNL     1      -0.409  11.468  20.470  0.00  0.00    +0.000 A 
ATOM      9  O   UNL     1      -1.306  12.519  20.611  0.00  0.00    +0.000 OA
ATOM     10  C   UNL     1       1.899   9.350  18.294  0.00  0.00    +0.000 C 
ATOM     11  O   UNL     1       2.059  10.064  17.305  0.00  0.00    +0.000 OA
ATOM     12  C   UNL     1       2.518   7.994  18.362  0.00  0.00    +0.000 A 
ATOM     13  C   UNL     1       3.275   7.468  17.300  0.00  0.00    +0.000 A 
ATOM     14  C   UNL     1       3.790   6.164  17.375  0.00  0.00    +0.000 A 
ATOM     15  C   UNL     1       3.561   5.373  18.498  0.00  0.00    +0.000 A 
ATOM     16  C   UNL     1       2.830   5.895  19.557  0.00  0.00    +0.000 A 
ATOM     17  C   UNL     1       2.321   7.204  19.487  0.00  0.00    +0.000 A 
ATOM     18  C   UNL     1       1.553   7.707  20.623  0.00  0.00    +0.000 C 
ATOM     19  O   UNL     1       1.308   6.926  21.533  0.00  0.00    +0.000 OA
ENDROOT
BRANCH   1  21
ATOM     20  O   UNL     1      -2.730  14.553  22.479  0.00  0.00    +0.000 OA
ATOM     21  C   UNL     1      -2.840  13.327  22.431  0.00  0.00    +0.000 C 
ATOM     22  N   UNL     1      -3.961  12.696  22.915  0.00  0.00    +0.000 N 
ATOM     23  H   UNL     1      -3.915  11.682  22.960  0.00  0.00    +0.000 HD
BRANCH  22  24
ATOM     24  C   UNL     1      -5.062  13.423  23.549  0.00  0.00    +0.000 C 
ATOM     25  C   UNL     1      -5.967  12.526  24.444  0.00  0.00    +0.000 C 
ATOM     26  N   UNL     1      -7.383  12.518  23.982  0.00  0.00    +0.000 NA
ATOM     27  C   UNL     1      -7.914  13.898  24.038  0.00  0.00    +0.000 C 
ATOM     28  C   UNL     1      -7.075  14.866  23.189  0.00  0.00    +0.000 C 
ATOM     29  C   UNL     1      -5.950  14.090  22.479  0.00  0.00    +0.000 C 
ATOM     30  C   UNL     1      -6.627  12.987  21.646  0.00  0.00    +0.000 C 
ATOM     31  C   UNL     1      -7.420  12.057  22.578  0.00  0.00    +0.000 C 
ENDBRANCH  22  24
ENDBRANCH   1  21
BRANCH   4  32
ATOM     32  O   UNL     1       0.424   8.897  22.928  0.00  0.00    +0.000 OA
ATOM     33  H   UNL     1       1.281   8.444  23.002  0.00  0.00    +0.000 HD
ENDBRANCH   4  32
BRANCH   7  34
ATOM     34  O   UNL     1       0.363  11.855  18.210  0.00  0.00    +0.000 OA
ATOM     35  H   UNL     1      -0.007  11.324  17.468  0.00  0.00    +0.000 HD
ENDBRANCH   7  34
TORSDOF 4
ENDMDL
MODEL 9
REMARK VINA RESULT:      -8.0      3.258      4.248
REMARK  Name = 
REMARK  4 active torsions:
REMARK  status: ('A' for Active; 'I' for Inactive)
REMARK    1  A    between atoms: C_2  and  C_12
REMARK    2  A    between atoms: N_3  and  C_4
REMARK    3  A    between atoms: C_15  and  O_16
REMARK    4  A    between atoms: C_19  and  O_20
REMARK                            x       y       z     vdW  Elec       q    Type
REMARK                         _______ _______ _______ _____ _____    ______ ____
ROOT
ATOM      1  C   UNL     1       2.252   8.853  17.978  0.00  0.00    +0.000 A 
ATOM      2  C   UNL     1       0.917   9.101  18.206  0.00  0.00    +0.000 A 
ATOM      3  C   UNL     1       0.787  10.482  18.455  0.00  0.00    +0.000 A 
ATOM      4  C   UNL     1      -0.269  11.282  18.906  0.00  0.00    +0.000 A 
ATOM      5  C   UNL     1      -0.070  12.658  19.095  0.00  0.00    +0.000 A 
ATOM      6  C   UNL     1       1.127  13.261  18.695  0.00  0.00    +0.000 A 
ATOM      7  C   UNL     1       2.211  12.466  18.217  0.00  0.00    +0.000 A 
ATOM      8  C   UNL     1       2.021  11.064  18.177  0.00  0.00    +0.000 A 
ATOM      9  O   UNL     1       2.934  10.056  17.896  0.00  0.00    +0.000 OA
ATOM     10  C   UNL     1       1.237  14.747  18.790  0.00  0.00    +0.000 C 
ATOM     11  O   UNL     1       2.229  15.309  18.329  0.00  0.00    +0.000 OA
ATOM     12  C   UNL     1       0.147  15.534  19.437  0.00  0.00    +0.000 A 
ATOM     13  C   UNL     1       0.221  16.932  19.574  0.00  0.00    +0.000 A 
ATOM     14  C   UNL     1      -0.796  17.632  20.244  0.00  0.00    +0.000 A 
ATOM     15  C   UNL     1      -1.889  16.958  20.781  0.00  0.00    +0.000 A 
ATOM     16  C   UNL     1      -1.975  15.580  20.632  0.00  0.00    +0.000 A 
ATOM     17  C   UNL     1      -0.963  14.878  19.954  0.00  0.00    +0.000 A 
ATOM     18  C   UNL     1      -1.094  13.429  19.828  0.00  0.00    +0.000 C 
ATOM     19  O   UNL     1      -2.029  12.891  20.407  0.00  0.00    +0.000 OA
ENDROOT
BRANCH   1  21
ATOM     20  O   UNL     1       3.937   7.366  17.289  0.00  0.00    +0.000 OA
ATOM     21  C   UNL     1       2.870   7.543  17.879  0.00  0.00    +0.000 C 
ATOM     22  N   UNL     1       2.184   6.490  18.436  0.00  0.00    +0.000 N 
ATOM     23  H   UNL     1       1.254   6.701  18.785  0.00  0.00    +0.000 HD
BRANCH  22  24
ATOM     24  C   UNL     1       2.647   5.105  18.331  0.00  0.00    +0.000 C 
ATOM     25  C   UNL     1       1.536   4.110  17.882  0.00  0.00    +0.000 C 
ATOM     26  N   UNL     1       1.297   3.043  18.892  0.00  0.00    +0.000 NA
ATOM     27  C   UNL     1       2.545   2.273  19.084  0.00  0.00    +0.000 C 
ATOM     28  C   UNL     1       3.710   3.177  19.519  0.00  0.00    +0.000 C 
ATOM     29  C   UNL     1       3.209   4.624  19.684  0.00  0.00    +0.000 C 
ATOM     30  C   UNL     1       2.059   4.584  20.706  0.00  0.00    +0.000 C 
ATOM     31  C   UNL     1       0.935   3.680  20.176  0.00  0.00    +0.000 C 
ENDBRANCH  22  24
ENDBRANCH   1  21
BRANCH   4  32
ATOM     32  O   UNL     1      -1.474  10.701  19.177  0.00  0.00    +0.000 OA
ATOM     33  H   UNL     1      -1.649  10.009  18.519  0.00  0.00    +0.000 HD
ENDBRANCH   4  32
BRANCH   7  34
ATOM     34  O   UNL     1       3.409  13.015  17.829  0.00  0.00    +0.000 OA
ATOM     35  H   UNL     1       4.019  13.010  18.603  0.00  0.00    +0.000 HD
ENDBRANCH   7  34
TORSDOF 4
ENDMDL
