MODEL 1
REMARK VINA RESULT:      -7.4      0.000      0.000
REMARK  Name = 
REMARK  14 active torsions:
REMARK  status: ('A' for Active; 'I' for Inactive)
REMARK    1  A    between atoms: C_1  and  C_2
REMARK    2  A    between atoms: C_2  and  C_3
REMARK    3  A    between atoms: C_3  and  C_26
REMARK    4  A    between atoms: C_4  and  C_5
REMARK    5  A    between atoms: C_4  and  C_12
REMARK    6  A    between atoms: C_8  and  O_9
REMARK    7  A    between atoms: C_15  and  O_16
REMARK    8  A    between atoms: O_16  and  C_17
REMARK    9  A    between atoms: C_17  and  C_18
REMARK   10  A    between atoms: C_18  and  N_19
REMARK   11  A    between atoms: N_19  and  C_20
REMARK   12  A    between atoms: N_19  and  C_22
REMARK   13  A    between atoms: C_20  and  C_21
REMARK   14  A    between atoms: C_22  and  C_23
REMARK                            x       y       z     vdW  Elec       q    Type
REMARK                         _______ _______ _______ _____ _____    ______ ____
ROOT
ATOM      1  C   UNL     1       2.405   4.984  19.410  0.00  0.00    +0.000 C 
ATOM      2  C   UNL     1       2.949   6.125  18.885  0.00  0.00    +0.000 C 
ENDROOT
BRANCH   2   3
ATOM      3  C   UNL     1       2.340   7.444  19.148  0.00  0.00    +0.000 A 
ATOM      4  C   UNL     1       1.879   7.755  20.435  0.00  0.00    +0.000 A 
ATOM      5  C   UNL     1       1.157   8.930  20.659  0.00  0.00    +0.000 A 
ATOM      6  C   UNL     1       0.915   9.796  19.598  0.00  0.00    +0.000 A 
ATOM      7  C   UNL     1       1.442   9.544  18.335  0.00  0.00    +0.000 A 
ATOM      8  C   UNL     1       2.165   8.371  18.111  0.00  0.00    +0.000 A 
BRANCH   6   9
ATOM      9  O   UNL     1       0.131  10.900  19.752  0.00  0.00    +0.000 OA
ATOM     10  H   UNL     1       0.644  11.572  20.231  0.00  0.00    +0.000 HD
ENDBRANCH   6   9
ENDBRANCH   2   3
BRANCH   2  11
ATOM     11  C   UNL     1       4.138   6.023  17.995  0.00  0.00    +0.000 A 
ATOM     12  C   UNL     1       3.980   6.189  16.615  0.00  0.00    +0.000 A 
ATOM     13  C   UNL     1       5.056   5.998  15.748  0.00  0.00    +0.000 A 
ATOM     14  C   UNL     1       6.319   5.677  16.252  0.00  0.00    +0.000 A 
ATOM     15  C   UNL     1       6.488   5.515  17.629  0.00  0.00    +0.000 A 
ATOM     16  C   UNL     1       5.404   5.695  18.498  0.00  0.00    +0.000 A 
BRANCH  14  17
ATOM     17  O   UNL     1       7.446   5.500  15.485  0.00  0.00    +0.000 OA
BRANCH  17  18
ATOM     18  C   UNL     1       7.168   5.072  14.146  0.00  0.00    +0.000 C 
BRANCH  18  19
ATOM     19  C   UNL     1       6.391   3.747  14.147  0.00  0.00    +0.000 C 
BRANCH  19  20
ATOM     20  N   UNL     1       6.005   3.267  12.795  0.00  0.00    +0.000 NA
BRANCH  20  21
ATOM     21  C   UNL     1       4.845   3.973  12.224  0.00  0.00    +0.000 C 
ATOM     22  C   UNL     1       3.981   3.176  11.253  0.00  0.00    +0.000 C 
ENDBRANCH  20  21
BRANCH  20  23
ATOM     23  C   UNL     1       7.184   3.260  11.914  0.00  0.00    +0.000 C 
ATOM     24  C   UNL     1       7.375   1.957  11.140  0.00  0.00    +0.000 C 
ENDBRANCH  20  23
ENDBRANCH  19  20
ENDBRANCH  18  19
ENDBRANCH  17  18
ENDBRANCH  14  17
ENDBRANCH   2  11
BRANCH   1  25
ATOM     25  C   UNL     1       3.078   3.672  19.158  0.00  0.00    +0.000 A 
ATOM     26  C   UNL     1       3.879   3.092  20.153  0.00  0.00    +0.000 A 
ATOM     27  C   UNL     1       4.542   1.892  19.909  0.00  0.00    +0.000 A 
ATOM     28  C   UNL     1       4.410   1.259  18.675  0.00  0.00    +0.000 A 
ATOM     29  C   UNL     1       3.601   1.819  17.686  0.00  0.00    +0.000 A 
ATOM     30  C   UNL     1       2.933   3.022  17.927  0.00  0.00    +0.000 A 
ENDBRANCH   1  25
BRANCH   1  32
ATOM     31  C   UNL     1       0.564   3.367  20.488  0.00  0.00    +0.000 C 
ATOM     32  C   UNL     1       1.158   4.750  20.260  0.00  0.00    +0.000 C 
ENDBRANCH   1  32
TORSDOF 11
ENDMDL
MODEL 2
REMARK VINA RESULT:      -7.2      0.581      1.719
REMARK  Name = 
REMARK  14 active torsions:
REMARK  status: ('A' for Active; 'I' for Inactive)
REMARK    1  A    between atoms: C_1  and  C_2
REMARK    2  A    between atoms: C_2  and  C_3
REMARK    3  A    between atoms: C_3  and  C_26
REMARK    4  A    between atoms: C_4  and  C_5
REMARK    5  A    between atoms: C_4  and  C_12
REMARK    6  A    between atoms: C_8  and  O_9
REMARK    7  A    between atoms: C_15  and  O_16
REMARK    8  A    between atoms: O_16  and  C_17
REMARK    9  A    between atoms: C_17  and  C_18
REMARK   10  A    between atoms: C_18  and  N_19
REMARK   11  A    between atoms: N_19  and  C_20
REMARK   12  A    between atoms: N_19  and  C_22
REMARK   13  A    between atoms: C_20  and  C_21
REMARK   14  A    between atoms: C_22  and  C_23
REMARK                            x       y       z     vdW  Elec       q    Type
REMARK                         _______ _______ _______ _____ _____    ______ ____
ROOT
ATOM      1  C   UNL     1       2.601   4.927  19.451  0.00  0.00    +0.000 C 
ATOM      2  C   UNL     1       3.099   6.008  18.775  0.00  0.00    +0.000 C 
ENDROOT
BRANCH   2   3
ATOM      3  C   UNL     1       2.492   7.344  18.933  0.00  0.00    +0.000 A 
ATOM      4  C   UNL     1       1.919   7.710  20.159  0.00  0.00    +0.000 A 
ATOM      5  C   UNL     1       1.202   8.903  20.273  0.00  0.00    +0.000 A 
ATOM      6  C   UNL     1       1.075   9.732  19.164  0.00  0.00    +0.000 A 
ATOM      7  C   UNL     1       1.712   9.427  17.966  0.00  0.00    +0.000 A 
ATOM      8  C   UNL     1       2.432   8.235  17.852  0.00  0.00    +0.000 A 
BRANCH   6   9
ATOM      9  O   UNL     1       0.300  10.853  19.205  0.00  0.00    +0.000 OA
ATOM     10  H   UNL     1       0.351  11.289  18.339  0.00  0.00    +0.000 HD
ENDBRANCH   6   9
ENDBRANCH   2   3
BRANCH   2  11
ATOM     11  C   UNL     1       4.232   5.816  17.829  0.00  0.00    +0.000 A 
ATOM     12  C   UNL     1       5.545   5.958  18.292  0.00  0.00    +0.000 A 
ATOM     13  C   UNL     1       6.622   5.884  17.408  0.00  0.00    +0.000 A 
ATOM     14  C   UNL     1       6.405   5.627  16.052  0.00  0.00    +0.000 A 
ATOM     15  C   UNL     1       5.099   5.477  15.582  0.00  0.00    +0.000 A 
ATOM     16  C   UNL     1       4.016   5.563  16.468  0.00  0.00    +0.000 A 
BRANCH  14  17
ATOM     17  O   UNL     1       7.398   5.503  15.110  0.00  0.00    +0.000 OA
BRANCH  17  18
ATOM     18  C   UNL     1       7.279   4.326  14.301  0.00  0.00    +0.000 C 
BRANCH  18  19
ATOM     19  C   UNL     1       7.527   4.653  12.820  0.00  0.00    +0.000 C 
BRANCH  19  20
ATOM     20  N   UNL     1       6.786   3.782  11.873  0.00  0.00    +0.000 NA
BRANCH  20  21
ATOM     21  C   UNL     1       7.611   2.721  11.272  0.00  0.00    +0.000 C 
ATOM     22  C   UNL     1       6.972   1.339  11.179  0.00  0.00    +0.000 C 
ENDBRANCH  20  21
BRANCH  20  23
ATOM     23  C   UNL     1       5.557   3.284  12.512  0.00  0.00    +0.000 C 
ATOM     24  C   UNL     1       4.313   3.382  11.632  0.00  0.00    +0.000 C 
ENDBRANCH  20  23
ENDBRANCH  19  20
ENDBRANCH  18  19
ENDBRANCH  17  18
ENDBRANCH  14  17
ENDBRANCH   2  11
BRANCH   1  25
ATOM     25  C   UNL     1       3.272   3.598  19.300  0.00  0.00    +0.000 A 
ATOM     26  C   UNL     1       2.994   2.795  18.185  0.00  0.00    +0.000 A 
ATOM     27  C   UNL     1       3.584   1.540  18.060  0.00  0.00    +0.000 A 
ATOM     28  C   UNL     1       4.455   1.076  19.043  0.00  0.00    +0.000 A 
ATOM     29  C   UNL     1       4.752   1.876  20.147  0.00  0.00    +0.000 A 
ATOM     30  C   UNL     1       4.165   3.137  20.275  0.00  0.00    +0.000 A 
ENDBRANCH   1  25
BRANCH   1  32
ATOM     31  C   UNL     1       0.562   3.517  20.463  0.00  0.00    +0.000 C 
ATOM     32  C   UNL     1       1.411   4.780  20.397  0.00  0.00    +0.000 C 
ENDBRANCH   1  32
TORSDOF 11
ENDMDL
MODEL 3
REMARK VINA RESULT:      -7.0      0.715      1.912
REMARK  Name = 
REMARK  14 active torsions:
REMARK  status: ('A' for Active; 'I' for Inactive)
REMARK    1  A    between atoms: C_1  and  C_2
REMARK    2  A    between atoms: C_2  and  C_3
REMARK    3  A    between atoms: C_3  and  C_26
REMARK    4  A    between atoms: C_4  and  C_5
REMARK    5  A    between atoms: C_4  and  C_12
REMARK    6  A    between atoms: C_8  and  O_9
REMARK    7  A    between atoms: C_15  and  O_16
REMARK    8  A    between atoms: O_16  and  C_17
REMARK    9  A    between atoms: C_17  and  C_18
REMARK   10  A    between atoms: C_18  and  N_19
REMARK   11  A    between atoms: N_19  and  C_20
REMARK   12  A    between atoms: N_19  and  C_22
REMARK   13  A    between atoms: C_20  and  C_21
REMARK   14  A    between atoms: C_22  and  C_23
REMARK                            x       y       z     vdW  Elec       q    Type
REMARK                         _______ _______ _______ _____ _____    ______ ____
ROOT
ATOM      1  C   UNL     1       2.544   4.714  19.372  0.00  0.00    +0.000 C 
ATOM      2  C   UNL     1       3.055   5.783  18.688  0.00  0.00    +0.000 C 
ENDROOT
BRANCH   2   3
ATOM      3  C   UNL     1       2.412   7.109  18.766  0.00  0.00    +0.000 A 
ATOM      4  C   UNL     1       2.293   7.895  17.611  0.00  0.00    +0.000 A 
ATOM      5  C   UNL     1       1.837   9.213  17.700  0.00  0.00    +0.000 A 
ATOM      6  C   UNL     1       1.485   9.731  18.943  0.00  0.00    +0.000 A 
ATOM      7  C   UNL     1       1.513   8.936  20.083  0.00  0.00    +0.000 A 
ATOM      8  C   UNL     1       1.967   7.618  19.994  0.00  0.00    +0.000 A 
BRANCH   6   9
ATOM      9  O   UNL     1       1.131  11.040  19.087  0.00  0.00    +0.000 OA
ATOM     10  H   UNL     1       1.793  11.585  18.631  0.00  0.00    +0.000 HD
ENDBRANCH   6   9
ENDBRANCH   2   3
BRANCH   2  11
ATOM     11  C   UNL     1       4.244   5.586  17.813  0.00  0.00    +0.000 A 
ATOM     12  C   UNL     1       5.427   6.279  18.095  0.00  0.00    +0.000 A 
ATOM     13  C   UNL     1       6.522   6.192  17.235  0.00  0.00    +0.000 A 
ATOM     14  C   UNL     1       6.466   5.379  16.100  0.00  0.00    +0.000 A 
ATOM     15  C   UNL     1       5.292   4.680  15.815  0.00  0.00    +0.000 A 
ATOM     16  C   UNL     1       4.188   4.775  16.671  0.00  0.00    +0.000 A 
BRANCH  14  17
ATOM     17  O   UNL     1       7.500   5.203  15.212  0.00  0.00    +0.000 OA
BRANCH  17  18
ATOM     18  C   UNL     1       7.077   5.133  13.844  0.00  0.00    +0.000 C 
BRANCH  18  19
ATOM     19  C   UNL     1       6.359   3.804  13.562  0.00  0.00    +0.000 C 
BRANCH  19  20
ATOM     20  N   UNL     1       6.091   3.552  12.123  0.00  0.00    +0.000 NA
BRANCH  20  21
ATOM     21  C   UNL     1       7.166   2.815  11.438  0.00  0.00    +0.000 C 
ATOM     22  C   UNL     1       6.846   1.383  11.023  0.00  0.00    +0.000 C 
ENDBRANCH  20  21
BRANCH  20  23
ATOM     23  C   UNL     1       4.761   2.939  11.965  0.00  0.00    +0.000 C 
ATOM     24  C   UNL     1       3.909   3.574  10.868  0.00  0.00    +0.000 C 
ENDBRANCH  20  23
ENDBRANCH  19  20
ENDBRANCH  18  19
ENDBRANCH  17  18
ENDBRANCH  14  17
ENDBRANCH   2  11
BRANCH   1  25
ATOM     25  C   UNL     1       3.251   3.397  19.303  0.00  0.00    +0.000 A 
ATOM     26  C   UNL     1       2.887   2.454  18.330  0.00  0.00    +0.000 A 
ATOM     27  C   UNL     1       3.512   1.212  18.289  0.00  0.00    +0.000 A 
ATOM     28  C   UNL     1       4.506   0.898  19.213  0.00  0.00    +0.000 A 
ATOM     29  C   UNL     1       4.887   1.835  20.173  0.00  0.00    +0.000 A 
ATOM     30  C   UNL     1       4.264   3.085  20.218  0.00  0.00    +0.000 A 
ENDBRANCH   1  25
BRANCH   1  32
ATOM     31  C   UNL     1       0.973   3.287  21.005  0.00  0.00    +0.000 C 
ATOM     32  C   UNL     1       1.306   4.570  20.255  0.00  0.00    +0.000 C 
ENDBRANCH   1  32
TORSDOF 11
ENDMDL
MODEL 4
REMARK VINA RESULT:      -7.0      0.624      1.385
REMARK  Name = 
REMARK  14 active torsions:
REMARK  status: ('A' for Active; 'I' for Inactive)
REMARK    1  A    between atoms: C_1  and  C_2
REMARK    2  A    between atoms: C_2  and  C_3
REMARK    3  A    between atoms: C_3  and  C_26
REMARK    4  A    between atoms: C_4  and  C_5
REMARK    5  A    between atoms: C_4  and  C_12
REMARK    6  A    between atoms: C_8  and  O_9
REMARK    7  A    between atoms: C_15  and  O_16
REMARK    8  A    between atoms: O_16  and  C_17
REMARK    9  A    between atoms: C_17  and  C_18
REMARK   10  A    between atoms: C_18  and  N_19
REMARK   11  A    between atoms: N_19  and  C_20
REMARK   12  A    between atoms: N_19  and  C_22
REMARK   13  A    between atoms: C_20  and  C_21
REMARK   14  A    between atoms: C_22  and  C_23
REMARK                            x       y       z     vdW  Elec       q    Type
REMARK                         _______ _______ _______ _____ _____    ______ ____
ROOT
ATOM      1  C   UNL     1       2.260   4.783  19.650  0.00  0.00    +0.000 C 
ATOM      2  C   UNL     1       2.763   5.998  19.274  0.00  0.00    +0.000 C 
ENDROOT
BRANCH   2   3
ATOM      3  C   UNL     1       2.099   7.252  19.683  0.00  0.00    +0.000 A 
ATOM      4  C   UNL     1       1.878   8.264  18.739  0.00  0.00    +0.000 A 
ATOM      5  C   UNL     1       1.401   9.513  19.144  0.00  0.00    +0.000 A 
ATOM      6  C   UNL     1       1.132   9.737  20.490  0.00  0.00    +0.000 A 
ATOM      7  C   UNL     1       1.261   8.715  21.425  0.00  0.00    +0.000 A 
ATOM      8  C   UNL     1       1.736   7.466  21.020  0.00  0.00    +0.000 A 
BRANCH   6   9
ATOM      9  O   UNL     1       0.761  10.969  20.941  0.00  0.00    +0.000 OA
ATOM     10  H   UNL     1       1.494  11.333  21.464  0.00  0.00    +0.000 HD
ENDBRANCH   6   9
ENDBRANCH   2   3
BRANCH   2  11
ATOM     11  C   UNL     1       3.964   6.049  18.396  0.00  0.00    +0.000 A 
ATOM     12  C   UNL     1       3.823   6.439  17.060  0.00  0.00    +0.000 A 
ATOM     13  C   UNL     1       4.913   6.398  16.189  0.00  0.00    +0.000 A 
ATOM     14  C   UNL     1       6.171   6.004  16.652  0.00  0.00    +0.000 A 
ATOM     15  C   UNL     1       6.323   5.620  17.985  0.00  0.00    +0.000 A 
ATOM     16  C   UNL     1       5.226   5.650  18.857  0.00  0.00    +0.000 A 
BRANCH  14  17
ATOM     17  O   UNL     1       7.310   5.962  15.882  0.00  0.00    +0.000 OA
BRANCH  17  18
ATOM     18  C   UNL     1       7.409   4.786  15.069  0.00  0.00    +0.000 C 
BRANCH  18  19
ATOM     19  C   UNL     1       6.540   4.918  13.809  0.00  0.00    +0.000 C 
BRANCH  19  20
ATOM     20  N   UNL     1       6.313   3.638  13.090  0.00  0.00    +0.000 NA
BRANCH  20  21
ATOM     21  C   UNL     1       4.890   3.314  12.891  0.00  0.00    +0.000 C 
ATOM     22  C   UNL     1       4.329   3.563  11.495  0.00  0.00    +0.000 C 
ENDBRANCH  20  21
BRANCH  20  23
ATOM     23  C   UNL     1       7.103   3.618  11.848  0.00  0.00    +0.000 C 
ATOM     24  C   UNL     1       7.401   2.216  11.323  0.00  0.00    +0.000 C 
ENDBRANCH  20  23
ENDBRANCH  19  20
ENDBRANCH  18  19
ENDBRANCH  17  18
ENDBRANCH  14  17
ENDBRANCH   2  11
BRANCH   1  25
ATOM     25  C   UNL     1       2.987   3.537  19.253  0.00  0.00    +0.000 A 
ATOM     26  C   UNL     1       2.754   2.957  17.998  0.00  0.00    +0.000 A 
ATOM     27  C   UNL     1       3.396   1.775  17.640  0.00  0.00    +0.000 A 
ATOM     28  C   UNL     1       4.277   1.162  18.528  0.00  0.00    +0.000 A 
ATOM     29  C   UNL     1       4.530   1.741  19.772  0.00  0.00    +0.000 A 
ATOM     30  C   UNL     1       3.889   2.928  20.135  0.00  0.00    +0.000 A 
ENDBRANCH   1  25
BRANCH   1  32
ATOM     31  C   UNL     1       0.896   3.090  21.213  0.00  0.00    +0.000 C 
ATOM     32  C   UNL     1       1.014   4.400  20.447  0.00  0.00    +0.000 C 
ENDBRANCH   1  32
TORSDOF 11
ENDMDL
MODEL 5
REMARK VINA RESULT:      -6.9      0.752      1.601
REMARK  Name = 
REMARK  14 active torsions:
REMARK  status: ('A' for Active; 'I' for Inactive)
REMARK    1  A    between atoms: C_1  and  C_2
REMARK    2  A    between atoms: C_2  and  C_3
REMARK    3  A    between atoms: C_3  and  C_26
REMARK    4  A    between atoms: C_4  and  C_5
REMARK    5  A    between atoms: C_4  and  C_12
REMARK    6  A    between atoms: C_8  and  O_9
REMARK    7  A    between atoms: C_15  and  O_16
REMARK    8  A    between atoms: O_16  and  C_17
REMARK    9  A    between atoms: C_17  and  C_18
REMARK   10  A    between atoms: C_18  and  N_19
REMARK   11  A    between atoms: N_19  and  C_20
REMARK   12  A    between atoms: N_19  and  C_22
REMARK   13  A    between atoms: C_20  and  C_21
REMARK   14  A    between atoms: C_22  and  C_23
REMARK                            x       y       z     vdW  Elec       q    Type
REMARK                         _______ _______ _______ _____ _____    ______ ____
ROOT
ATOM      1  C   UNL     1       2.449   4.741  19.557  0.00  0.00    +0.000 C 
ATOM      2  C   UNL     1       2.881   5.820  18.834  0.00  0.00    +0.000 C 
ENDROOT
BRANCH   2   3
ATOM      3  C   UNL     1       2.236   7.139  18.986  0.00  0.00    +0.000 A 
ATOM      4  C   UNL     1       2.078   7.970  17.868  0.00  0.00    +0.000 A 
ATOM      5  C   UNL     1       1.620   9.281  18.024  0.00  0.00    +0.000 A 
ATOM      6  C   UNL     1       1.306   9.747  19.296  0.00  0.00    +0.000 A 
ATOM      7  C   UNL     1       1.373   8.908  20.402  0.00  0.00    +0.000 A 
ATOM      8  C   UNL     1       1.829   7.597  20.247  0.00  0.00    +0.000 A 
BRANCH   6   9
ATOM      9  O   UNL     1       0.953  11.048  19.504  0.00  0.00    +0.000 OA
ATOM     10  H   UNL     1       1.746  11.598  19.401  0.00  0.00    +0.000 HD
ENDBRANCH   6   9
ENDBRANCH   2   3
BRANCH   2  11
ATOM     11  C   UNL     1       3.980   5.642  17.846  0.00  0.00    +0.000 A 
ATOM     12  C   UNL     1       3.784   4.800  16.745  0.00  0.00    +0.000 A 
ATOM     13  C   UNL     1       4.830   4.535  15.859  0.00  0.00    +0.000 A 
ATOM     14  C   UNL     1       6.076   5.140  16.038  0.00  0.00    +0.000 A 
ATOM     15  C   UNL     1       6.278   5.987  17.130  0.00  0.00    +0.000 A 
ATOM     16  C   UNL     1       5.232   6.244  18.026  0.00  0.00    +0.000 A 
BRANCH  14  17
ATOM     17  O   UNL     1       7.156   4.969  15.204  0.00  0.00    +0.000 OA
BRANCH  17  18
ATOM     18  C   UNL     1       6.969   3.935  14.229  0.00  0.00    +0.000 C 
BRANCH  18  19
ATOM     19  C   UNL     1       6.924   4.524  12.811  0.00  0.00    +0.000 C 
BRANCH  19  20
ATOM     20  N   UNL     1       6.427   3.581  11.777  0.00  0.00    +0.000 NA
BRANCH  20  21
ATOM     21  C   UNL     1       7.374   2.502  11.452  0.00  0.00    +0.000 C 
ATOM     22  C   UNL     1       6.763   1.178  11.004  0.00  0.00    +0.000 C 
ENDBRANCH  20  21
BRANCH  20  23
ATOM     23  C   UNL     1       5.086   3.098  12.148  0.00  0.00    +0.000 C 
ATOM     24  C   UNL     1       3.977   3.554  11.202  0.00  0.00    +0.000 C 
ENDBRANCH  20  23
ENDBRANCH  19  20
ENDBRANCH  18  19
ENDBRANCH  17  18
ENDBRANCH  14  17
ENDBRANCH   2  11
BRANCH   1  25
ATOM     25  C   UNL     1       3.158   3.432  19.408  0.00  0.00    +0.000 A 
ATOM     26  C   UNL     1       4.288   3.153  20.191  0.00  0.00    +0.000 A 
ATOM     27  C   UNL     1       4.977   1.954  20.028  0.00  0.00    +0.000 A 
ATOM     28  C   UNL     1       4.544   1.023  19.087  0.00  0.00    +0.000 A 
ATOM     29  C   UNL     1       3.411   1.283  18.316  0.00  0.00    +0.000 A 
ATOM     30  C   UNL     1       2.715   2.484  18.478  0.00  0.00    +0.000 A 
ENDBRANCH   1  25
BRANCH   1  32
ATOM     31  C   UNL     1       1.029   3.271  21.286  0.00  0.00    +0.000 C 
ATOM     32  C   UNL     1       1.305   4.578  20.555  0.00  0.00    +0.000 C 
ENDBRANCH   1  32
TORSDOF 11
ENDMDL
MODEL 6
REMARK VINA RESULT:      -6.9      4.153      8.574
REMARK  Name = 
REMARK  14 active torsions:
REMARK  status: ('A' for Active; 'I' for Inactive)
REMARK    1  A    between atoms: C_1  and  C_2
REMARK    2  A    between atoms: C_2  and  C_3
REMARK    3  A    between atoms: C_3  and  C_26
REMARK    4  A    between atoms: C_4  and  C_5
REMARK    5  A    between atoms: C_4  and  C_12
REMARK    6  A    between atoms: C_8  and  O_9
REMARK    7  A    between atoms: C_15  and  O_16
REMARK    8  A    between atoms: O_16  and  C_17
REMARK    9  A    between atoms: C_17  and  C_18
REMARK   10  A    between atoms: C_18  and  N_19
REMARK   11  A    between atoms: N_19  and  C_20
REMARK   12  A    between atoms: N_19  and  C_22
REMARK   13  A    between atoms: C_20  and  C_21
REMARK   14  A    between atoms: C_22  and  C_23
REMARK                            x       y       z     vdW  Elec       q    Type
REMARK                         _______ _______ _______ _____ _____    ______ ____
ROOT
ATOM      1  C   UNL     1      -0.297  13.222  18.959  0.00  0.00    +0.000 C 
ATOM      2  C   UNL     1      -0.776  11.948  18.815  0.00  0.00    +0.000 C 
ENDROOT
BRANCH   2   3
ATOM      3  C   UNL     1      -2.178  11.706  18.422  0.00  0.00    +0.000 A 
ATOM      4  C   UNL     1      -2.471  11.258  17.126  0.00  0.00    +0.000 A 
ATOM      5  C   UNL     1      -3.796  11.181  16.691  0.00  0.00    +0.000 A 
ATOM      6  C   UNL     1      -4.822  11.537  17.560  0.00  0.00    +0.000 A 
ATOM      7  C   UNL     1      -4.552  11.899  18.876  0.00  0.00    +0.000 A 
ATOM      8  C   UNL     1      -3.227  11.973  19.312  0.00  0.00    +0.000 A 
BRANCH   6   9
ATOM      9  O   UNL     1      -6.120  11.573  17.144  0.00  0.00    +0.000 OA
ATOM     10  H   UNL     1      -6.157  12.065  16.307  0.00  0.00    +0.000 HD
ENDBRANCH   6   9
ENDBRANCH   2   3
BRANCH   2  11
ATOM     11  C   UNL     1       0.119  10.796  19.112  0.00  0.00    +0.000 A 
ATOM     12  C   UNL     1       0.874  10.228  18.079  0.00  0.00    +0.000 A 
ATOM     13  C   UNL     1       1.642   9.086  18.307  0.00  0.00    +0.000 A 
ATOM     14  C   UNL     1       1.700   8.517  19.582  0.00  0.00    +0.000 A 
ATOM     15  C   UNL     1       0.956   9.081  20.619  0.00  0.00    +0.000 A 
ATOM     16  C   UNL     1       0.175  10.221  20.389  0.00  0.00    +0.000 A 
BRANCH  14  17
ATOM     17  O   UNL     1       2.451   7.414  19.913  0.00  0.00    +0.000 OA
BRANCH  17  18
ATOM     18  C   UNL     1       1.665   6.275  20.284  0.00  0.00    +0.000 C 
BRANCH  18  19
ATOM     19  C   UNL     1       2.045   5.050  19.438  0.00  0.00    +0.000 C 
BRANCH  19  20
ATOM     20  N   UNL     1       1.137   3.887  19.610  0.00  0.00    +0.000 NA
BRANCH  20  21
ATOM     21  C   UNL     1       1.309   2.843  18.585  0.00  0.00    +0.000 C 
ATOM     22  C   UNL     1       2.422   3.072  17.568  0.00  0.00    +0.000 C 
ENDBRANCH  20  21
BRANCH  20  23
ATOM     23  C   UNL     1       1.231   3.382  20.989  0.00  0.00    +0.000 C 
ATOM     24  C   UNL     1       2.576   2.744  21.329  0.00  0.00    +0.000 C 
ENDBRANCH  20  23
ENDBRANCH  19  20
ENDBRANCH  18  19
ENDBRANCH  17  18
ENDBRANCH  14  17
ENDBRANCH   2  11
BRANCH   1  25
ATOM     25  C   UNL     1       1.142  13.426  19.314  0.00  0.00    +0.000 A 
ATOM     26  C   UNL     1       1.525  13.536  20.659  0.00  0.00    +0.000 A 
ATOM     27  C   UNL     1       2.856  13.768  20.993  0.00  0.00    +0.000 A 
ATOM     28  C   UNL     1       3.817  13.889  19.992  0.00  0.00    +0.000 A 
ATOM     29  C   UNL     1       3.449  13.763  18.652  0.00  0.00    +0.000 A 
ATOM     30  C   UNL     1       2.115  13.528  18.312  0.00  0.00    +0.000 A 
ENDBRANCH   1  25
BRANCH   1  32
ATOM     31  C   UNL     1      -0.199  15.894  18.808  0.00  0.00    +0.000 C 
ATOM     32  C   UNL     1      -0.976  14.584  18.828  0.00  0.00    +0.000 C 
ENDBRANCH   1  32
TORSDOF 11
ENDMDL
MODEL 7
REMARK VINA RESULT:      -6.8      4.043      8.385
REMARK  Name = 
REMARK  14 active torsions:
REMARK  status: ('A' for Active; 'I' for Inactive)
REMARK    1  A    between atoms: C_1  and  C_2
REMARK    2  A    between atoms: C_2  and  C_3
REMARK    3  A    between atoms: C_3  and  C_26
REMARK    4  A    between atoms: C_4  and  C_5
REMARK    5  A    between atoms: C_4  and  C_12
REMARK    6  A    between atoms: C_8  and  O_9
REMARK    7  A    between atoms: C_15  and  O_16
REMARK    8  A    between atoms: O_16  and  C_17
REMARK    9  A    between atoms: C_17  and  C_18
REMARK   10  A    between atoms: C_18  and  N_19
REMARK   11  A    between atoms: N_19  and  C_20
REMARK   12  A    between atoms: N_19  and  C_22
REMARK   13  A    between atoms: C_20  and  C_21
REMARK   14  A    between atoms: C_22  and  C_23
REMARK                            x       y       z     vdW  Elec       q    Type
REMARK                         _______ _______ _______ _____ _____    ______ ____
ROOT
ATOM      1  C   UNL     1      -0.379  13.314  19.059  0.00  0.00    +0.000 C 
ATOM      2  C   UNL     1      -0.849  12.044  18.862  0.00  0.00    +0.000 C 
ENDROOT
BRANCH   2   3
ATOM      3  C   UNL     1      -2.254  11.808  18.476  0.00  0.00    +0.000 A 
ATOM      4  C   UNL     1      -2.554  11.345  17.187  0.00  0.00    +0.000 A 
ATOM      5  C   UNL     1      -3.881  11.273  16.756  0.00  0.00    +0.000 A 
ATOM      6  C   UNL     1      -4.902  11.648  17.624  0.00  0.00    +0.000 A 
ATOM      7  C   UNL     1      -4.625  12.024  18.934  0.00  0.00    +0.000 A 
ATOM      8  C   UNL     1      -3.299  12.094  19.366  0.00  0.00    +0.000 A 
BRANCH   6   9
ATOM      9  O   UNL     1      -6.201  11.688  17.211  0.00  0.00    +0.000 OA
ATOM     10  H   UNL     1      -6.319  11.019  16.516  0.00  0.00    +0.000 HD
ENDBRANCH   6   9
ENDBRANCH   2   3
BRANCH   2  11
ATOM     11  C   UNL     1       0.059  10.887  19.094  0.00  0.00    +0.000 A 
ATOM     12  C   UNL     1       0.778  10.351  18.020  0.00  0.00    +0.000 A 
ATOM     13  C   UNL     1       1.558   9.206  18.188  0.00  0.00    +0.000 A 
ATOM     14  C   UNL     1       1.663   8.602  19.443  0.00  0.00    +0.000 A 
ATOM     15  C   UNL     1       0.954   9.134  20.522  0.00  0.00    +0.000 A 
ATOM     16  C   UNL     1       0.162  10.277  20.352  0.00  0.00    +0.000 A 
BRANCH  14  17
ATOM     17  O   UNL     1       2.428   7.493  19.716  0.00  0.00    +0.000 OA
BRANCH  17  18
ATOM     18  C   UNL     1       2.907   6.824  18.543  0.00  0.00    +0.000 C 
BRANCH  18  19
ATOM     19  C   UNL     1       2.330   5.403  18.451  0.00  0.00    +0.000 C 
BRANCH  19  20
ATOM     20  N   UNL     1       3.099   4.383  19.207  0.00  0.00    +0.000 NA
BRANCH  20  21
ATOM     21  C   UNL     1       2.474   3.993  20.482  0.00  0.00    +0.000 C 
ATOM     22  C   UNL     1       1.059   3.430  20.397  0.00  0.00    +0.000 C 
ENDBRANCH  20  21
BRANCH  20  23
ATOM     23  C   UNL     1       3.412   3.243  18.330  0.00  0.00    +0.000 C 
ATOM     24  C   UNL     1       4.235   3.613  17.098  0.00  0.00    +0.000 C 
ENDBRANCH  20  23
ENDBRANCH  19  20
ENDBRANCH  18  19
ENDBRANCH  17  18
ENDBRANCH  14  17
ENDBRANCH   2  11
BRANCH   1  25
ATOM     25  C   UNL     1       1.063  13.514  19.405  0.00  0.00    +0.000 A 
ATOM     26  C   UNL     1       1.454  13.625  20.747  0.00  0.00    +0.000 A 
ATOM     27  C   UNL     1       2.787  13.853  21.073  0.00  0.00    +0.000 A 
ATOM     28  C   UNL     1       3.743  13.970  20.066  0.00  0.00    +0.000 A 
ATOM     29  C   UNL     1       3.366  13.843  18.729  0.00  0.00    +0.000 A 
ATOM     30  C   UNL     1       2.030  13.612  18.397  0.00  0.00    +0.000 A 
ENDBRANCH   1  25
BRANCH   1  32
ATOM     31  C   UNL     1      -0.326  15.964  18.683  0.00  0.00    +0.000 C 
ATOM     32  C   UNL     1      -1.071  14.674  18.999  0.00  0.00    +0.000 C 
ENDBRANCH   1  32
TORSDOF 11
ENDMDL
MODEL 8
REMARK VINA RESULT:      -6.8      2.958      7.970
REMARK  Name = 
REMARK  14 active torsions:
REMARK  status: ('A' for Active; 'I' for Inactive)
REMARK    1  A    between atoms: C_1  and  C_2
REMARK    2  A    between atoms: C_2  and  C_3
REMARK    3  A    between atoms: C_3  and  C_26
REMARK    4  A    between atoms: C_4  and  C_5
REMARK    5  A    between atoms: C_4  and  C_12
REMARK    6  A    between atoms: C_8  and  O_9
REMARK    7  A    between atoms: C_15  and  O_16
REMARK    8  A    between atoms: O_16  and  C_17
REMARK    9  A    between atoms: C_17  and  C_18
REMARK   10  A    between atoms: C_18  and  N_19
REMARK   11  A    between atoms: N_19  and  C_20
REMARK   12  A    between atoms: N_19  and  C_22
REMARK   13  A    between atoms: C_20  and  C_21
REMARK   14  A    between atoms: C_22  and  C_23
REMARK                            x       y       z     vdW  Elec       q    Type
REMARK                         _______ _______ _______ _____ _____    ______ ____
ROOT
ATOM      1  C   UNL     1       3.836   3.729  18.359  0.00  0.00    +0.000 C 
ATOM      2  C   UNL     1       3.997   4.987  17.845  0.00  0.00    +0.000 C 
ENDROOT
BRANCH   2   3
ATOM      3  C   UNL     1       5.016   5.257  16.811  0.00  0.00    +0.000 A 
ATOM      4  C   UNL     1       4.857   4.731  15.522  0.00  0.00    +0.000 A 
ATOM      5  C   UNL     1       5.887   4.841  14.584  0.00  0.00    +0.000 A 
ATOM      6  C   UNL     1       7.064   5.493  14.937  0.00  0.00    +0.000 A 
ATOM      7  C   UNL     1       7.202   6.098  16.182  0.00  0.00    +0.000 A 
ATOM      8  C   UNL     1       6.171   5.989  17.119  0.00  0.00    +0.000 A 
BRANCH   6   9
ATOM      9  O   UNL     1       8.130   5.535  14.088  0.00  0.00    +0.000 OA
ATOM     10  H   UNL     1       8.291   4.635  13.758  0.00  0.00    +0.000 HD
ENDBRANCH   6   9
ENDBRANCH   2   3
BRANCH   2  11
ATOM     11  C   UNL     1       3.168   6.103  18.377  0.00  0.00    +0.000 A 
ATOM     12  C   UNL     1       2.695   7.087  17.501  0.00  0.00    +0.000 A 
ATOM     13  C   UNL     1       2.002   8.196  17.986  0.00  0.00    +0.000 A 
ATOM     14  C   UNL     1       1.737   8.321  19.352  0.00  0.00    +0.000 A 
ATOM     15  C   UNL     1       2.200   7.341  20.233  0.00  0.00    +0.000 A 
ATOM     16  C   UNL     1       2.905   6.232  19.747  0.00  0.00    +0.000 A 
BRANCH  14  17
ATOM     17  O   UNL     1       1.037   9.357  19.922  0.00  0.00    +0.000 OA
BRANCH  17  18
ATOM     18  C   UNL     1       1.091  10.572  19.163  0.00  0.00    +0.000 C 
BRANCH  18  19
ATOM     19  C   UNL     1       0.604  11.763  20.003  0.00  0.00    +0.000 C 
BRANCH  19  20
ATOM     20  N   UNL     1      -0.721  11.556  20.642  0.00  0.00    +0.000 NA
BRANCH  20  21
ATOM     21  C   UNL     1      -0.702  11.700  22.107  0.00  0.00    +0.000 C 
ATOM     22  C   UNL     1      -0.745  10.407  22.914  0.00  0.00    +0.000 C 
ENDBRANCH  20  21
BRANCH  20  23
ATOM     23  C   UNL     1      -1.730  12.397  19.978  0.00  0.00    +0.000 C 
ATOM     24  C   UNL     1      -2.502  11.686  18.868  0.00  0.00    +0.000 C 
ENDBRANCH  20  23
ENDBRANCH  19  20
ENDBRANCH  18  19
ENDBRANCH  17  18
ENDBRANCH  14  17
ENDBRANCH   2  11
BRANCH   1  25
ATOM     25  C   UNL     1       2.762   3.487  19.372  0.00  0.00    +0.000 A 
ATOM     26  C   UNL     1       3.097   3.308  20.722  0.00  0.00    +0.000 A 
ATOM     27  C   UNL     1       2.106   3.040  21.662  0.00  0.00    +0.000 A 
ATOM     28  C   UNL     1       0.774   2.951  21.266  0.00  0.00    +0.000 A 
ATOM     29  C   UNL     1       0.428   3.145  19.929  0.00  0.00    +0.000 A 
ATOM     30  C   UNL     1       1.419   3.416  18.982  0.00  0.00    +0.000 A 
ENDBRANCH   1  25
BRANCH   1  32
ATOM     31  C   UNL     1       3.937   1.055  18.287  0.00  0.00    +0.000 C 
ATOM     32  C   UNL     1       4.582   2.422  18.100  0.00  0.00    +0.000 C 
ENDBRANCH   1  32
TORSDOF 11
ENDMDL
MODEL 9
REMARK VINA RESULT:      -6.8      4.762      9.246
REMARK  Name = 
REMARK  14 active torsions:
REMARK  status: ('A' for Active; 'I' for Inactive)
REMARK    1  A    between atoms: C_1  and  C_2
REMARK    2  A    between atoms: C_2  and  C_3
REMARK    3  A    between atoms: C_3  and  C_26
REMARK    4  A    between atoms: C_4  and  C_5
REMARK    5  A    between atoms: C_4  and  C_12
REMARK    6  A    between atoms: C_8  and  O_9
REMARK    7  A    between atoms: C_15  and  O_16
REMARK    8  A    between atoms: O_16  and  C_17
REMARK    9  A    between atoms: C_17  and  C_18
REMARK   10  A    between atoms: C_18  and  N_19
REMARK   11  A    between atoms: N_19  and  C_20
REMARK   12  A    between atoms: N_19  and  C_22
REMARK   13  A    between atoms: C_20  and  C_21
REMARK   14  A    between atoms: C_22  and  C_23
REMARK                            x       y       z     vdW  Elec       q    Type
REMARK                         _______ _______ _______ _____ _____    ______ ____
ROOT
ATOM      1  C   UNL     1      -1.130  13.774  21.331  0.00  0.00    +0.000 C 
ATOM      2  C   UNL     1      -1.730  12.620  21.758  0.00  0.00    +0.000 C 
ENDROOT
BRANCH   2   3
ATOM      3  C   UNL     1      -3.043  12.653  22.431  0.00  0.00    +0.000 A 
ATOM      4  C   UNL     1      -4.212  12.802  21.672  0.00  0.00    +0.000 A 
ATOM      5  C   UNL     1      -5.442  12.998  22.304  0.00  0.00    +0.000 A 
ATOM      6  C   UNL     1      -5.498  13.026  23.694  0.00  0.00    +0.000 A 
ATOM      7  C   UNL     1      -4.362  12.791  24.461  0.00  0.00    +0.000 A 
ATOM      8  C   UNL     1      -3.133  12.593  23.829  0.00  0.00    +0.000 A 
BRANCH   6   9
ATOM      9  O   UNL     1      -6.660  13.314  24.348  0.00  0.00    +0.000 OA
ATOM     10  H   UNL     1      -6.449  13.891  25.100  0.00  0.00    +0.000 HD
ENDBRANCH   6   9
ENDBRANCH   2   3
BRANCH   2  11
ATOM     11  C   UNL     1      -1.018  11.324  21.586  0.00  0.00    +0.000 A 
ATOM     12  C   UNL     1      -0.412  10.720  22.693  0.00  0.00    +0.000 A 
ATOM     13  C   UNL     1       0.347   9.559  22.542  0.00  0.00    +0.000 A 
ATOM     14  C   UNL     1       0.478   8.960  21.287  0.00  0.00    +0.000 A 
ATOM     15  C   UNL     1      -0.129   9.552  20.178  0.00  0.00    +0.000 A 
ATOM     16  C   UNL     1      -0.881  10.724  20.327  0.00  0.00    +0.000 A 
BRANCH  14  17
ATOM     17  O   UNL     1       1.175   7.801  21.042  0.00  0.00    +0.000 OA
BRANCH  17  18
ATOM     18  C   UNL     1       2.014   7.870  19.882  0.00  0.00    +0.000 C 
BRANCH  18  19
ATOM     19  C   UNL     1       2.540   6.477  19.504  0.00  0.00    +0.000 C 
BRANCH  19  20
ATOM     20  N   UNL     1       2.738   6.276  18.046  0.00  0.00    +0.000 NA
BRANCH  20  21
ATOM     21  C   UNL     1       3.842   7.070  17.481  0.00  0.00    +0.000 C 
ATOM     22  C   UNL     1       4.959   6.286  16.800  0.00  0.00    +0.000 C 
ENDBRANCH  20  21
BRANCH  20  23
ATOM     23  C   UNL     1       2.833   4.837  17.750  0.00  0.00    +0.000 C 
ATOM     24  C   UNL     1       1.547   4.059  18.020  0.00  0.00    +0.000 C 
ENDBRANCH  20  23
ENDBRANCH  19  20
ENDBRANCH  18  19
ENDBRANCH  17  18
ENDBRANCH  14  17
ENDBRANCH   2  11
BRANCH   1  25
ATOM     25  C   UNL     1       0.179  13.694  20.612  0.00  0.00    +0.000 A 
ATOM     26  C   UNL     1       0.207  13.572  19.216  0.00  0.00    +0.000 A 
ATOM     27  C   UNL     1       1.421  13.455  18.545  0.00  0.00    +0.000 A 
ATOM     28  C   UNL     1       2.617  13.461  19.259  0.00  0.00    +0.000 A 
ATOM     29  C   UNL     1       2.600  13.601  20.647  0.00  0.00    +0.000 A 
ATOM     30  C   UNL     1       1.385  13.721  21.324  0.00  0.00    +0.000 A 
ENDBRANCH   1  25
BRANCH   1  32
ATOM     31  C   UNL     1      -1.944  16.081  20.242  0.00  0.00    +0.000 C 
ATOM     32  C   UNL     1      -1.547  15.239  21.447  0.00  0.00    +0.000 C 
ENDBRANCH   1  32
TORSDOF 11
ENDMDL
