MODEL 1
REMARK VINA RESULT:      -9.5      0.000      0.000
REMARK  Name = 
REMARK  4 active torsions:
REMARK  status: ('A' for Active; 'I' for Inactive)
REMARK    1  A    between atoms: N_15  and  C_16
REMARK    2  A    between atoms: C_20  and  C_21
REMARK    3  A    between atoms: C_23  and  C_24
REMARK    4  A    between atoms: C_24  and  O_25
REMARK                            x       y       z     vdW  Elec       q    Type
REMARK                         _______ _______ _______ _____ _____    ______ ____
ROOT
ATOM      1  C   UNL     1       0.913   9.276  20.008  0.00  0.00    +0.000 A 
ATOM      2  C   UNL     1       0.933   9.135  21.392  0.00  0.00    +0.000 A 
ATOM      3  C   UNL     1       0.226  10.055  22.177  0.00  0.00    +0.000 A 
ATOM      4  F   UNL     1       0.311   9.903  23.509  0.00  0.00    +0.000 F 
ATOM      5  C   UNL     1      -0.513  11.124  21.629  0.00  0.00    +0.000 A 
ATOM      6  C   UNL     1      -0.556  11.179  20.230  0.00  0.00    +0.000 A 
ATOM      7  F   UNL     1      -1.171  12.183  19.588  0.00  0.00    +0.000 F 
ATOM      8  C   UNL     1       0.094  10.245  19.433  0.00  0.00    +0.000 A 
ENDROOT
BRANCH   1  23
ATOM      9  O   UNL     1       4.602   5.522  17.274  0.00  0.00    +0.000 OA
ATOM     10  C   UNL     1       3.807   5.751  18.178  0.00  0.00    +0.000 C 
ATOM     11  C   UNL     1       3.486   4.704  19.205  0.00  0.00    +0.000 A 
ATOM     12  C   UNL     1       4.110   3.451  19.144  0.00  0.00    +0.000 A 
ATOM     13  C   UNL     1       3.806   2.467  20.091  0.00  0.00    +0.000 A 
ATOM     14  C   UNL     1       2.894   2.721  21.115  0.00  0.00    +0.000 A 
ATOM     15  C   UNL     1       2.264   3.959  21.186  0.00  0.00    +0.000 A 
ATOM     16  C   UNL     1       2.555   4.946  20.230  0.00  0.00    +0.000 A 
ATOM     17  C   UNL     1       1.817   6.227  20.309  0.00  0.00    +0.000 C 
ATOM     18  O   UNL     1       0.889   6.324  21.102  0.00  0.00    +0.000 OA
ATOM     19  C   UNL     1       2.227   7.231  19.381  0.00  0.00    +0.000 A 
ATOM     20  C   UNL     1       3.109   7.010  18.351  0.00  0.00    +0.000 A 
ATOM     21  N   UNL     1       3.129   8.097  17.530  0.00  0.00    +0.000 NA
ATOM     22  N   UNL     1       2.265   8.988  18.015  0.00  0.00    +0.000 NA
ATOM     23  N   UNL     1       1.785   8.520  19.194  0.00  0.00    +0.000 N 
ENDBRANCH   1  23
BRANCH   5  24
ATOM     24  C   UNL     1      -1.204  12.133  22.469  0.00  0.00    +0.000 A 
ATOM     25  C   UNL     1      -2.465  11.867  23.040  0.00  0.00    +0.000 A 
ATOM     26  C   UNL     1      -3.173  12.837  23.769  0.00  0.00    +0.000 A 
ATOM     27  C   UNL     1      -2.574  14.077  24.015  0.00  0.00    +0.000 A 
ATOM     28  C   UNL     1      -1.312  14.355  23.500  0.00  0.00    +0.000 A 
ATOM     29  C   UNL     1      -0.659  13.406  22.717  0.00  0.00    +0.000 A 
ATOM     30  F   UNL     1       0.504  13.779  22.160  0.00  0.00    +0.000 F 
BRANCH  26  31
ATOM     31  C   UNL     1      -4.590  12.579  24.208  0.00  0.00    +0.000 C 
BRANCH  31  32
ATOM     32  O   UNL     1      -4.640  12.268  25.591  0.00  0.00    +0.000 OA
ATOM     33  H   UNL     1      -5.558  12.017  25.787  0.00  0.00    +0.000 HD
ENDBRANCH  31  32
ENDBRANCH  26  31
ENDBRANCH   5  24
TORSDOF 4
ENDMDL
MODEL 2
REMARK VINA RESULT:      -9.4      3.466      9.310
REMARK  Name = 
REMARK  4 active torsions:
REMARK  status: ('A' for Active; 'I' for Inactive)
REMARK    1  A    between atoms: N_15  and  C_16
REMARK    2  A    between atoms: C_20  and  C_21
REMARK    3  A    between atoms: C_23  and  C_24
REMARK    4  A    between atoms: C_24  and  O_25
REMARK                            x       y       z     vdW  Elec       q    Type
REMARK                         _______ _______ _______ _____ _____    ______ ____
ROOT
ATOM      1  C   UNL     1       1.116   9.313  20.013  0.00  0.00    +0.000 A 
ATOM      2  C   UNL     1       1.314   8.152  20.754  0.00  0.00    +0.000 A 
ATOM      3  C   UNL     1       2.020   7.090  20.174  0.00  0.00    +0.000 A 
ATOM      4  F   UNL     1       2.147   5.975  20.911  0.00  0.00    +0.000 F 
ATOM      5  C   UNL     1       2.546   7.141  18.865  0.00  0.00    +0.000 A 
ATOM      6  C   UNL     1       2.378   8.357  18.191  0.00  0.00    +0.000 A 
ATOM      7  F   UNL     1       2.776   8.512  16.920  0.00  0.00    +0.000 F 
ATOM      8  C   UNL     1       1.729   9.440  18.769  0.00  0.00    +0.000 A 
ENDROOT
BRANCH   1  23
ATOM      9  O   UNL     1      -2.996  13.449  21.091  0.00  0.00    +0.000 OA
ATOM     10  C   UNL     1      -2.583  12.524  20.402  0.00  0.00    +0.000 C 
ATOM     11  C   UNL     1      -3.337  12.078  19.182  0.00  0.00    +0.000 A 
ATOM     12  C   UNL     1      -4.520  12.732  18.813  0.00  0.00    +0.000 A 
ATOM     13  C   UNL     1      -5.233  12.314  17.685  0.00  0.00    +0.000 A 
ATOM     14  C   UNL     1      -4.772  11.255  16.903  0.00  0.00    +0.000 A 
ATOM     15  C   UNL     1      -3.601  10.594  17.258  0.00  0.00    +0.000 A 
ATOM     16  C   UNL     1      -2.888  11.000  18.398  0.00  0.00    +0.000 A 
ATOM     17  C   UNL     1      -1.680  10.230  18.773  0.00  0.00    +0.000 C 
ATOM     18  O   UNL     1      -1.433   9.194  18.171  0.00  0.00    +0.000 OA
ATOM     19  C   UNL     1      -0.937  10.750  19.874  0.00  0.00    +0.000 A 
ATOM     20  C   UNL     1      -1.369  11.780  20.674  0.00  0.00    +0.000 A 
ATOM     21  N   UNL     1      -0.541  11.897  21.751  0.00  0.00    +0.000 NA
ATOM     22  N   UNL     1       0.391  10.951  21.649  0.00  0.00    +0.000 NA
ATOM     23  N   UNL     1       0.226  10.312  20.464  0.00  0.00    +0.000 N 
ENDBRANCH   1  23
BRANCH   5  24
ATOM     24  C   UNL     1       3.233   5.989  18.234  0.00  0.00    +0.000 A 
ATOM     25  C   UNL     1       4.633   5.976  18.065  0.00  0.00    +0.000 A 
ATOM     26  C   UNL     1       5.294   4.934  17.395  0.00  0.00    +0.000 A 
ATOM     27  C   UNL     1       4.557   3.827  16.960  0.00  0.00    +0.000 A 
ATOM     28  C   UNL     1       3.180   3.791  17.149  0.00  0.00    +0.000 A 
ATOM     29  C   UNL     1       2.534   4.869  17.749  0.00  0.00    +0.000 A 
ATOM     30  F   UNL     1       1.193   4.818  17.800  0.00  0.00    +0.000 F 
BRANCH  26  31
ATOM     31  C   UNL     1       6.761   5.041  17.075  0.00  0.00    +0.000 C 
BRANCH  31  32
ATOM     32  O   UNL     1       7.522   4.178  17.905  0.00  0.00    +0.000 OA
ATOM     33  H   UNL     1       7.350   4.450  18.822  0.00  0.00    +0.000 HD
ENDBRANCH  31  32
ENDBRANCH  26  31
ENDBRANCH   5  24
TORSDOF 4
ENDMDL
MODEL 3
REMARK VINA RESULT:      -9.2      3.520      9.131
REMARK  Name = 
REMARK  4 active torsions:
REMARK  status: ('A' for Active; 'I' for Inactive)
REMARK    1  A    between atoms: N_15  and  C_16
REMARK    2  A    between atoms: C_20  and  C_21
REMARK    3  A    between atoms: C_23  and  C_24
REMARK    4  A    between atoms: C_24  and  O_25
REMARK                            x       y       z     vdW  Elec       q    Type
REMARK                         _______ _______ _______ _____ _____    ______ ____
ROOT
ATOM      1  C   UNL     1       1.008   9.586  19.992  0.00  0.00    +0.000 A 
ATOM      2  C   UNL     1       1.235   8.431  20.734  0.00  0.00    +0.000 A 
ATOM      3  C   UNL     1       1.882   7.350  20.122  0.00  0.00    +0.000 A 
ATOM      4  F   UNL     1       2.039   6.242  20.865  0.00  0.00    +0.000 F 
ATOM      5  C   UNL     1       2.321   7.376  18.781  0.00  0.00    +0.000 A 
ATOM      6  C   UNL     1       2.129   8.585  18.103  0.00  0.00    +0.000 A 
ATOM      7  F   UNL     1       2.443   8.718  16.806  0.00  0.00    +0.000 F 
ATOM      8  C   UNL     1       1.538   9.688  18.708  0.00  0.00    +0.000 A 
ENDROOT
BRANCH   1  23
ATOM      9  O   UNL     1      -2.972  13.785  21.300  0.00  0.00    +0.000 OA
ATOM     10  C   UNL     1      -2.629  12.833  20.609  0.00  0.00    +0.000 C 
ATOM     11  C   UNL     1      -3.495  12.348  19.482  0.00  0.00    +0.000 A 
ATOM     12  C   UNL     1      -4.706  12.996  19.202  0.00  0.00    +0.000 A 
ATOM     13  C   UNL     1      -5.522  12.542  18.161  0.00  0.00    +0.000 A 
ATOM     14  C   UNL     1      -5.140  11.453  17.378  0.00  0.00    +0.000 A 
ATOM     15  C   UNL     1      -3.943  10.798  17.646  0.00  0.00    +0.000 A 
ATOM     16  C   UNL     1      -3.125  11.240  18.699  0.00  0.00    +0.000 A 
ATOM     17  C   UNL     1      -1.890  10.477  18.987  0.00  0.00    +0.000 C 
ATOM     18  O   UNL     1      -1.703   9.418  18.402  0.00  0.00    +0.000 OA
ATOM     19  C   UNL     1      -1.045  11.031  19.994  0.00  0.00    +0.000 A 
ATOM     20  C   UNL     1      -1.397  12.092  20.793  0.00  0.00    +0.000 A 
ATOM     21  N   UNL     1      -0.472  12.242  21.783  0.00  0.00    +0.000 NA
ATOM     22  N   UNL     1       0.444  11.287  21.629  0.00  0.00    +0.000 NA
ATOM     23  N   UNL     1       0.167  10.607  20.488  0.00  0.00    +0.000 N 
ENDBRANCH   1  23
BRANCH   5  24
ATOM     24  C   UNL     1       2.944   6.204  18.121  0.00  0.00    +0.000 A 
ATOM     25  C   UNL     1       2.295   4.952  18.089  0.00  0.00    +0.000 A 
ATOM     26  C   UNL     1       2.904   3.810  17.544  0.00  0.00    +0.000 A 
ATOM     27  C   UNL     1       4.155   3.931  16.931  0.00  0.00    +0.000 A 
ATOM     28  C   UNL     1       4.803   5.161  16.909  0.00  0.00    +0.000 A 
ATOM     29  C   UNL     1       4.215   6.265  17.521  0.00  0.00    +0.000 A 
ATOM     30  F   UNL     1       4.943   7.392  17.562  0.00  0.00    +0.000 F 
BRANCH  26  31
ATOM     31  C   UNL     1       2.258   2.457  17.690  0.00  0.00    +0.000 C 
BRANCH  31  32
ATOM     32  O   UNL     1       3.217   1.479  18.058  0.00  0.00    +0.000 OA
ATOM     33  H   UNL     1       2.728   0.759  18.492  0.00  0.00    +0.000 HD
ENDBRANCH  31  32
ENDBRANCH  26  31
ENDBRANCH   5  24
TORSDOF 4
ENDMDL
MODEL 4
REMARK VINA RESULT:      -9.2      3.897      9.638
REMARK  Name = 
REMARK  4 active torsions:
REMARK  status: ('A' for Active; 'I' for Inactive)
REMARK    1  A    between atoms: N_15  and  C_16
REMARK    2  A    between atoms: C_20  and  C_21
REMARK    3  A    between atoms: C_23  and  C_24
REMARK    4  A    between atoms: C_24  and  O_25
REMARK                            x       y       z     vdW  Elec       q    Type
REMARK                         _______ _______ _______ _____ _____    ______ ____
ROOT
ATOM      1  C   UNL     1       1.318   9.480  19.243  0.00  0.00    +0.000 A 
ATOM      2  C   UNL     1       1.418   8.443  20.166  0.00  0.00    +0.000 A 
ATOM      3  C   UNL     1       2.075   7.264  19.792  0.00  0.00    +0.000 A 
ATOM      4  F   UNL     1       2.108   6.277  20.701  0.00  0.00    +0.000 F 
ATOM      5  C   UNL     1       2.648   7.076  18.516  0.00  0.00    +0.000 A 
ATOM      6  C   UNL     1       2.579   8.175  17.651  0.00  0.00    +0.000 A 
ATOM      7  F   UNL     1       3.029   8.102  16.390  0.00  0.00    +0.000 F 
ATOM      8  C   UNL     1       1.979   9.372  18.022  0.00  0.00    +0.000 A 
ENDROOT
BRANCH   1  23
ATOM      9  O   UNL     1      -1.482  14.629  20.153  0.00  0.00    +0.000 OA
ATOM     10  C   UNL     1      -0.506  14.016  19.736  0.00  0.00    +0.000 C 
ATOM     11  C   UNL     1       0.665  14.746  19.142  0.00  0.00    +0.000 A 
ATOM     12  C   UNL     1       0.654  16.145  19.072  0.00  0.00    +0.000 A 
ATOM     13  C   UNL     1       1.736  16.830  18.509  0.00  0.00    +0.000 A 
ATOM     14  C   UNL     1       2.845  16.136  18.025  0.00  0.00    +0.000 A 
ATOM     15  C   UNL     1       2.868  14.747  18.084  0.00  0.00    +0.000 A 
ATOM     16  C   UNL     1       1.778  14.052  18.636  0.00  0.00    +0.000 A 
ATOM     17  C   UNL     1       1.820  12.573  18.624  0.00  0.00    +0.000 C 
ATOM     18  O   UNL     1       2.720  12.014  18.011  0.00  0.00    +0.000 OA
ATOM     19  C   UNL     1       0.739  11.922  19.291  0.00  0.00    +0.000 A 
ATOM     20  C   UNL     1      -0.374  12.573  19.765  0.00  0.00    +0.000 A 
ATOM     21  N   UNL     1      -1.304  11.656  20.155  0.00  0.00    +0.000 NA
ATOM     22  N   UNL     1      -0.803  10.445  19.919  0.00  0.00    +0.000 NA
ATOM     23  N   UNL     1       0.477  10.586  19.491  0.00  0.00    +0.000 N 
ENDBRANCH   1  23
BRANCH   5  24
ATOM     24  C   UNL     1       3.283   5.801  18.105  0.00  0.00    +0.000 A 
ATOM     25  C   UNL     1       4.679   5.702  17.932  0.00  0.00    +0.000 A 
ATOM     26  C   UNL     1       5.292   4.528  17.463  0.00  0.00    +0.000 A 
ATOM     27  C   UNL     1       4.509   3.390  17.246  0.00  0.00    +0.000 A 
ATOM     28  C   UNL     1       3.134   3.443  17.448  0.00  0.00    +0.000 A 
ATOM     29  C   UNL     1       2.537   4.638  17.841  0.00  0.00    +0.000 A 
ATOM     30  F   UNL     1       1.196   4.649  17.909  0.00  0.00    +0.000 F 
BRANCH  26  31
ATOM     31  C   UNL     1       6.758   4.518  17.118  0.00  0.00    +0.000 C 
BRANCH  31  32
ATOM     32  O   UNL     1       7.544   4.265  18.272  0.00  0.00    +0.000 OA
ATOM     33  H   UNL     1       7.201   4.843  18.975  0.00  0.00    +0.000 HD
ENDBRANCH  31  32
ENDBRANCH  26  31
ENDBRANCH   5  24
TORSDOF 4
ENDMDL
MODEL 5
REMARK VINA RESULT:      -9.1      3.366      9.578
REMARK  Name = 
REMARK  4 active torsions:
REMARK  status: ('A' for Active; 'I' for Inactive)
REMARK    1  A    between atoms: N_15  and  C_16
REMARK    2  A    between atoms: C_20  and  C_21
REMARK    3  A    between atoms: C_23  and  C_24
REMARK    4  A    between atoms: C_24  and  O_25
REMARK                            x       y       z     vdW  Elec       q    Type
REMARK                         _______ _______ _______ _____ _____    ______ ____
ROOT
ATOM      1  C   UNL     1       1.065   9.260  19.817  0.00  0.00    +0.000 A 
ATOM      2  C   UNL     1       1.564   9.410  18.527  0.00  0.00    +0.000 A 
ATOM      3  C   UNL     1       2.325   8.374  17.970  0.00  0.00    +0.000 A 
ATOM      4  F   UNL     1       2.821   8.584  16.739  0.00  0.00    +0.000 F 
ATOM      5  C   UNL     1       2.610   7.175  18.657  0.00  0.00    +0.000 A 
ATOM      6  C   UNL     1       2.027   7.048  19.923  0.00  0.00    +0.000 A 
ATOM      7  F   UNL     1       2.273   5.985  20.703  0.00  0.00    +0.000 F 
ATOM      8  C   UNL     1       1.225   8.040  20.472  0.00  0.00    +0.000 A 
ENDROOT
BRANCH   1  23
ATOM      9  O   UNL     1      -1.916  13.899  22.001  0.00  0.00    +0.000 OA
ATOM     10  C   UNL     1      -1.849  12.962  21.214  0.00  0.00    +0.000 C 
ATOM     11  C   UNL     1      -2.953  12.701  20.231  0.00  0.00    +0.000 A 
ATOM     12  C   UNL     1      -4.072  13.544  20.198  0.00  0.00    +0.000 A 
ATOM     13  C   UNL     1      -5.110  13.300  19.292  0.00  0.00    +0.000 A 
ATOM     14  C   UNL     1      -5.042  12.228  18.402  0.00  0.00    +0.000 A 
ATOM     15  C   UNL     1      -3.940  11.381  18.426  0.00  0.00    +0.000 A 
ATOM     16  C   UNL     1      -2.900  11.613  19.342  0.00  0.00    +0.000 A 
ATOM     17  C   UNL     1      -1.775  10.652  19.373  0.00  0.00    +0.000 C 
ATOM     18  O   UNL     1      -1.860   9.625  18.713  0.00  0.00    +0.000 OA
ATOM     19  C   UNL     1      -0.699  10.993  20.246  0.00  0.00    +0.000 A 
ATOM     20  C   UNL     1      -0.739  12.031  21.145  0.00  0.00    +0.000 A 
ATOM     21  N   UNL     1       0.347  11.964  21.966  0.00  0.00    +0.000 NA
ATOM     22  N   UNL     1       1.059  10.896  21.608  0.00  0.00    +0.000 NA
ATOM     23  N   UNL     1       0.493  10.355  20.500  0.00  0.00    +0.000 N 
ENDBRANCH   1  23
BRANCH   5  24
ATOM     24  C   UNL     1       3.472   6.112  18.086  0.00  0.00    +0.000 A 
ATOM     25  C   UNL     1       4.862   6.300  17.937  0.00  0.00    +0.000 A 
ATOM     26  C   UNL     1       5.682   5.339  17.323  0.00  0.00    +0.000 A 
ATOM     27  C   UNL     1       5.125   4.120  16.926  0.00  0.00    +0.000 A 
ATOM     28  C   UNL     1       3.765   3.888  17.096  0.00  0.00    +0.000 A 
ATOM     29  C   UNL     1       2.955   4.882  17.640  0.00  0.00    +0.000 A 
ATOM     30  F   UNL     1       1.636   4.636  17.674  0.00  0.00    +0.000 F 
BRANCH  26  31
ATOM     31  C   UNL     1       7.124   5.650  17.019  0.00  0.00    +0.000 C 
BRANCH  31  32
ATOM     32  O   UNL     1       7.872   4.455  16.855  0.00  0.00    +0.000 OA
ATOM     33  H   UNL     1       7.399   3.761  17.344  0.00  0.00    +0.000 HD
ENDBRANCH  31  32
ENDBRANCH  26  31
ENDBRANCH   5  24
TORSDOF 4
ENDMDL
MODEL 6
REMARK VINA RESULT:      -9.1      3.239      9.613
REMARK  Name = 
REMARK  4 active torsions:
REMARK  status: ('A' for Active; 'I' for Inactive)
REMARK    1  A    between atoms: N_15  and  C_16
REMARK    2  A    between atoms: C_20  and  C_21
REMARK    3  A    between atoms: C_23  and  C_24
REMARK    4  A    between atoms: C_24  and  O_25
REMARK                            x       y       z     vdW  Elec       q    Type
REMARK                         _______ _______ _______ _____ _____    ______ ____
ROOT
ATOM      1  C   UNL     1       1.010   8.706  20.534  0.00  0.00    +0.000 A 
ATOM      2  C   UNL     1       1.510   9.015  19.273  0.00  0.00    +0.000 A 
ATOM      3  C   UNL     1       2.259   8.051  18.586  0.00  0.00    +0.000 A 
ATOM      4  F   UNL     1       2.756   8.412  17.392  0.00  0.00    +0.000 F 
ATOM      5  C   UNL     1       2.531   6.770  19.113  0.00  0.00    +0.000 A 
ATOM      6  C   UNL     1       1.947   6.488  20.354  0.00  0.00    +0.000 A 
ATOM      7  F   UNL     1       2.182   5.331  20.990  0.00  0.00    +0.000 F 
ATOM      8  C   UNL     1       1.156   7.411  21.027  0.00  0.00    +0.000 A 
ENDROOT
BRANCH   1  23
ATOM      9  O   UNL     1      -1.084  13.496  23.335  0.00  0.00    +0.000 OA
ATOM     10  C   UNL     1      -0.668  12.970  22.310  0.00  0.00    +0.000 C 
ATOM     11  C   UNL     1      -0.535  13.758  21.039  0.00  0.00    +0.000 A 
ATOM     12  C   UNL     1      -0.876  15.117  21.020  0.00  0.00    +0.000 A 
ATOM     13  C   UNL     1      -0.765  15.854  19.836  0.00  0.00    +0.000 A 
ATOM     14  C   UNL     1      -0.301  15.256  18.665  0.00  0.00    +0.000 A 
ATOM     15  C   UNL     1       0.038  13.907  18.668  0.00  0.00    +0.000 A 
ATOM     16  C   UNL     1      -0.084  13.158  19.850  0.00  0.00    +0.000 A 
ATOM     17  C   UNL     1       0.231  11.713  19.792  0.00  0.00    +0.000 C 
ATOM     18  O   UNL     1       0.441  11.200  18.700  0.00  0.00    +0.000 OA
ATOM     19  C   UNL     1       0.194  11.025  21.041  0.00  0.00    +0.000 A 
ATOM     20  C   UNL     1      -0.273  11.579  22.209  0.00  0.00    +0.000 A 
ATOM     21  N   UNL     1      -0.373  10.610  23.162  0.00  0.00    +0.000 NA
ATOM     22  N   UNL     1       0.006   9.458  22.611  0.00  0.00    +0.000 NA
ATOM     23  N   UNL     1       0.450   9.710  21.354  0.00  0.00    +0.000 N 
ENDBRANCH   1  23
BRANCH   5  24
ATOM     24  C   UNL     1       3.380   5.780  18.408  0.00  0.00    +0.000 A 
ATOM     25  C   UNL     1       4.786   5.884  18.421  0.00  0.00    +0.000 A 
ATOM     26  C   UNL     1       5.605   5.006  17.692  0.00  0.00    +0.000 A 
ATOM     27  C   UNL     1       5.018   3.939  17.003  0.00  0.00    +0.000 A 
ATOM     28  C   UNL     1       3.637   3.785  17.006  0.00  0.00    +0.000 A 
ATOM     29  C   UNL     1       2.838   4.710  17.673  0.00  0.00    +0.000 A 
ATOM     30  F   UNL     1       1.509   4.567  17.542  0.00  0.00    +0.000 F 
BRANCH  26  31
ATOM     31  C   UNL     1       7.086   5.256  17.583  0.00  0.00    +0.000 C 
BRANCH  31  32
ATOM     32  O   UNL     1       7.815   4.056  17.785  0.00  0.00    +0.000 OA
ATOM     33  H   UNL     1       7.182   3.397  18.115  0.00  0.00    +0.000 HD
ENDBRANCH  31  32
ENDBRANCH  26  31
ENDBRANCH   5  24
TORSDOF 4
ENDMDL
MODEL 7
REMARK VINA RESULT:      -9.1      2.753      4.255
REMARK  Name = 
REMARK  4 active torsions:
REMARK  status: ('A' for Active; 'I' for Inactive)
REMARK    1  A    between atoms: N_15  and  C_16
REMARK    2  A    between atoms: C_20  and  C_21
REMARK    3  A    between atoms: C_23  and  C_24
REMARK    4  A    between atoms: C_24  and  O_25
REMARK                            x       y       z     vdW  Elec       q    Type
REMARK                         _______ _______ _______ _____ _____    ______ ____
ROOT
ATOM      1  C   UNL     1       1.925   7.504  19.768  0.00  0.00    +0.000 A 
ATOM      2  C   UNL     1       1.852   8.387  18.696  0.00  0.00    +0.000 A 
ATOM      3  C   UNL     1       1.227   9.627  18.879  0.00  0.00    +0.000 A 
ATOM      4  F   UNL     1       1.144  10.427  17.804  0.00  0.00    +0.000 F 
ATOM      5  C   UNL     1       0.666  10.029  20.110  0.00  0.00    +0.000 A 
ATOM      6  C   UNL     1       0.827   9.132  21.173  0.00  0.00    +0.000 A 
ATOM      7  F   UNL     1       0.283   9.368  22.376  0.00  0.00    +0.000 F 
ATOM      8  C   UNL     1       1.491   7.921  21.025  0.00  0.00    +0.000 A 
ENDROOT
BRANCH   1  23
ATOM      9  O   UNL     1       3.952   2.168  18.157  0.00  0.00    +0.000 OA
ATOM     10  C   UNL     1       3.921   3.382  17.988  0.00  0.00    +0.000 C 
ATOM     11  C   UNL     1       4.694   4.024  16.873  0.00  0.00    +0.000 A 
ATOM     12  C   UNL     1       5.453   3.231  16.002  0.00  0.00    +0.000 A 
ATOM     13  C   UNL     1       6.185   3.825  14.968  0.00  0.00    +0.000 A 
ATOM     14  C   UNL     1       6.160   5.206  14.778  0.00  0.00    +0.000 A 
ATOM     15  C   UNL     1       5.414   6.006  15.637  0.00  0.00    +0.000 A 
ATOM     16  C   UNL     1       4.688   5.417  16.686  0.00  0.00    +0.000 A 
ATOM     17  C   UNL     1       3.957   6.312  17.612  0.00  0.00    +0.000 C 
ATOM     18  O   UNL     1       4.128   7.520  17.521  0.00  0.00    +0.000 OA
ATOM     19  C   UNL     1       3.152   5.658  18.591  0.00  0.00    +0.000 A 
ATOM     20  C   UNL     1       3.165   4.302  18.815  0.00  0.00    +0.000 A 
ATOM     21  N   UNL     1       2.454   4.021  19.943  0.00  0.00    +0.000 NA
ATOM     22  N   UNL     1       2.008   5.174  20.439  0.00  0.00    +0.000 NA
ATOM     23  N   UNL     1       2.336   6.168  19.575  0.00  0.00    +0.000 N 
ENDBRANCH   1  23
BRANCH   5  24
ATOM     24  C   UNL     1      -0.053  11.315  20.279  0.00  0.00    +0.000 A 
ATOM     25  C   UNL     1       0.511  12.376  21.017  0.00  0.00    +0.000 A 
ATOM     26  C   UNL     1      -0.187  13.571  21.259  0.00  0.00    +0.000 A 
ATOM     27  C   UNL     1      -1.445  13.755  20.676  0.00  0.00    +0.000 A 
ATOM     28  C   UNL     1      -2.011  12.744  19.909  0.00  0.00    +0.000 A 
ATOM     29  C   UNL     1      -1.334  11.538  19.743  0.00  0.00    +0.000 A 
ATOM     30  F   UNL     1      -1.985  10.565  19.085  0.00  0.00    +0.000 F 
BRANCH  26  31
ATOM     31  C   UNL     1       0.373  14.605  22.199  0.00  0.00    +0.000 C 
BRANCH  31  32
ATOM     32  O   UNL     1       1.790  14.547  22.226  0.00  0.00    +0.000 OA
ATOM     33  H   UNL     1       2.110  15.345  21.773  0.00  0.00    +0.000 HD
ENDBRANCH  31  32
ENDBRANCH  26  31
ENDBRANCH   5  24
TORSDOF 4
ENDMDL
MODEL 8
REMARK VINA RESULT:      -9.1      2.202      3.583
REMARK  Name = 
REMARK  4 active torsions:
REMARK  status: ('A' for Active; 'I' for Inactive)
REMARK    1  A    between atoms: N_15  and  C_16
REMARK    2  A    between atoms: C_20  and  C_21
REMARK    3  A    between atoms: C_23  and  C_24
REMARK    4  A    between atoms: C_24  and  O_25
REMARK                            x       y       z     vdW  Elec       q    Type
REMARK                         _______ _______ _______ _____ _____    ______ ____
ROOT
ATOM      1  C   UNL     1       1.810   7.597  20.114  0.00  0.00    +0.000 A 
ATOM      2  C   UNL     1       1.469   8.504  19.115  0.00  0.00    +0.000 A 
ATOM      3  C   UNL     1       0.937   9.747  19.481  0.00  0.00    +0.000 A 
ATOM      4  F   UNL     1       0.582  10.570  18.481  0.00  0.00    +0.000 F 
ATOM      5  C   UNL     1       0.733  10.129  20.824  0.00  0.00    +0.000 A 
ATOM      6  C   UNL     1       1.157   9.208  21.789  0.00  0.00    +0.000 A 
ATOM      7  F   UNL     1       0.960   9.425  23.098  0.00  0.00    +0.000 F 
ATOM      8  C   UNL     1       1.736   7.992  21.447  0.00  0.00    +0.000 A 
ENDROOT
BRANCH   1  23
ATOM      9  O   UNL     1       3.496   2.315  18.007  0.00  0.00    +0.000 OA
ATOM     10  C   UNL     1       3.553   3.538  17.960  0.00  0.00    +0.000 C 
ATOM     11  C   UNL     1       4.392   4.231  16.925  0.00  0.00    +0.000 A 
ATOM     12  C   UNL     1       5.112   3.475  15.990  0.00  0.00    +0.000 A 
ATOM     13  C   UNL     1       5.905   4.114  15.031  0.00  0.00    +0.000 A 
ATOM     14  C   UNL     1       5.980   5.506  14.980  0.00  0.00    +0.000 A 
ATOM     15  C   UNL     1       5.274   6.268  15.903  0.00  0.00    +0.000 A 
ATOM     16  C   UNL     1       4.486   5.633  16.878  0.00  0.00    +0.000 A 
ATOM     17  C   UNL     1       3.800   6.481  17.878  0.00  0.00    +0.000 C 
ATOM     18  O   UNL     1       4.057   7.678  17.910  0.00  0.00    +0.000 OA
ATOM     19  C   UNL     1       2.931   5.793  18.776  0.00  0.00    +0.000 A 
ATOM     20  C   UNL     1       2.845   4.424  18.863  0.00  0.00    +0.000 A 
ATOM     21  N   UNL     1       2.092   4.085  19.948  0.00  0.00    +0.000 NA
ATOM     22  N   UNL     1       1.718   5.213  20.550  0.00  0.00    +0.000 NA
ATOM     23  N   UNL     1       2.132   6.260  19.794  0.00  0.00    +0.000 N 
ENDBRANCH   1  23
BRANCH   5  24
ATOM     24  C   UNL     1       0.108  11.420  21.201  0.00  0.00    +0.000 A 
ATOM     25  C   UNL     1      -1.189  11.470  21.752  0.00  0.00    +0.000 A 
ATOM     26  C   UNL     1      -1.832  12.686  22.038  0.00  0.00    +0.000 A 
ATOM     27  C   UNL     1      -1.134  13.885  21.859  0.00  0.00    +0.000 A 
ATOM     28  C   UNL     1       0.162  13.867  21.356  0.00  0.00    +0.000 A 
ATOM     29  C   UNL     1       0.754  12.654  21.009  0.00  0.00    +0.000 A 
ATOM     30  F   UNL     1       1.962  12.717  20.426  0.00  0.00    +0.000 F 
BRANCH  26  31
ATOM     31  C   UNL     1      -3.279  12.705  22.453  0.00  0.00    +0.000 C 
BRANCH  31  32
ATOM     32  O   UNL     1      -3.481  11.916  23.614  0.00  0.00    +0.000 OA
ATOM     33  H   UNL     1      -2.613  11.823  24.043  0.00  0.00    +0.000 HD
ENDBRANCH  31  32
ENDBRANCH  26  31
ENDBRANCH   5  24
TORSDOF 4
ENDMDL
MODEL 9
REMARK VINA RESULT:      -9.0      4.090      9.382
REMARK  Name = 
REMARK  4 active torsions:
REMARK  status: ('A' for Active; 'I' for Inactive)
REMARK    1  A    between atoms: N_15  and  C_16
REMARK    2  A    between atoms: C_20  and  C_21
REMARK    3  A    between atoms: C_23  and  C_24
REMARK    4  A    between atoms: C_24  and  O_25
REMARK                            x       y       z     vdW  Elec       q    Type
REMARK                         _______ _______ _______ _____ _____    ______ ____
ROOT
ATOM      1  C   UNL     1       0.786   9.767  19.148  0.00  0.00    +0.000 A 
ATOM      2  C   UNL     1       1.421   9.373  17.974  0.00  0.00    +0.000 A 
ATOM      3  C   UNL     1       2.196   8.206  17.981  0.00  0.00    +0.000 A 
ATOM      4  F   UNL     1       2.824   7.892  16.837  0.00  0.00    +0.000 F 
ATOM      5  C   UNL     1       2.363   7.402  19.129  0.00  0.00    +0.000 A 
ATOM      6  C   UNL     1       1.648   7.807  20.262  0.00  0.00    +0.000 A 
ATOM      7  F   UNL     1       1.772   7.164  21.433  0.00  0.00    +0.000 F 
ATOM      8  C   UNL     1       0.831   8.930  20.261  0.00  0.00    +0.000 A 
ENDROOT
BRANCH   1  23
ATOM      9  O   UNL     1      -0.893  15.443  19.515  0.00  0.00    +0.000 OA
ATOM     10  C   UNL     1      -0.038  14.610  19.238  0.00  0.00    +0.000 C 
ATOM     11  C   UNL     1       1.319  15.032  18.753  0.00  0.00    +0.000 A 
ATOM     12  C   UNL     1       1.623  16.394  18.625  0.00  0.00    +0.000 A 
ATOM     13  C   UNL     1       2.881  16.793  18.162  0.00  0.00    +0.000 A 
ATOM     14  C   UNL     1       3.854  15.848  17.837  0.00  0.00    +0.000 A 
ATOM     15  C   UNL     1       3.566  14.493  17.957  0.00  0.00    +0.000 A 
ATOM     16  C   UNL     1       2.299  14.086  18.408  0.00  0.00    +0.000 A 
ATOM     17  C   UNL     1       2.016  12.634  18.462  0.00  0.00    +0.000 C 
ATOM     18  O   UNL     1       2.830  11.857  17.980  0.00  0.00    +0.000 OA
ATOM     19  C   UNL     1       0.756  12.274  19.027  0.00  0.00    +0.000 A 
ATOM     20  C   UNL     1      -0.230  13.177  19.342  0.00  0.00    +0.000 A 
ATOM     21  N   UNL     1      -1.374  12.508  19.660  0.00  0.00    +0.000 NA
ATOM     22  N   UNL     1      -1.129  11.205  19.535  0.00  0.00    +0.000 NA
ATOM     23  N   UNL     1       0.187  11.041  19.251  0.00  0.00    +0.000 N 
ENDBRANCH   1  23
BRANCH   5  24
ATOM     24  C   UNL     1       3.239   6.206  19.146  0.00  0.00    +0.000 A 
ATOM     25  C   UNL     1       4.643   6.329  19.171  0.00  0.00    +0.000 A 
ATOM     26  C   UNL     1       5.492   5.211  19.103  0.00  0.00    +0.000 A 
ATOM     27  C   UNL     1       4.931   3.929  19.102  0.00  0.00    +0.000 A 
ATOM     28  C   UNL     1       3.550   3.774  19.119  0.00  0.00    +0.000 A 
ATOM     29  C   UNL     1       2.726   4.897  19.111  0.00  0.00    +0.000 A 
ATOM     30  F   UNL     1       1.405   4.676  19.014  0.00  0.00    +0.000 F 
BRANCH  26  31
ATOM     31  C   UNL     1       6.979   5.390  18.949  0.00  0.00    +0.000 C 
BRANCH  31  32
ATOM     32  O   UNL     1       7.605   5.508  20.217  0.00  0.00    +0.000 OA
ATOM     33  H   UNL     1       8.011   6.392  20.245  0.00  0.00    +0.000 HD
ENDBRANCH  31  32
ENDBRANCH  26  31
ENDBRANCH   5  24
TORSDOF 4
ENDMDL
