MODEL 1
REMARK VINA RESULT:      -9.0      0.000      0.000
REMARK  Name = 
REMARK  5 active torsions:
REMARK  status: ('A' for Active; 'I' for Inactive)
REMARK    1  A    between atoms: C_1  and  C_2
REMARK    2  A    between atoms: C_2  and  N_3
REMARK    3  A    between atoms: C_5  and  C_6
REMARK    4  A    between atoms: C_22  and  S_23
REMARK    5  A    between atoms: S_23  and  N_26
REMARK                            x       y       z     vdW  Elec       q    Type
REMARK                         _______ _______ _______ _____ _____    ______ ____
ROOT
ATOM      1  N   UNL     1       2.282   6.216  19.870  0.00  0.00    +0.000 N 
ATOM      2  C   UNL     1       1.491   7.345  19.634  0.00  0.00    +0.000 A 
ATOM      3  C   UNL     1       1.730   8.347  18.768  0.00  0.00    +0.000 A 
ATOM      4  C   UNL     1       2.933   8.180  17.912  0.00  0.00    +0.000 A 
ATOM      5  O   UNL     1       3.211   8.959  17.009  0.00  0.00    +0.000 OA
ATOM      6  C   UNL     1       3.804   6.987  18.124  0.00  0.00    +0.000 A 
ATOM      7  C   UNL     1       4.948   6.831  17.312  0.00  0.00    +0.000 A 
ATOM      8  C   UNL     1       5.749   5.696  17.453  0.00  0.00    +0.000 A 
ATOM      9  C   UNL     1       5.451   4.761  18.442  0.00  0.00    +0.000 A 
ATOM     10  C   UNL     1       4.322   4.931  19.254  0.00  0.00    +0.000 A 
ATOM     11  C   UNL     1       3.456   6.031  19.102  0.00  0.00    +0.000 A 
ENDROOT
BRANCH   3  12
ATOM     12  C   UNL     1       0.674   9.403  18.568  0.00  0.00    +0.000 C 
ATOM     13  O   UNL     1      -0.042   9.339  17.564  0.00  0.00    +0.000 OA
ATOM     14  N   UNL     1       0.550  10.451  19.466  0.00  0.00    +0.000 N 
ATOM     15  C   UNL     1      -0.106  11.703  19.047  0.00  0.00    +0.000 C 
ATOM     16  C   UNL     1       0.412  12.921  19.868  0.00  0.00    +0.000 C 
ATOM     17  C   UNL     1       0.056  12.668  21.319  0.00  0.00    +0.000 A 
ATOM     18  C   UNL     1      -0.409  13.676  22.161  0.00  0.00    +0.000 A 
ATOM     19  C   UNL     1      -1.270  13.326  23.197  0.00  0.00    +0.000 A 
ATOM     20  C   UNL     1      -1.660  11.993  23.352  0.00  0.00    +0.000 A 
ATOM     21  C   UNL     1      -1.024  10.979  22.628  0.00  0.00    +0.000 A 
ATOM     22  C   UNL     1      -0.064  11.315  21.682  0.00  0.00    +0.000 A 
ATOM     23  C   UNL     1       0.777  10.323  20.903  0.00  0.00    +0.000 C 
ENDBRANCH   3  12
BRANCH   8  24
ATOM     24  S   UNL     1       7.245   5.503  16.498  0.00  0.00    +0.000 S 
ATOM     25  O   UNL     1       7.855   6.808  16.392  0.00  0.00    +0.000 OA
ATOM     26  O   UNL     1       7.972   4.379  17.064  0.00  0.00    +0.000 OA
BRANCH  24  27
ATOM     27  N   UNL     1       6.709   5.032  14.938  0.00  0.00    +0.000 NA
ATOM     28  C   UNL     1       7.738   5.063  13.867  0.00  0.00    +0.000 C 
ATOM     29  C   UNL     1       7.126   4.842  12.486  0.00  0.00    +0.000 C 
ATOM     30  C   UNL     1       6.264   3.589  12.454  0.00  0.00    +0.000 C 
ATOM     31  C   UNL     1       5.178   3.696  13.514  0.00  0.00    +0.000 C 
ATOM     32  C   UNL     1       5.786   3.870  14.901  0.00  0.00    +0.000 C 
ENDBRANCH  24  27
ENDBRANCH   8  24
BRANCH   1  34
ATOM     33  C   UNL     1       0.990   4.106  20.184  0.00  0.00    +0.000 C 
ATOM     34  C   UNL     1       1.871   5.170  20.832  0.00  0.00    +0.000 C 
ENDBRANCH   1  34
TORSDOF 4
ENDMDL
MODEL 2
REMARK VINA RESULT:      -8.4      2.583      9.351
REMARK  Name = 
REMARK  5 active torsions:
REMARK  status: ('A' for Active; 'I' for Inactive)
REMARK    1  A    between atoms: C_1  and  C_2
REMARK    2  A    between atoms: C_2  and  N_3
REMARK    3  A    between atoms: C_5  and  C_6
REMARK    4  A    between atoms: C_22  and  S_23
REMARK    5  A    between atoms: S_23  and  N_26
REMARK                            x       y       z     vdW  Elec       q    Type
REMARK                         _______ _______ _______ _____ _____    ______ ____
ROOT
ATOM      1  N   UNL     1       2.251   4.919  20.212  0.00  0.00    +0.000 N 
ATOM      2  C   UNL     1       3.363   4.422  19.525  0.00  0.00    +0.000 A 
ATOM      3  C   UNL     1       4.149   5.081  18.652  0.00  0.00    +0.000 A 
ATOM      4  C   UNL     1       3.837   6.522  18.471  0.00  0.00    +0.000 A 
ATOM      5  O   UNL     1       4.535   7.266  17.793  0.00  0.00    +0.000 OA
ATOM      6  C   UNL     1       2.663   7.098  19.189  0.00  0.00    +0.000 A 
ATOM      7  C   UNL     1       2.366   8.466  19.014  0.00  0.00    +0.000 A 
ATOM      8  C   UNL     1       1.306   9.041  19.718  0.00  0.00    +0.000 A 
ATOM      9  C   UNL     1       0.506   8.244  20.533  0.00  0.00    +0.000 A 
ATOM     10  C   UNL     1       0.798   6.883  20.690  0.00  0.00    +0.000 A 
ATOM     11  C   UNL     1       1.894   6.279  20.044  0.00  0.00    +0.000 A 
ENDROOT
BRANCH   3  12
ATOM     12  C   UNL     1       5.385   4.397  18.128  0.00  0.00    +0.000 C 
ATOM     13  O   UNL     1       6.007   3.642  18.883  0.00  0.00    +0.000 OA
ATOM     14  N   UNL     1       5.841   4.654  16.846  0.00  0.00    +0.000 N 
ATOM     15  C   UNL     1       7.251   4.400  16.502  0.00  0.00    +0.000 C 
ATOM     16  C   UNL     1       7.729   5.315  15.337  0.00  0.00    +0.000 C 
ATOM     17  C   UNL     1       6.883   4.977  14.125  0.00  0.00    +0.000 A 
ATOM     18  C   UNL     1       7.417   4.897  12.840  0.00  0.00    +0.000 A 
ATOM     19  C   UNL     1       6.821   4.028  11.932  0.00  0.00    +0.000 A 
ATOM     20  C   UNL     1       5.729   3.251  12.331  0.00  0.00    +0.000 A 
ATOM     21  C   UNL     1       5.090   3.500  13.551  0.00  0.00    +0.000 A 
ATOM     22  C   UNL     1       5.606   4.463  14.408  0.00  0.00    +0.000 A 
ATOM     23  C   UNL     1       4.964   4.909  15.706  0.00  0.00    +0.000 C 
ENDBRANCH   3  12
BRANCH   8  24
ATOM     24  S   UNL     1       0.854  10.750  19.463  0.00  0.00    +0.000 S 
ATOM     25  O   UNL     1       0.888  11.398  20.753  0.00  0.00    +0.000 OA
ATOM     26  O   UNL     1       1.656  11.244  18.355  0.00  0.00    +0.000 OA
BRANCH  24  27
ATOM     27  N   UNL     1      -0.776  10.696  18.931  0.00  0.00    +0.000 NA
ATOM     28  C   UNL     1      -1.562  11.940  19.136  0.00  0.00    +0.000 C 
ATOM     29  C   UNL     1      -3.044  11.729  18.837  0.00  0.00    +0.000 C 
ATOM     30  C   UNL     1      -3.251  11.108  17.464  0.00  0.00    +0.000 C 
ATOM     31  C   UNL     1      -2.494   9.791  17.386  0.00  0.00    +0.000 C 
ATOM     32  C   UNL     1      -1.005  10.004  17.638  0.00  0.00    +0.000 C 
ENDBRANCH  24  27
ENDBRANCH   8  24
BRANCH   1  34
ATOM     33  C   UNL     1       2.270   2.829  21.573  0.00  0.00    +0.000 C 
ATOM     34  C   UNL     1       1.500   4.086  21.176  0.00  0.00    +0.000 C 
ENDBRANCH   1  34
TORSDOF 4
ENDMDL
MODEL 3
REMARK VINA RESULT:      -8.4      2.701      4.137
REMARK  Name = 
REMARK  5 active torsions:
REMARK  status: ('A' for Active; 'I' for Inactive)
REMARK    1  A    between atoms: C_1  and  C_2
REMARK    2  A    between atoms: C_2  and  N_3
REMARK    3  A    between atoms: C_5  and  C_6
REMARK    4  A    between atoms: C_22  and  S_23
REMARK    5  A    between atoms: S_23  and  N_26
REMARK                            x       y       z     vdW  Elec       q    Type
REMARK                         _______ _______ _______ _____ _____    ______ ____
ROOT
ATOM      1  N   UNL     1       0.704   8.626  21.072  0.00  0.00    +0.000 N 
ATOM      2  C   UNL     1       0.567   9.887  20.484  0.00  0.00    +0.000 A 
ATOM      3  C   UNL     1       1.114  10.318  19.332  0.00  0.00    +0.000 A 
ATOM      4  C   UNL     1       1.882   9.301  18.568  0.00  0.00    +0.000 A 
ATOM      5  O   UNL     1       2.341   9.523  17.455  0.00  0.00    +0.000 OA
ATOM      6  C   UNL     1       2.049   7.939  19.154  0.00  0.00    +0.000 A 
ATOM      7  C   UNL     1       2.781   6.975  18.429  0.00  0.00    +0.000 A 
ATOM      8  C   UNL     1       2.905   5.678  18.929  0.00  0.00    +0.000 A 
ATOM      9  C   UNL     1       2.366   5.365  20.175  0.00  0.00    +0.000 A 
ATOM     10  C   UNL     1       1.654   6.332  20.896  0.00  0.00    +0.000 A 
ATOM     11  C   UNL     1       1.455   7.634  20.398  0.00  0.00    +0.000 A 
ENDROOT
BRANCH   3  12
ATOM     12  C   UNL     1       0.723  11.674  18.805  0.00  0.00    +0.000 C 
ATOM     13  O   UNL     1      -0.295  11.767  18.111  0.00  0.00    +0.000 OA
ATOM     14  N   UNL     1       1.521  12.780  19.049  0.00  0.00    +0.000 N 
ATOM     15  C   UNL     1       1.433  13.959  18.169  0.00  0.00    +0.000 C 
ATOM     16  C   UNL     1       2.767  14.761  18.153  0.00  0.00    +0.000 C 
ATOM     17  C   UNL     1       3.013  15.249  19.567  0.00  0.00    +0.000 A 
ATOM     18  C   UNL     1       3.509  16.522  19.842  0.00  0.00    +0.000 A 
ATOM     19  C   UNL     1       3.142  17.128  21.040  0.00  0.00    +0.000 A 
ATOM     20  C   UNL     1       2.280  16.463  21.917  0.00  0.00    +0.000 A 
ATOM     21  C   UNL     1       1.964  15.115  21.714  0.00  0.00    +0.000 A 
ATOM     22  C   UNL     1       2.439  14.465  20.583  0.00  0.00    +0.000 A 
ATOM     23  C   UNL     1       2.266  12.988  20.288  0.00  0.00    +0.000 C 
ENDBRANCH   3  12
BRANCH   8  24
ATOM     24  S   UNL     1       3.888   4.454  18.077  0.00  0.00    +0.000 S 
ATOM     25  O   UNL     1       3.907   3.270  18.905  0.00  0.00    +0.000 OA
ATOM     26  O   UNL     1       3.410   4.402  16.705  0.00  0.00    +0.000 OA
BRANCH  24  27
ATOM     27  N   UNL     1       5.471   5.113  18.043  0.00  0.00    +0.000 NA
ATOM     28  C   UNL     1       5.720   6.138  16.997  0.00  0.00    +0.000 C 
ATOM     29  C   UNL     1       7.199   6.503  16.902  0.00  0.00    +0.000 C 
ATOM     30  C   UNL     1       7.767   6.882  18.262  0.00  0.00    +0.000 C 
ATOM     31  C   UNL     1       7.557   5.732  19.235  0.00  0.00    +0.000 C 
ATOM     32  C   UNL     1       6.076   5.395  19.369  0.00  0.00    +0.000 C 
ENDBRANCH  24  27
ENDBRANCH   8  24
BRANCH   1  34
ATOM     33  C   UNL     1      -0.412   9.516  23.117  0.00  0.00    +0.000 C 
ATOM     34  C   UNL     1       0.008   8.278  22.330  0.00  0.00    +0.000 C 
ENDBRANCH   1  34
TORSDOF 4
ENDMDL
MODEL 4
REMARK VINA RESULT:      -8.4      2.952      4.464
REMARK  Name = 
REMARK  5 active torsions:
REMARK  status: ('A' for Active; 'I' for Inactive)
REMARK    1  A    between atoms: C_1  and  C_2
REMARK    2  A    between atoms: C_2  and  N_3
REMARK    3  A    between atoms: C_5  and  C_6
REMARK    4  A    between atoms: C_22  and  S_23
REMARK    5  A    between atoms: S_23  and  N_26
REMARK                            x       y       z     vdW  Elec       q    Type
REMARK                         _______ _______ _______ _____ _____    ______ ____
ROOT
ATOM      1  N   UNL     1       0.726   9.332  21.315  0.00  0.00    +0.000 N 
ATOM      2  C   UNL     1       0.681  10.565  20.659  0.00  0.00    +0.000 A 
ATOM      3  C   UNL     1       1.157  10.860  19.435  0.00  0.00    +0.000 A 
ATOM      4  C   UNL     1       1.718   9.715  18.673  0.00  0.00    +0.000 A 
ATOM      5  O   UNL     1       2.087   9.816  17.510  0.00  0.00    +0.000 OA
ATOM      6  C   UNL     1       1.781   8.378  19.331  0.00  0.00    +0.000 A 
ATOM      7  C   UNL     1       2.317   7.291  18.607  0.00  0.00    +0.000 A 
ATOM      8  C   UNL     1       2.336   6.018  19.180  0.00  0.00    +0.000 A 
ATOM      9  C   UNL     1       1.891   5.844  20.489  0.00  0.00    +0.000 A 
ATOM     10  C   UNL     1       1.374   6.931  21.206  0.00  0.00    +0.000 A 
ATOM     11  C   UNL     1       1.283   8.218  20.642  0.00  0.00    +0.000 A 
ENDROOT
BRANCH   3  12
ATOM     12  C   UNL     1       0.879  12.224  18.857  0.00  0.00    +0.000 C 
ATOM     13  O   UNL     1      -0.167  12.393  18.223  0.00  0.00    +0.000 OA
ATOM     14  N   UNL     1       1.806  13.245  18.988  0.00  0.00    +0.000 N 
ATOM     15  C   UNL     1       1.785  14.381  18.049  0.00  0.00    +0.000 C 
ATOM     16  C   UNL     1       3.193  15.029  17.906  0.00  0.00    +0.000 C 
ATOM     17  C   UNL     1       3.585  15.557  19.271  0.00  0.00    +0.000 A 
ATOM     18  C   UNL     1       4.233  16.779  19.442  0.00  0.00    +0.000 A 
ATOM     19  C   UNL     1       4.014  17.481  20.624  0.00  0.00    +0.000 A 
ATOM     20  C   UNL     1       3.147  16.960  21.588  0.00  0.00    +0.000 A 
ATOM     21  C   UNL     1       2.676  15.647  21.483  0.00  0.00    +0.000 A 
ATOM     22  C   UNL     1       3.001  14.892  20.363  0.00  0.00    +0.000 A 
ATOM     23  C   UNL     1       2.651  13.431  20.164  0.00  0.00    +0.000 C 
ENDBRANCH   3  12
BRANCH   8  24
ATOM     24  S   UNL     1       3.076   4.637  18.325  0.00  0.00    +0.000 S 
ATOM     25  O   UNL     1       3.521   3.700  19.330  0.00  0.00    +0.000 OA
ATOM     26  O   UNL     1       2.147   4.232  17.282  0.00  0.00    +0.000 OA
BRANCH  24  27
ATOM     27  N   UNL     1       4.460   5.292  17.551  0.00  0.00    +0.000 NA
ATOM     28  C   UNL     1       5.599   5.627  18.445  0.00  0.00    +0.000 C 
ATOM     29  C   UNL     1       6.689   6.399  17.707  0.00  0.00    +0.000 C 
ATOM     30  C   UNL     1       7.114   5.682  16.435  0.00  0.00    +0.000 C 
ATOM     31  C   UNL     1       5.901   5.477  15.541  0.00  0.00    +0.000 C 
ATOM     32  C   UNL     1       4.827   4.665  16.257  0.00  0.00    +0.000 C 
ENDBRANCH  24  27
ENDBRANCH   8  24
BRANCH   1  34
ATOM     33  C   UNL     1      -0.801  10.295  23.036  0.00  0.00    +0.000 C 
ATOM     34  C   UNL     1       0.124   9.143  22.653  0.00  0.00    +0.000 C 
ENDBRANCH   1  34
TORSDOF 4
ENDMDL
MODEL 5
REMARK VINA RESULT:      -8.0      2.876      4.914
REMARK  Name = 
REMARK  5 active torsions:
REMARK  status: ('A' for Active; 'I' for Inactive)
REMARK    1  A    between atoms: C_1  and  C_2
REMARK    2  A    between atoms: C_2  and  N_3
REMARK    3  A    between atoms: C_5  and  C_6
REMARK    4  A    between atoms: C_22  and  S_23
REMARK    5  A    between atoms: S_23  and  N_26
REMARK                            x       y       z     vdW  Elec       q    Type
REMARK                         _______ _______ _______ _____ _____    ______ ____
ROOT
ATOM      1  N   UNL     1       1.114  11.009  19.033  0.00  0.00    +0.000 N 
ATOM      2  C   UNL     1       0.340  11.377  20.137  0.00  0.00    +0.000 A 
ATOM      3  C   UNL     1      -0.088  10.585  21.138  0.00  0.00    +0.000 A 
ATOM      4  C   UNL     1       0.393   9.180  21.094  0.00  0.00    +0.000 A 
ATOM      5  O   UNL     1       0.170   8.380  21.995  0.00  0.00    +0.000 OA
ATOM      6  C   UNL     1       1.227   8.744  19.937  0.00  0.00    +0.000 A 
ATOM      7  C   UNL     1       1.681   7.408  19.895  0.00  0.00    +0.000 A 
ATOM      8  C   UNL     1       2.509   6.990  18.851  0.00  0.00    +0.000 A 
ATOM      9  C   UNL     1       2.823   7.875  17.822  0.00  0.00    +0.000 A 
ATOM     10  C   UNL     1       2.355   9.195  17.864  0.00  0.00    +0.000 A 
ATOM     11  C   UNL     1       1.568   9.672  18.930  0.00  0.00    +0.000 A 
ENDROOT
BRANCH   3  12
ATOM     12  C   UNL     1      -0.797  11.214  22.310  0.00  0.00    +0.000 C 
ATOM     13  O   UNL     1      -0.417  10.931  23.450  0.00  0.00    +0.000 OA
ATOM     14  N   UNL     1      -1.884  12.048  22.108  0.00  0.00    +0.000 N 
ATOM     15  C   UNL     1      -2.856  12.264  23.195  0.00  0.00    +0.000 C 
ATOM     16  C   UNL     1      -4.263  12.631  22.638  0.00  0.00    +0.000 C 
ATOM     17  C   UNL     1      -4.119  13.931  21.874  0.00  0.00    +0.000 A 
ATOM     18  C   UNL     1      -5.073  14.945  21.937  0.00  0.00    +0.000 A 
ATOM     19  C   UNL     1      -4.649  16.260  21.772  0.00  0.00    +0.000 A 
ATOM     20  C   UNL     1      -3.292  16.531  21.570  0.00  0.00    +0.000 A 
ATOM     21  C   UNL     1      -2.394  15.491  21.308  0.00  0.00    +0.000 A 
ATOM     22  C   UNL     1      -2.841  14.177  21.341  0.00  0.00    +0.000 A 
ATOM     23  C   UNL     1      -2.010  12.963  20.976  0.00  0.00    +0.000 C 
ENDBRANCH   3  12
BRANCH   8  24
ATOM     24  S   UNL     1       3.039   5.289  18.725  0.00  0.00    +0.000 S 
ATOM     25  O   UNL     1       3.325   4.830  20.064  0.00  0.00    +0.000 OA
ATOM     26  O   UNL     1       2.071   4.600  17.888  0.00  0.00    +0.000 OA
BRANCH  24  27
ATOM     27  N   UNL     1       4.515   5.356  17.853  0.00  0.00    +0.000 NA
ATOM     28  C   UNL     1       5.743   5.503  18.676  0.00  0.00    +0.000 C 
ATOM     29  C   UNL     1       6.973   5.771  17.813  0.00  0.00    +0.000 C 
ATOM     30  C   UNL     1       7.113   4.736  16.707  0.00  0.00    +0.000 C 
ATOM     31  C   UNL     1       5.851   4.732  15.858  0.00  0.00    +0.000 C 
ATOM     32  C   UNL     1       4.624   4.418  16.707  0.00  0.00    +0.000 C 
ENDBRANCH  24  27
ENDBRANCH   8  24
BRANCH   1  34
ATOM     33  C   UNL     1       2.563  12.989  18.587  0.00  0.00    +0.000 C 
ATOM     34  C   UNL     1       1.546  12.001  18.024  0.00  0.00    +0.000 C 
ENDBRANCH   1  34
TORSDOF 4
ENDMDL
MODEL 6
REMARK VINA RESULT:      -7.9      2.880      4.299
REMARK  Name = 
REMARK  5 active torsions:
REMARK  status: ('A' for Active; 'I' for Inactive)
REMARK    1  A    between atoms: C_1  and  C_2
REMARK    2  A    between atoms: C_2  and  N_3
REMARK    3  A    between atoms: C_5  and  C_6
REMARK    4  A    between atoms: C_22  and  S_23
REMARK    5  A    between atoms: S_23  and  N_26
REMARK                            x       y       z     vdW  Elec       q    Type
REMARK                         _______ _______ _______ _____ _____    ______ ____
ROOT
ATOM      1  N   UNL     1       0.197   9.264  20.951  0.00  0.00    +0.000 N 
ATOM      2  C   UNL     1      -0.116  10.510  20.400  0.00  0.00    +0.000 A 
ATOM      3  C   UNL     1       0.420  11.081  19.306  0.00  0.00    +0.000 A 
ATOM      4  C   UNL     1       1.396  10.245  18.560  0.00  0.00    +0.000 A 
ATOM      5  O   UNL     1       1.880  10.594  17.491  0.00  0.00    +0.000 OA
ATOM      6  C   UNL     1       1.756   8.904  19.107  0.00  0.00    +0.000 A 
ATOM      7  C   UNL     1       2.685   8.112  18.400  0.00  0.00    +0.000 A 
ATOM      8  C   UNL     1       2.998   6.831  18.861  0.00  0.00    +0.000 A 
ATOM      9  C   UNL     1       2.443   6.374  20.054  0.00  0.00    +0.000 A 
ATOM     10  C   UNL     1       1.533   7.173  20.758  0.00  0.00    +0.000 A 
ATOM     11  C   UNL     1       1.146   8.445  20.295  0.00  0.00    +0.000 A 
ENDROOT
BRANCH   3  12
ATOM     12  C   UNL     1      -0.162  12.376  18.802  0.00  0.00    +0.000 C 
ATOM     13  O   UNL     1      -1.029  12.331  17.923  0.00  0.00    +0.000 OA
ATOM     14  N   UNL     1       0.306  13.590  19.278  0.00  0.00    +0.000 N 
ATOM     15  C   UNL     1       0.118  14.815  18.479  0.00  0.00    +0.000 C 
ATOM     16  C   UNL     1       1.216  15.873  18.791  0.00  0.00    +0.000 C 
ATOM     17  C   UNL     1       1.081  16.243  20.254  0.00  0.00    +0.000 A 
ATOM     18  C   UNL     1       1.217  17.553  20.710  0.00  0.00    +0.000 A 
ATOM     19  C   UNL     1       0.508  17.934  21.845  0.00  0.00    +0.000 A 
ATOM     20  C   UNL     1      -0.329  17.011  22.480  0.00  0.00    +0.000 A 
ATOM     21  C   UNL     1      -0.289  15.657  22.128  0.00  0.00    +0.000 A 
ATOM     22  C   UNL     1       0.521  15.249  21.076  0.00  0.00    +0.000 A 
ATOM     23  C   UNL     1       0.743  13.811  20.654  0.00  0.00    +0.000 C 
ENDBRANCH   3  12
BRANCH   8  24
ATOM     24  S   UNL     1       4.225   5.832  18.035  0.00  0.00    +0.000 S 
ATOM     25  O   UNL     1       4.082   6.065  16.617  0.00  0.00    +0.000 OA
ATOM     26  O   UNL     1       5.492   6.066  18.709  0.00  0.00    +0.000 OA
BRANCH  24  27
ATOM     27  N   UNL     1       3.763   4.213  18.363  0.00  0.00    +0.000 NA
ATOM     28  C   UNL     1       3.134   3.482  17.233  0.00  0.00    +0.000 C 
ATOM     29  C   UNL     1       2.563   2.137  17.676  0.00  0.00    +0.000 C 
ATOM     30  C   UNL     1       3.599   1.312  18.423  0.00  0.00    +0.000 C 
ATOM     31  C   UNL     1       4.107   2.102  19.619  0.00  0.00    +0.000 C 
ATOM     32  C   UNL     1       4.722   3.425  19.177  0.00  0.00    +0.000 C 
ENDBRANCH  24  27
ENDBRANCH   8  24
BRANCH   1  34
ATOM     33  C   UNL     1      -0.244   9.596  23.383  0.00  0.00    +0.000 C 
ATOM     34  C   UNL     1      -0.507   8.745  22.144  0.00  0.00    +0.000 C 
ENDBRANCH   1  34
TORSDOF 4
ENDMDL
MODEL 7
REMARK VINA RESULT:      -7.9      2.825      4.213
REMARK  Name = 
REMARK  5 active torsions:
REMARK  status: ('A' for Active; 'I' for Inactive)
REMARK    1  A    between atoms: C_1  and  C_2
REMARK    2  A    between atoms: C_2  and  N_3
REMARK    3  A    between atoms: C_5  and  C_6
REMARK    4  A    between atoms: C_22  and  S_23
REMARK    5  A    between atoms: S_23  and  N_26
REMARK                            x       y       z     vdW  Elec       q    Type
REMARK                         _______ _______ _______ _____ _____    ______ ____
ROOT
ATOM      1  N   UNL     1       1.163   8.157  21.172  0.00  0.00    +0.000 N 
ATOM      2  C   UNL     1       0.911   9.319  20.436  0.00  0.00    +0.000 A 
ATOM      3  C   UNL     1       1.307   9.595  19.179  0.00  0.00    +0.000 A 
ATOM      4  C   UNL     1       2.022   8.498  18.477  0.00  0.00    +0.000 A 
ATOM      5  O   UNL     1       2.343   8.571  17.298  0.00  0.00    +0.000 OA
ATOM      6  C   UNL     1       2.307   7.237  19.221  0.00  0.00    +0.000 A 
ATOM      7  C   UNL     1       2.988   6.196  18.555  0.00  0.00    +0.000 A 
ATOM      8  C   UNL     1       3.218   4.986  19.211  0.00  0.00    +0.000 A 
ATOM      9  C   UNL     1       2.836   4.840  20.543  0.00  0.00    +0.000 A 
ATOM     10  C   UNL     1       2.174   5.883  21.203  0.00  0.00    +0.000 A 
ATOM     11  C   UNL     1       1.870   7.097  20.557  0.00  0.00    +0.000 A 
ENDROOT
BRANCH   3  12
ATOM     12  C   UNL     1       0.807  10.854  18.520  0.00  0.00    +0.000 C 
ATOM     13  O   UNL     1       1.609  11.771  18.313  0.00  0.00    +0.000 OA
ATOM     14  N   UNL     1      -0.534  10.998  18.206  0.00  0.00    +0.000 N 
ATOM     15  C   UNL     1      -1.108  12.345  18.030  0.00  0.00    +0.000 C 
ATOM     16  C   UNL     1      -2.632  12.362  18.346  0.00  0.00    +0.000 C 
ATOM     17  C   UNL     1      -3.306  11.434  17.356  0.00  0.00    +0.000 A 
ATOM     18  C   UNL     1      -4.527  11.738  16.758  0.00  0.00    +0.000 A 
ATOM     19  C   UNL     1      -4.782  11.235  15.485  0.00  0.00    +0.000 A 
ATOM     20  C   UNL     1      -3.811  10.466  14.837  0.00  0.00    +0.000 A 
ATOM     21  C   UNL     1      -2.688  10.007  15.535  0.00  0.00    +0.000 A 
ATOM     22  C   UNL     1      -2.496  10.400  16.853  0.00  0.00    +0.000 A 
ATOM     23  C   UNL     1      -1.388   9.901  17.759  0.00  0.00    +0.000 C 
ENDBRANCH   3  12
BRANCH   8  24
ATOM     24  S   UNL     1       4.144   3.676  18.426  0.00  0.00    +0.000 S 
ATOM     25  O   UNL     1       5.014   3.107  19.429  0.00  0.00    +0.000 OA
ATOM     26  O   UNL     1       3.190   2.850  17.705  0.00  0.00    +0.000 OA
BRANCH  24  27
ATOM     27  N   UNL     1       5.118   4.470  17.258  0.00  0.00    +0.000 NA
ATOM     28  C   UNL     1       6.500   4.804  17.692  0.00  0.00    +0.000 C 
ATOM     29  C   UNL     1       7.213   5.693  16.677  0.00  0.00    +0.000 C 
ATOM     30  C   UNL     1       7.149   5.100  15.277  0.00  0.00    +0.000 C 
ATOM     31  C   UNL     1       5.695   4.892  14.882  0.00  0.00    +0.000 C 
ATOM     32  C   UNL     1       4.991   3.965  15.868  0.00  0.00    +0.000 C 
ENDBRANCH  24  27
ENDBRANCH   8  24
BRANCH   1  34
ATOM     33  C   UNL     1       0.011   9.257  23.092  0.00  0.00    +0.000 C 
ATOM     34  C   UNL     1       0.628   7.975  22.539  0.00  0.00    +0.000 C 
ENDBRANCH   1  34
TORSDOF 4
ENDMDL
MODEL 8
REMARK VINA RESULT:      -7.9      3.165      5.659
REMARK  Name = 
REMARK  5 active torsions:
REMARK  status: ('A' for Active; 'I' for Inactive)
REMARK    1  A    between atoms: C_1  and  C_2
REMARK    2  A    between atoms: C_2  and  N_3
REMARK    3  A    between atoms: C_5  and  C_6
REMARK    4  A    between atoms: C_22  and  S_23
REMARK    5  A    between atoms: S_23  and  N_26
REMARK                            x       y       z     vdW  Elec       q    Type
REMARK                         _______ _______ _______ _____ _____    ______ ____
ROOT
ATOM      1  N   UNL     1       1.033  11.941  18.951  0.00  0.00    +0.000 N 
ATOM      2  C   UNL     1       0.306  12.445  20.033  0.00  0.00    +0.000 A 
ATOM      3  C   UNL     1      -0.168  11.762  21.091  0.00  0.00    +0.000 A 
ATOM      4  C   UNL     1       0.201  10.323  21.143  0.00  0.00    +0.000 A 
ATOM      5  O   UNL     1      -0.071   9.608  22.100  0.00  0.00    +0.000 OA
ATOM      6  C   UNL     1       0.982   9.743  20.013  0.00  0.00    +0.000 A 
ATOM      7  C   UNL     1       1.329   8.376  20.061  0.00  0.00    +0.000 A 
ATOM      8  C   UNL     1       2.107   7.821  19.043  0.00  0.00    +0.000 A 
ATOM      9  C   UNL     1       2.474   8.605  17.951  0.00  0.00    +0.000 A 
ATOM     10  C   UNL     1       2.112   9.957  17.903  0.00  0.00    +0.000 A 
ATOM     11  C   UNL     1       1.380  10.568  18.939  0.00  0.00    +0.000 A 
ENDROOT
BRANCH   3  12
ATOM     12  C   UNL     1      -0.809  12.525  22.222  0.00  0.00    +0.000 C 
ATOM     13  O   UNL     1      -0.078  13.038  23.076  0.00  0.00    +0.000 OA
ATOM     14  N   UNL     1      -2.188  12.601  22.327  0.00  0.00    +0.000 N 
ATOM     15  C   UNL     1      -2.811  12.898  23.629  0.00  0.00    +0.000 C 
ATOM     16  C   UNL     1      -4.249  12.307  23.722  0.00  0.00    +0.000 C 
ATOM     17  C   UNL     1      -5.078  12.974  22.644  0.00  0.00    +0.000 A 
ATOM     18  C   UNL     1      -6.396  13.374  22.854  0.00  0.00    +0.000 A 
ATOM     19  C   UNL     1      -6.877  14.467  22.139  0.00  0.00    +0.000 A 
ATOM     20  C   UNL     1      -6.030  15.141  21.254  0.00  0.00    +0.000 A 
ATOM     21  C   UNL     1      -4.786  14.599  20.910  0.00  0.00    +0.000 A 
ATOM     22  C   UNL     1      -4.357  13.431  21.526  0.00  0.00    +0.000 A 
ATOM     23  C   UNL     1      -3.089  12.677  21.179  0.00  0.00    +0.000 C 
ENDBRANCH   3  12
BRANCH   8  24
ATOM     24  S   UNL     1       2.500   6.080  19.032  0.00  0.00    +0.000 S 
ATOM     25  O   UNL     1       2.413   5.614  20.397  0.00  0.00    +0.000 OA
ATOM     26  O   UNL     1       1.707   5.468  17.979  0.00  0.00    +0.000 OA
BRANCH  24  27
ATOM     27  N   UNL     1       4.143   6.006  18.544  0.00  0.00    +0.000 NA
ATOM     28  C   UNL     1       5.047   5.239  19.439  0.00  0.00    +0.000 C 
ATOM     29  C   UNL     1       6.512   5.410  19.046  0.00  0.00    +0.000 C 
ATOM     30  C   UNL     1       6.731   5.110  17.571  0.00  0.00    +0.000 C 
ATOM     31  C   UNL     1       5.840   6.014  16.734  0.00  0.00    +0.000 C 
ATOM     32  C   UNL     1       4.371   5.812  17.090  0.00  0.00    +0.000 C 
ENDBRANCH  24  27
ENDBRANCH   8  24
BRANCH   1  34
ATOM     33  C   UNL     1       2.737  13.643  18.305  0.00  0.00    +0.000 C 
ATOM     34  C   UNL     1       1.527  12.823  17.871  0.00  0.00    +0.000 C 
ENDBRANCH   1  34
TORSDOF 4
ENDMDL
MODEL 9
REMARK VINA RESULT:      -7.9      3.483      5.569
REMARK  Name = 
REMARK  5 active torsions:
REMARK  status: ('A' for Active; 'I' for Inactive)
REMARK    1  A    between atoms: C_1  and  C_2
REMARK    2  A    between atoms: C_2  and  N_3
REMARK    3  A    between atoms: C_5  and  C_6
REMARK    4  A    between atoms: C_22  and  S_23
REMARK    5  A    between atoms: S_23  and  N_26
REMARK                            x       y       z     vdW  Elec       q    Type
REMARK                         _______ _______ _______ _____ _____    ______ ____
ROOT
ATOM      1  N   UNL     1       0.820  11.053  19.089  0.00  0.00    +0.000 N 
ATOM      2  C   UNL     1       0.093  11.312  20.255  0.00  0.00    +0.000 A 
ATOM      3  C   UNL     1      -0.128  10.474  21.285  0.00  0.00    +0.000 A 
ATOM      4  C   UNL     1       0.553   9.157  21.198  0.00  0.00    +0.000 A 
ATOM      5  O   UNL     1       0.529   8.341  22.111  0.00  0.00    +0.000 OA
ATOM      6  C   UNL     1       1.346   8.840  19.975  0.00  0.00    +0.000 A 
ATOM      7  C   UNL     1       1.991   7.587  19.891  0.00  0.00    +0.000 A 
ATOM      8  C   UNL     1       2.783   7.288  18.781  0.00  0.00    +0.000 A 
ATOM      9  C   UNL     1       2.874   8.200  17.733  0.00  0.00    +0.000 A 
ATOM     10  C   UNL     1       2.219   9.435  17.816  0.00  0.00    +0.000 A 
ATOM     11  C   UNL     1       1.459   9.799  18.945  0.00  0.00    +0.000 A 
ENDROOT
BRANCH   3  12
ATOM     12  C   UNL     1      -0.824  11.002  22.514  0.00  0.00    +0.000 C 
ATOM     13  O   UNL     1      -0.505  10.544  23.615  0.00  0.00    +0.000 OA
ATOM     14  N   UNL     1      -1.838  11.938  22.399  0.00  0.00    +0.000 N 
ATOM     15  C   UNL     1      -2.826  12.089  23.483  0.00  0.00    +0.000 C 
ATOM     16  C   UNL     1      -4.182  12.634  22.948  0.00  0.00    +0.000 C 
ATOM     17  C   UNL     1      -3.915  14.007  22.365  0.00  0.00    +0.000 A 
ATOM     18  C   UNL     1      -4.791  15.077  22.539  0.00  0.00    +0.000 A 
ATOM     19  C   UNL     1      -4.264  16.365  22.557  0.00  0.00    +0.000 A 
ATOM     20  C   UNL     1      -2.884  16.550  22.423  0.00  0.00    +0.000 A 
ATOM     21  C   UNL     1      -2.059  15.485  22.046  0.00  0.00    +0.000 A 
ATOM     22  C   UNL     1      -2.606  14.217  21.897  0.00  0.00    +0.000 A 
ATOM     23  C   UNL     1      -1.858  12.998  21.395  0.00  0.00    +0.000 C 
ENDBRANCH   3  12
BRANCH   8  24
ATOM     24  S   UNL     1       3.550   5.685  18.607  0.00  0.00    +0.000 S 
ATOM     25  O   UNL     1       3.749   5.458  17.194  0.00  0.00    +0.000 OA
ATOM     26  O   UNL     1       4.666   5.640  19.537  0.00  0.00    +0.000 OA
BRANCH  24  27
ATOM     27  N   UNL     1       2.371   4.573  19.168  0.00  0.00    +0.000 NA
ATOM     28  C   UNL     1       1.923   3.556  18.182  0.00  0.00    +0.000 C 
ATOM     29  C   UNL     1       0.728   2.757  18.695  0.00  0.00    +0.000 C 
ATOM     30  C   UNL     1       0.999   2.176  20.074  0.00  0.00    +0.000 C 
ATOM     31  C   UNL     1       1.347   3.302  21.036  0.00  0.00    +0.000 C 
ATOM     32  C   UNL     1       2.569   4.073  20.552  0.00  0.00    +0.000 C 
ENDBRANCH  24  27
ENDBRANCH   8  24
BRANCH   1  34
ATOM     33  C   UNL     1       2.193  13.005  18.363  0.00  0.00    +0.000 C 
ATOM     34  C   UNL     1       1.013  12.089  18.051  0.00  0.00    +0.000 C 
ENDBRANCH   1  34
TORSDOF 4
ENDMDL
