MODEL 1
REMARK VINA RESULT:      -8.1      0.000      0.000
REMARK  Name = 
REMARK  1 active torsions:
REMARK  status: ('A' for Active; 'I' for Inactive)
REMARK    1  A    between atoms: C_5  and  C_6
REMARK                            x       y       z     vdW  Elec       q    Type
REMARK                         _______ _______ _______ _____ _____    ______ ____
ROOT
ATOM      1  C   UNL     1       5.076   4.714  17.768  0.00  0.00    +0.000 A 
ATOM      2  C   UNL     1       5.757   5.499  18.704  0.00  0.00    +0.000 A 
ATOM      3  S   UNL     1       7.108   6.180  17.942  0.00  0.00    +0.000 S 
ATOM      4  C   UNL     1       6.759   5.454  16.467  0.00  0.00    +0.000 A 
ATOM      5  N   UNL     1       7.528   5.580  15.277  0.00  0.00    +0.000 N 
ATOM      6  C   UNL     1       7.149   4.923  14.066  0.00  0.00    +0.000 C 
ATOM      7  N   UNL     1       6.083   4.213  13.962  0.00  0.00    +0.000 NA
ATOM      8  C   UNL     1       6.015   3.543  12.694  0.00  0.00    +0.000 C 
ATOM      9  C   UNL     1       6.992   4.333  11.839  0.00  0.00    +0.000 C 
ATOM     10  C   UNL     1       8.012   4.845  12.853  0.00  0.00    +0.000 C 
ATOM     11  N   UNL     1       5.650   4.705  16.541  0.00  0.00    +0.000 NA
ATOM     12  H   UNL     1       8.395   6.138  15.295  0.00  0.00    +0.000 HD
ENDROOT
BRANCH   1  17
ATOM     13  F   UNL     1       0.219   2.007  18.735  0.00  0.00    +0.000 F 
ATOM     14  C   UNL     1       1.392   2.631  18.479  0.00  0.00    +0.000 A 
ATOM     15  C   UNL     1       2.606   1.960  18.654  0.00  0.00    +0.000 A 
ATOM     16  C   UNL     1       3.819   2.615  18.408  0.00  0.00    +0.000 A 
ATOM     17  C   UNL     1       3.821   3.957  17.990  0.00  0.00    +0.000 A 
ATOM     18  C   UNL     1       2.587   4.613  17.803  0.00  0.00    +0.000 A 
ATOM     19  C   UNL     1       1.384   3.954  18.044  0.00  0.00    +0.000 A 
ENDBRANCH   1  17
TORSDOF 1
ENDMDL
MODEL 2
REMARK VINA RESULT:      -8.0      0.116      1.145
REMARK  Name = 
REMARK  1 active torsions:
REMARK  status: ('A' for Active; 'I' for Inactive)
REMARK    1  A    between atoms: C_5  and  C_6
REMARK                            x       y       z     vdW  Elec       q    Type
REMARK                         _______ _______ _______ _____ _____    ______ ____
ROOT
ATOM      1  C   UNL     1       5.092   4.735  17.868  0.00  0.00    +0.000 A 
ATOM      2  C   UNL     1       5.817   5.481  18.803  0.00  0.00    +0.000 A 
ATOM      3  S   UNL     1       7.184   6.115  18.029  0.00  0.00    +0.000 S 
ATOM      4  C   UNL     1       6.786   5.419  16.552  0.00  0.00    +0.000 A 
ATOM      5  N   UNL     1       7.544   5.526  15.353  0.00  0.00    +0.000 N 
ATOM      6  C   UNL     1       7.121   4.898  14.140  0.00  0.00    +0.000 C 
ATOM      7  N   UNL     1       6.026   4.234  14.044  0.00  0.00    +0.000 NA
ATOM      8  C   UNL     1       5.913   3.580  12.771  0.00  0.00    +0.000 C 
ATOM      9  C   UNL     1       6.910   4.338  11.910  0.00  0.00    +0.000 C 
ATOM     10  C   UNL     1       7.964   4.797  12.915  0.00  0.00    +0.000 C 
ATOM     11  N   UNL     1       5.648   4.715  16.634  0.00  0.00    +0.000 NA
ATOM     12  H   UNL     1       8.433   6.047  15.365  0.00  0.00    +0.000 HD
ENDROOT
BRANCH   1  17
ATOM     13  F   UNL     1       0.294   1.863  18.640  0.00  0.00    +0.000 F 
ATOM     14  C   UNL     1       1.433   2.577  18.478  0.00  0.00    +0.000 A 
ATOM     15  C   UNL     1       1.384   3.896  18.018  0.00  0.00    +0.000 A 
ATOM     16  C   UNL     1       2.566   4.625  17.832  0.00  0.00    +0.000 A 
ATOM     17  C   UNL     1       3.809   4.028  18.100  0.00  0.00    +0.000 A 
ATOM     18  C   UNL     1       3.839   2.702  18.578  0.00  0.00    +0.000 A 
ATOM     19  C   UNL     1       2.660   1.985  18.766  0.00  0.00    +0.000 A 
ENDBRANCH   1  17
TORSDOF 1
ENDMDL
MODEL 3
REMARK VINA RESULT:      -7.1      3.879      4.897
REMARK  Name = 
REMARK  1 active torsions:
REMARK  status: ('A' for Active; 'I' for Inactive)
REMARK    1  A    between atoms: C_5  and  C_6
REMARK                            x       y       z     vdW  Elec       q    Type
REMARK                         _______ _______ _______ _____ _____    ______ ____
ROOT
ATOM      1  C   UNL     1       2.665   5.745  19.609  0.00  0.00    +0.000 A 
ATOM      2  C   UNL     1       2.435   4.747  20.562  0.00  0.00    +0.000 A 
ATOM      3  S   UNL     1       3.314   3.371  20.109  0.00  0.00    +0.000 S 
ATOM      4  C   UNL     1       3.945   4.110  18.737  0.00  0.00    +0.000 A 
ATOM      5  N   UNL     1       4.824   3.505  17.798  0.00  0.00    +0.000 N 
ATOM      6  C   UNL     1       5.311   4.217  16.659  0.00  0.00    +0.000 C 
ATOM      7  N   UNL     1       5.020   5.447  16.429  0.00  0.00    +0.000 NA
ATOM      8  C   UNL     1       5.508   5.876  15.149  0.00  0.00    +0.000 C 
ATOM      9  C   UNL     1       6.566   4.836  14.822  0.00  0.00    +0.000 C 
ATOM     10  C   UNL     1       6.061   3.585  15.536  0.00  0.00    +0.000 C 
ATOM     11  N   UNL     1       3.500   5.369  18.613  0.00  0.00    +0.000 NA
ATOM     12  H   UNL     1       5.096   2.519  17.928  0.00  0.00    +0.000 HD
ENDROOT
BRANCH   1  17
ATOM     13  F   UNL     1       0.408  10.917  19.751  0.00  0.00    +0.000 F 
ATOM     14  C   UNL     1       0.981   9.691  19.709  0.00  0.00    +0.000 A 
ATOM     15  C   UNL     1       1.598   9.237  18.539  0.00  0.00    +0.000 A 
ATOM     16  C   UNL     1       2.172   7.960  18.492  0.00  0.00    +0.000 A 
ATOM     17  C   UNL     1       2.122   7.125  19.622  0.00  0.00    +0.000 A 
ATOM     18  C   UNL     1       1.509   7.606  20.797  0.00  0.00    +0.000 A 
ATOM     19  C   UNL     1       0.946   8.879  20.839  0.00  0.00    +0.000 A 
ENDBRANCH   1  17
TORSDOF 1
ENDMDL
MODEL 4
REMARK VINA RESULT:      -7.0      3.873      4.880
REMARK  Name = 
REMARK  1 active torsions:
REMARK  status: ('A' for Active; 'I' for Inactive)
REMARK    1  A    between atoms: C_5  and  C_6
REMARK                            x       y       z     vdW  Elec       q    Type
REMARK                         _______ _______ _______ _____ _____    ______ ____
ROOT
ATOM      1  C   UNL     1       2.629   5.710  19.609  0.00  0.00    +0.000 A 
ATOM      2  C   UNL     1       2.408   4.709  20.561  0.00  0.00    +0.000 A 
ATOM      3  S   UNL     1       3.309   3.346  20.113  0.00  0.00    +0.000 S 
ATOM      4  C   UNL     1       3.936   4.093  18.744  0.00  0.00    +0.000 A 
ATOM      5  N   UNL     1       4.829   3.500  17.809  0.00  0.00    +0.000 N 
ATOM      6  C   UNL     1       5.311   4.219  16.672  0.00  0.00    +0.000 C 
ATOM      7  N   UNL     1       5.003   5.445  16.441  0.00  0.00    +0.000 NA
ATOM      8  C   UNL     1       5.491   5.880  15.163  0.00  0.00    +0.000 C 
ATOM      9  C   UNL     1       6.566   4.855  14.841  0.00  0.00    +0.000 C 
ATOM     10  C   UNL     1       6.075   3.597  15.553  0.00  0.00    +0.000 C 
ATOM     11  N   UNL     1       3.474   5.346  18.617  0.00  0.00    +0.000 NA
ATOM     12  H   UNL     1       5.114   2.518  17.940  0.00  0.00    +0.000 HD
ENDROOT
BRANCH   1  17
ATOM     13  F   UNL     1       0.681  11.008  19.548  0.00  0.00    +0.000 F 
ATOM     14  C   UNL     1       1.115   9.726  19.571  0.00  0.00    +0.000 A 
ATOM     15  C   UNL     1       1.005   8.960  20.736  0.00  0.00    +0.000 A 
ATOM     16  C   UNL     1       1.474   7.641  20.764  0.00  0.00    +0.000 A 
ATOM     17  C   UNL     1       2.067   7.082  19.619  0.00  0.00    +0.000 A 
ATOM     18  C   UNL     1       2.156   7.864  18.448  0.00  0.00    +0.000 A 
ATOM     19  C   UNL     1       1.682   9.173  18.426  0.00  0.00    +0.000 A 
ENDBRANCH   1  17
TORSDOF 1
ENDMDL
MODEL 5
REMARK VINA RESULT:      -6.9      4.087      6.827
REMARK  Name = 
REMARK  1 active torsions:
REMARK  status: ('A' for Active; 'I' for Inactive)
REMARK    1  A    between atoms: C_5  and  C_6
REMARK                            x       y       z     vdW  Elec       q    Type
REMARK                         _______ _______ _______ _____ _____    ______ ____
ROOT
ATOM      1  C   UNL     1       4.235   4.077  18.858  0.00  0.00    +0.000 A 
ATOM      2  C   UNL     1       4.100   2.924  19.636  0.00  0.00    +0.000 A 
ATOM      3  S   UNL     1       2.974   3.240  20.862  0.00  0.00    +0.000 S 
ATOM      4  C   UNL     1       2.710   4.816  20.341  0.00  0.00    +0.000 A 
ATOM      5  N   UNL     1       1.828   5.754  20.945  0.00  0.00    +0.000 N 
ATOM      6  C   UNL     1       1.668   7.076  20.427  0.00  0.00    +0.000 C 
ATOM      7  N   UNL     1       2.275   7.489  19.372  0.00  0.00    +0.000 NA
ATOM      8  C   UNL     1       2.062   8.892  19.155  0.00  0.00    +0.000 C 
ATOM      9  C   UNL     1       0.830   9.184  19.995  0.00  0.00    +0.000 C 
ATOM     10  C   UNL     1       0.927   8.164  21.126  0.00  0.00    +0.000 C 
ATOM     11  N   UNL     1       3.458   5.108  19.267  0.00  0.00    +0.000 NA
ATOM     12  H   UNL     1       1.311   5.482  21.794  0.00  0.00    +0.000 HD
ENDROOT
BRANCH   1  17
ATOM     13  F   UNL     1       7.577   4.902  14.384  0.00  0.00    +0.000 F 
ATOM     14  C   UNL     1       6.768   4.671  15.445  0.00  0.00    +0.000 A 
ATOM     15  C   UNL     1       5.425   4.334  15.253  0.00  0.00    +0.000 A 
ATOM     16  C   UNL     1       4.586   4.117  16.354  0.00  0.00    +0.000 A 
ATOM     17  C   UNL     1       5.091   4.243  17.659  0.00  0.00    +0.000 A 
ATOM     18  C   UNL     1       6.453   4.568  17.833  0.00  0.00    +0.000 A 
ATOM     19  C   UNL     1       7.282   4.777  16.734  0.00  0.00    +0.000 A 
ENDBRANCH   1  17
TORSDOF 1
ENDMDL
MODEL 6
REMARK VINA RESULT:      -6.8      4.075      6.777
REMARK  Name = 
REMARK  1 active torsions:
REMARK  status: ('A' for Active; 'I' for Inactive)
REMARK    1  A    between atoms: C_5  and  C_6
REMARK                            x       y       z     vdW  Elec       q    Type
REMARK                         _______ _______ _______ _____ _____    ______ ____
ROOT
ATOM      1  C   UNL     1       4.282   4.151  18.820  0.00  0.00    +0.000 A 
ATOM      2  C   UNL     1       4.153   2.989  19.587  0.00  0.00    +0.000 A 
ATOM      3  S   UNL     1       3.010   3.281  20.803  0.00  0.00    +0.000 S 
ATOM      4  C   UNL     1       2.732   4.858  20.294  0.00  0.00    +0.000 A 
ATOM      5  N   UNL     1       1.833   5.779  20.898  0.00  0.00    +0.000 N 
ATOM      6  C   UNL     1       1.662   7.103  20.389  0.00  0.00    +0.000 C 
ATOM      7  N   UNL     1       2.275   7.534  19.345  0.00  0.00    +0.000 NA
ATOM      8  C   UNL     1       2.047   8.936  19.138  0.00  0.00    +0.000 C 
ATOM      9  C   UNL     1       0.802   9.205  19.967  0.00  0.00    +0.000 C 
ATOM     10  C   UNL     1       0.900   8.176  21.090  0.00  0.00    +0.000 C 
ATOM     11  N   UNL     1       3.488   5.168  19.231  0.00  0.00    +0.000 NA
ATOM     12  H   UNL     1       1.310   5.493  21.739  0.00  0.00    +0.000 HD
ENDROOT
BRANCH   1  17
ATOM     13  F   UNL     1       7.492   4.673  14.207  0.00  0.00    +0.000 F 
ATOM     14  C   UNL     1       6.731   4.581  15.323  0.00  0.00    +0.000 A 
ATOM     15  C   UNL     1       7.308   4.730  16.588  0.00  0.00    +0.000 A 
ATOM     16  C   UNL     1       6.522   4.614  17.742  0.00  0.00    +0.000 A 
ATOM     17  C   UNL     1       5.148   4.338  17.632  0.00  0.00    +0.000 A 
ATOM     18  C   UNL     1       4.581   4.207  16.347  0.00  0.00    +0.000 A 
ATOM     19  C   UNL     1       5.367   4.329  15.204  0.00  0.00    +0.000 A 
ENDBRANCH   1  17
TORSDOF 1
ENDMDL
MODEL 7
REMARK VINA RESULT:      -6.8      2.858      6.160
REMARK  Name = 
REMARK  1 active torsions:
REMARK  status: ('A' for Active; 'I' for Inactive)
REMARK    1  A    between atoms: C_5  and  C_6
REMARK                            x       y       z     vdW  Elec       q    Type
REMARK                         _______ _______ _______ _____ _____    ______ ____
ROOT
ATOM      1  C   UNL     1       6.447   5.056  16.990  0.00  0.00    +0.000 A 
ATOM      2  C   UNL     1       7.522   5.524  17.753  0.00  0.00    +0.000 A 
ATOM      3  S   UNL     1       7.004   5.676  19.359  0.00  0.00    +0.000 S 
ATOM      4  C   UNL     1       5.451   5.137  19.008  0.00  0.00    +0.000 A 
ATOM      5  N   UNL     1       4.387   5.005  19.943  0.00  0.00    +0.000 N 
ATOM      6  C   UNL     1       3.097   4.534  19.548  0.00  0.00    +0.000 C 
ATOM      7  N   UNL     1       2.825   4.169  18.346  0.00  0.00    +0.000 NA
ATOM      8  C   UNL     1       1.427   3.886  18.183  0.00  0.00    +0.000 C 
ATOM      9  C   UNL     1       0.951   3.682  19.611  0.00  0.00    +0.000 C 
ATOM     10  C   UNL     1       1.891   4.569  20.424  0.00  0.00    +0.000 C 
ATOM     11  N   UNL     1       5.316   4.851  17.705  0.00  0.00    +0.000 NA
ATOM     12  H   UNL     1       4.542   5.281  20.923  0.00  0.00    +0.000 HD
ENDROOT
BRANCH   1  17
ATOM     13  F   UNL     1       6.439   3.667  11.519  0.00  0.00    +0.000 F 
ATOM     14  C   UNL     1       6.441   4.034  12.822  0.00  0.00    +0.000 A 
ATOM     15  C   UNL     1       7.479   4.818  13.336  0.00  0.00    +0.000 A 
ATOM     16  C   UNL     1       7.489   5.179  14.689  0.00  0.00    +0.000 A 
ATOM     17  C   UNL     1       6.457   4.748  15.540  0.00  0.00    +0.000 A 
ATOM     18  C   UNL     1       5.410   3.971  15.001  0.00  0.00    +0.000 A 
ATOM     19  C   UNL     1       5.404   3.621  13.653  0.00  0.00    +0.000 A 
ENDBRANCH   1  17
TORSDOF 1
ENDMDL
MODEL 8
REMARK VINA RESULT:      -6.7      4.483      6.994
REMARK  Name = 
REMARK  1 active torsions:
REMARK  status: ('A' for Active; 'I' for Inactive)
REMARK    1  A    between atoms: C_5  and  C_6
REMARK                            x       y       z     vdW  Elec       q    Type
REMARK                         _______ _______ _______ _____ _____    ______ ____
ROOT
ATOM      1  C   UNL     1       3.558   5.107  18.723  0.00  0.00    +0.000 A 
ATOM      2  C   UNL     1       3.442   4.053  19.635  0.00  0.00    +0.000 A 
ATOM      3  S   UNL     1       2.449   4.563  20.909  0.00  0.00    +0.000 S 
ATOM      4  C   UNL     1       2.211   6.086  20.239  0.00  0.00    +0.000 A 
ATOM      5  N   UNL     1       1.433   7.132  20.808  0.00  0.00    +0.000 N 
ATOM      6  C   UNL     1       1.288   8.397  20.160  0.00  0.00    +0.000 C 
ATOM      7  N   UNL     1       1.814   8.659  19.017  0.00  0.00    +0.000 NA
ATOM      8  C   UNL     1       1.648  10.041  18.663  0.00  0.00    +0.000 C 
ATOM      9  C   UNL     1       0.512  10.490  19.568  0.00  0.00    +0.000 C 
ATOM     10  C   UNL     1       0.665   9.594  20.794  0.00  0.00    +0.000 C 
ATOM     11  N   UNL     1       2.871   6.218  19.079  0.00  0.00    +0.000 NA
ATOM     12  H   UNL     1       0.984   6.982  21.724  0.00  0.00    +0.000 HD
ENDROOT
BRANCH   1  17
ATOM     13  F   UNL     1       6.567   4.923  13.950  0.00  0.00    +0.000 F 
ATOM     14  C   UNL     1       5.818   4.983  15.077  0.00  0.00    +0.000 A 
ATOM     15  C   UNL     1       5.354   6.212  15.556  0.00  0.00    +0.000 A 
ATOM     16  C   UNL     1       4.598   6.272  16.734  0.00  0.00    +0.000 A 
ATOM     17  C   UNL     1       4.308   5.094  17.443  0.00  0.00    +0.000 A 
ATOM     18  C   UNL     1       4.770   3.862  16.936  0.00  0.00    +0.000 A 
ATOM     19  C   UNL     1       5.517   3.809  15.762  0.00  0.00    +0.000 A 
ENDBRANCH   1  17
TORSDOF 1
ENDMDL
MODEL 9
REMARK VINA RESULT:      -6.7      2.884      6.193
REMARK  Name = 
REMARK  1 active torsions:
REMARK  status: ('A' for Active; 'I' for Inactive)
REMARK    1  A    between atoms: C_5  and  C_6
REMARK                            x       y       z     vdW  Elec       q    Type
REMARK                         _______ _______ _______ _____ _____    ______ ____
ROOT
ATOM      1  C   UNL     1       6.424   4.939  16.960  0.00  0.00    +0.000 A 
ATOM      2  C   UNL     1       7.479   5.431  17.736  0.00  0.00    +0.000 A 
ATOM      3  S   UNL     1       6.932   5.590  19.332  0.00  0.00    +0.000 S 
ATOM      4  C   UNL     1       5.394   5.023  18.961  0.00  0.00    +0.000 A 
ATOM      5  N   UNL     1       4.317   4.882  19.880  0.00  0.00    +0.000 N 
ATOM      6  C   UNL     1       3.041   4.387  19.469  0.00  0.00    +0.000 C 
ATOM      7  N   UNL     1       2.795   4.006  18.266  0.00  0.00    +0.000 NA
ATOM      8  C   UNL     1       1.404   3.700  18.083  0.00  0.00    +0.000 C 
ATOM      9  C   UNL     1       0.909   3.501  19.505  0.00  0.00    +0.000 C 
ATOM     10  C   UNL     1       1.821   4.410  20.325  0.00  0.00    +0.000 C 
ATOM     11  N   UNL     1       5.285   4.723  17.659  0.00  0.00    +0.000 NA
ATOM     12  H   UNL     1       4.452   5.169  20.860  0.00  0.00    +0.000 HD
ENDROOT
BRANCH   1  17
ATOM     13  F   UNL     1       6.610   3.938  11.408  0.00  0.00    +0.000 F 
ATOM     14  C   UNL     1       6.566   4.143  12.746  0.00  0.00    +0.000 A 
ATOM     15  C   UNL     1       5.519   3.617  13.510  0.00  0.00    +0.000 A 
ATOM     16  C   UNL     1       5.465   3.848  14.890  0.00  0.00    +0.000 A 
ATOM     17  C   UNL     1       6.462   4.618  15.513  0.00  0.00    +0.000 A 
ATOM     18  C   UNL     1       7.519   5.127  14.730  0.00  0.00    +0.000 A 
ATOM     19  C   UNL     1       7.569   4.888  13.358  0.00  0.00    +0.000 A 
ENDBRANCH   1  17
TORSDOF 1
ENDMDL
