MODEL 1
REMARK VINA RESULT:      -8.0      0.000      0.000
REMARK  Name = 
REMARK  2 active torsions:
REMARK  status: ('A' for Active; 'I' for Inactive)
REMARK    1  A    between atoms: C_4  and  C_5
REMARK    2  A    between atoms: C_5  and  N_6
REMARK                            x       y       z     vdW  Elec       q    Type
REMARK                         _______ _______ _______ _____ _____    ______ ____
ROOT
ATOM      1  C   UNL     1       3.051   5.321  19.432  0.00  0.00    +0.000 C 
ATOM      2  C   UNL     1       2.443   4.535  20.638  0.00  0.00    +0.000 C 
ATOM      3  C   UNL     1       1.014   4.053  20.394  0.00  0.00    +0.000 C 
ATOM      4  C   UNL     1       0.934   3.189  19.143  0.00  0.00    +0.000 C 
ATOM      5  C   UNL     1       1.467   3.926  17.921  0.00  0.00    +0.000 C 
ATOM      6  C   UNL     1       2.889   4.438  18.152  0.00  0.00    +0.000 C 
ENDROOT
BRANCH   1   7
ATOM      7  N   UNL     1       4.478   5.552  19.723  0.00  0.00    +0.000 N 
ATOM      8  C   UNL     1       5.475   5.420  18.804  0.00  0.00    +0.000 C 
ATOM      9  N   UNL     1       5.425   5.559  17.523  0.00  0.00    +0.000 NA
ATOM     10  C   UNL     1       6.766   5.256  17.047  0.00  0.00    +0.000 C 
ATOM     11  C   UNL     1       7.593   5.063  18.294  0.00  0.00    +0.000 C 
ATOM     12  O   UNL     1       6.659   5.079  19.366  0.00  0.00    +0.000 OA
ATOM     13  H   UNL     1       4.761   5.228  20.640  0.00  0.00    +0.000 HD
ENDBRANCH   1   7
BRANCH   1  17
ATOM     14  C   UNL     1       1.343   9.355  18.938  0.00  0.00    +0.000 A 
ATOM     15  C   UNL     1       1.916   8.696  17.857  0.00  0.00    +0.000 A 
ATOM     16  C   UNL     1       2.458   7.414  18.017  0.00  0.00    +0.000 A 
ATOM     17  C   UNL     1       2.425   6.738  19.255  0.00  0.00    +0.000 A 
ATOM     18  C   UNL     1       1.866   7.450  20.339  0.00  0.00    +0.000 A 
ATOM     19  C   UNL     1       1.328   8.736  20.181  0.00  0.00    +0.000 A 
ENDBRANCH   1  17
TORSDOF 2
ENDMDL
MODEL 2
REMARK VINA RESULT:      -8.0      0.264      1.160
REMARK  Name = 
REMARK  2 active torsions:
REMARK  status: ('A' for Active; 'I' for Inactive)
REMARK    1  A    between atoms: C_4  and  C_5
REMARK    2  A    between atoms: C_5  and  N_6
REMARK                            x       y       z     vdW  Elec       q    Type
REMARK                         _______ _______ _______ _____ _____    ______ ____
ROOT
ATOM      1  C   UNL     1       3.141   5.216  19.339  0.00  0.00    +0.000 C 
ATOM      2  C   UNL     1       2.589   4.462  20.591  0.00  0.00    +0.000 C 
ATOM      3  C   UNL     1       1.129   4.035  20.453  0.00  0.00    +0.000 C 
ATOM      4  C   UNL     1       0.928   3.168  19.218  0.00  0.00    +0.000 C 
ATOM      5  C   UNL     1       1.402   3.876  17.955  0.00  0.00    +0.000 C 
ATOM      6  C   UNL     1       2.855   4.333  18.081  0.00  0.00    +0.000 C 
ENDROOT
BRANCH   1   7
ATOM      7  N   UNL     1       4.593   5.393  19.527  0.00  0.00    +0.000 N 
ATOM      8  C   UNL     1       5.520   5.183  18.550  0.00  0.00    +0.000 C 
ATOM      9  N   UNL     1       5.390   5.278  17.271  0.00  0.00    +0.000 NA
ATOM     10  C   UNL     1       6.681   4.898  16.720  0.00  0.00    +0.000 C 
ATOM     11  C   UNL     1       7.581   4.713  17.918  0.00  0.00    +0.000 C 
ATOM     12  O   UNL     1       6.723   4.809  19.047  0.00  0.00    +0.000 OA
ATOM     13  H   UNL     1       4.922   5.089  20.435  0.00  0.00    +0.000 HD
ENDBRANCH   1   7
BRANCH   1  17
ATOM     14  C   UNL     1       1.434   9.260  18.926  0.00  0.00    +0.000 A 
ATOM     15  C   UNL     1       1.408   8.607  20.151  0.00  0.00    +0.000 A 
ATOM     16  C   UNL     1       1.951   7.321  20.280  0.00  0.00    +0.000 A 
ATOM     17  C   UNL     1       2.560   6.656  19.194  0.00  0.00    +0.000 A 
ATOM     18  C   UNL     1       2.540   7.335  17.956  0.00  0.00    +0.000 A 
ATOM     19  C   UNL     1       1.992   8.620  17.826  0.00  0.00    +0.000 A 
ENDBRANCH   1  17
TORSDOF 2
ENDMDL
MODEL 3
REMARK VINA RESULT:      -7.5      2.863      5.318
REMARK  Name = 
REMARK  2 active torsions:
REMARK  status: ('A' for Active; 'I' for Inactive)
REMARK    1  A    between atoms: C_4  and  C_5
REMARK    2  A    between atoms: C_5  and  N_6
REMARK                            x       y       z     vdW  Elec       q    Type
REMARK                         _______ _______ _______ _____ _____    ______ ____
ROOT
ATOM      1  C   UNL     1       6.216   4.939  16.944  0.00  0.00    +0.000 C 
ATOM      2  C   UNL     1       6.341   6.390  16.377  0.00  0.00    +0.000 C 
ATOM      3  C   UNL     1       6.617   7.443  17.448  0.00  0.00    +0.000 C 
ATOM      4  C   UNL     1       7.874   7.104  18.238  0.00  0.00    +0.000 C 
ATOM      5  C   UNL     1       7.785   5.717  18.860  0.00  0.00    +0.000 C 
ATOM      6  C   UNL     1       7.487   4.649  17.808  0.00  0.00    +0.000 C 
ENDROOT
BRANCH   1   7
ATOM      7  N   UNL     1       6.148   4.015  15.798  0.00  0.00    +0.000 N 
ATOM      8  C   UNL     1       6.646   4.295  14.561  0.00  0.00    +0.000 C 
ATOM      9  N   UNL     1       7.620   5.075  14.234  0.00  0.00    +0.000 NA
ATOM     10  C   UNL     1       7.683   5.029  12.781  0.00  0.00    +0.000 C 
ATOM     11  C   UNL     1       6.670   3.985  12.376  0.00  0.00    +0.000 C 
ATOM     12  O   UNL     1       5.981   3.651  13.573  0.00  0.00    +0.000 OA
ATOM     13  H   UNL     1       5.279   3.496  15.749  0.00  0.00    +0.000 HD
ENDBRANCH   1   7
BRANCH   1  17
ATOM     14  C   UNL     1       2.468   4.249  19.161  0.00  0.00    +0.000 A 
ATOM     15  C   UNL     1       3.597   3.488  19.435  0.00  0.00    +0.000 A 
ATOM     16  C   UNL     1       4.788   3.710  18.728  0.00  0.00    +0.000 A 
ATOM     17  C   UNL     1       4.895   4.714  17.743  0.00  0.00    +0.000 A 
ATOM     18  C   UNL     1       3.719   5.445  17.467  0.00  0.00    +0.000 A 
ATOM     19  C   UNL     1       2.526   5.221  18.170  0.00  0.00    +0.000 A 
ENDBRANCH   1  17
TORSDOF 2
ENDMDL
MODEL 4
REMARK VINA RESULT:      -7.5      2.873      5.282
REMARK  Name = 
REMARK  2 active torsions:
REMARK  status: ('A' for Active; 'I' for Inactive)
REMARK    1  A    between atoms: C_4  and  C_5
REMARK    2  A    between atoms: C_5  and  N_6
REMARK                            x       y       z     vdW  Elec       q    Type
REMARK                         _______ _______ _______ _____ _____    ______ ____
ROOT
ATOM      1  C   UNL     1       6.236   4.915  16.912  0.00  0.00    +0.000 C 
ATOM      2  C   UNL     1       6.354   6.369  16.354  0.00  0.00    +0.000 C 
ATOM      3  C   UNL     1       6.615   7.419  17.433  0.00  0.00    +0.000 C 
ATOM      4  C   UNL     1       7.869   7.084  18.229  0.00  0.00    +0.000 C 
ATOM      5  C   UNL     1       7.787   5.693  18.842  0.00  0.00    +0.000 C 
ATOM      6  C   UNL     1       7.502   4.629  17.782  0.00  0.00    +0.000 C 
ENDROOT
BRANCH   1   7
ATOM      7  N   UNL     1       6.181   3.997  15.760  0.00  0.00    +0.000 N 
ATOM      8  C   UNL     1       6.670   4.295  14.524  0.00  0.00    +0.000 C 
ATOM      9  N   UNL     1       7.627   5.095  14.198  0.00  0.00    +0.000 NA
ATOM     10  C   UNL     1       7.686   5.059  12.745  0.00  0.00    +0.000 C 
ATOM     11  C   UNL     1       6.693   3.999  12.337  0.00  0.00    +0.000 C 
ATOM     12  O   UNL     1       6.014   3.644  13.534  0.00  0.00    +0.000 OA
ATOM     13  H   UNL     1       5.322   3.462  15.710  0.00  0.00    +0.000 HD
ENDBRANCH   1   7
BRANCH   1  17
ATOM     14  C   UNL     1       2.507   4.291  19.181  0.00  0.00    +0.000 A 
ATOM     15  C   UNL     1       2.566   5.245  18.172  0.00  0.00    +0.000 A 
ATOM     16  C   UNL     1       3.753   5.441  17.453  0.00  0.00    +0.000 A 
ATOM     17  C   UNL     1       4.911   4.675  17.701  0.00  0.00    +0.000 A 
ATOM     18  C   UNL     1       4.826   3.738  18.754  0.00  0.00    +0.000 A 
ATOM     19  C   UNL     1       3.640   3.545  19.478  0.00  0.00    +0.000 A 
ENDBRANCH   1  17
TORSDOF 2
ENDMDL
MODEL 5
REMARK VINA RESULT:      -7.1      2.142      5.057
REMARK  Name = 
REMARK  2 active torsions:
REMARK  status: ('A' for Active; 'I' for Inactive)
REMARK    1  A    between atoms: C_4  and  C_5
REMARK    2  A    between atoms: C_5  and  N_6
REMARK                            x       y       z     vdW  Elec       q    Type
REMARK                         _______ _______ _______ _____ _____    ______ ____
ROOT
ATOM      1  C   UNL     1       3.167   5.873  18.328  0.00  0.00    +0.000 C 
ATOM      2  C   UNL     1       1.975   5.106  17.672  0.00  0.00    +0.000 C 
ATOM      3  C   UNL     1       1.789   3.689  18.210  0.00  0.00    +0.000 C 
ATOM      4  C   UNL     1       1.609   3.697  19.722  0.00  0.00    +0.000 C 
ATOM      5  C   UNL     1       2.773   4.388  20.420  0.00  0.00    +0.000 C 
ATOM      6  C   UNL     1       2.991   5.801  19.879  0.00  0.00    +0.000 C 
ENDROOT
BRANCH   1   7
ATOM      7  N   UNL     1       3.109   7.271  17.865  0.00  0.00    +0.000 N 
ATOM      8  C   UNL     1       2.280   8.216  18.392  0.00  0.00    +0.000 C 
ATOM      9  N   UNL     1       1.789   8.294  19.581  0.00  0.00    +0.000 NA
ATOM     10  C   UNL     1       0.938   9.474  19.573  0.00  0.00    +0.000 C 
ATOM     11  C   UNL     1       1.155  10.107  18.220  0.00  0.00    +0.000 C 
ATOM     12  O   UNL     1       1.944   9.173  17.495  0.00  0.00    +0.000 OA
ATOM     13  H   UNL     1       3.206   7.369  16.861  0.00  0.00    +0.000 HD
ENDBRANCH   1   7
BRANCH   1  17
ATOM     14  C   UNL     1       7.115   4.422  17.004  0.00  0.00    +0.000 A 
ATOM     15  C   UNL     1       6.971   5.042  18.238  0.00  0.00    +0.000 A 
ATOM     16  C   UNL     1       5.715   5.503  18.657  0.00  0.00    +0.000 A 
ATOM     17  C   UNL     1       4.558   5.337  17.866  0.00  0.00    +0.000 A 
ATOM     18  C   UNL     1       4.746   4.733  16.604  0.00  0.00    +0.000 A 
ATOM     19  C   UNL     1       6.004   4.276  16.182  0.00  0.00    +0.000 A 
ENDBRANCH   1  17
TORSDOF 2
ENDMDL
MODEL 6
REMARK VINA RESULT:      -7.0      1.196      1.928
REMARK  Name = 
REMARK  2 active torsions:
REMARK  status: ('A' for Active; 'I' for Inactive)
REMARK    1  A    between atoms: C_4  and  C_5
REMARK    2  A    between atoms: C_5  and  N_6
REMARK                            x       y       z     vdW  Elec       q    Type
REMARK                         _______ _______ _______ _____ _____    ______ ____
ROOT
ATOM      1  C   UNL     1       3.106   4.120  18.993  0.00  0.00    +0.000 C 
ATOM      2  C   UNL     1       3.467   3.588  20.417  0.00  0.00    +0.000 C 
ATOM      3  C   UNL     1       2.261   3.455  21.344  0.00  0.00    +0.000 C 
ATOM      4  C   UNL     1       1.196   2.557  20.730  0.00  0.00    +0.000 C 
ATOM      5  C   UNL     1       0.765   3.059  19.358  0.00  0.00    +0.000 C 
ATOM      6  C   UNL     1       1.961   3.222  18.420  0.00  0.00    +0.000 C 
ENDROOT
BRANCH   1   7
ATOM      7  N   UNL     1       4.314   4.015  18.156  0.00  0.00    +0.000 N 
ATOM      8  C   UNL     1       5.500   4.619  18.449  0.00  0.00    +0.000 C 
ATOM      9  N   UNL     1       5.984   4.947  19.598  0.00  0.00    +0.000 NA
ATOM     10  C   UNL     1       7.253   5.599  19.314  0.00  0.00    +0.000 C 
ATOM     11  C   UNL     1       7.448   5.448  17.825  0.00  0.00    +0.000 C 
ATOM     12  O   UNL     1       6.226   4.906  17.342  0.00  0.00    +0.000 OA
ATOM     13  H   UNL     1       4.119   4.024  17.161  0.00  0.00    +0.000 HD
ENDBRANCH   1   7
BRANCH   1  17
ATOM     14  C   UNL     1       1.967   8.380  18.984  0.00  0.00    +0.000 A 
ATOM     15  C   UNL     1       1.912   7.639  20.158  0.00  0.00    +0.000 A 
ATOM     16  C   UNL     1       2.275   6.285  20.158  0.00  0.00    +0.000 A 
ATOM     17  C   UNL     1       2.726   5.633  18.991  0.00  0.00    +0.000 A 
ATOM     18  C   UNL     1       2.738   6.407  17.809  0.00  0.00    +0.000 A 
ATOM     19  C   UNL     1       2.370   7.761  17.808  0.00  0.00    +0.000 A 
ENDBRANCH   1  17
TORSDOF 2
ENDMDL
MODEL 7
REMARK VINA RESULT:      -7.0      1.138      1.465
REMARK  Name = 
REMARK  2 active torsions:
REMARK  status: ('A' for Active; 'I' for Inactive)
REMARK    1  A    between atoms: C_4  and  C_5
REMARK    2  A    between atoms: C_5  and  N_6
REMARK                            x       y       z     vdW  Elec       q    Type
REMARK                         _______ _______ _______ _____ _____    ______ ____
ROOT
ATOM      1  C   UNL     1       3.024   4.327  18.840  0.00  0.00    +0.000 C 
ATOM      2  C   UNL     1       3.426   3.708  20.217  0.00  0.00    +0.000 C 
ATOM      3  C   UNL     1       2.238   3.454  21.143  0.00  0.00    +0.000 C 
ATOM      4  C   UNL     1       1.205   2.557  20.474  0.00  0.00    +0.000 C 
ATOM      5  C   UNL     1       0.736   3.140  19.147  0.00  0.00    +0.000 C 
ATOM      6  C   UNL     1       1.912   3.424  18.213  0.00  0.00    +0.000 C 
ENDROOT
BRANCH   1   7
ATOM      7  N   UNL     1       4.225   4.337  17.986  0.00  0.00    +0.000 N 
ATOM      8  C   UNL     1       5.427   4.856  18.366  0.00  0.00    +0.000 C 
ATOM      9  N   UNL     1       5.924   4.975  19.549  0.00  0.00    +0.000 NA
ATOM     10  C   UNL     1       7.207   5.636  19.367  0.00  0.00    +0.000 C 
ATOM     11  C   UNL     1       7.391   5.734  17.873  0.00  0.00    +0.000 C 
ATOM     12  O   UNL     1       6.153   5.309  17.316  0.00  0.00    +0.000 OA
ATOM     13  H   UNL     1       4.026   4.517  17.009  0.00  0.00    +0.000 HD
ENDBRANCH   1   7
BRANCH   1  17
ATOM     14  C   UNL     1       1.834   8.560  19.164  0.00  0.00    +0.000 A 
ATOM     15  C   UNL     1       2.227   8.031  17.941  0.00  0.00    +0.000 A 
ATOM     16  C   UNL     1       2.605   6.685  17.841  0.00  0.00    +0.000 A 
ATOM     17  C   UNL     1       2.580   5.818  18.954  0.00  0.00    +0.000 A 
ATOM     18  C   UNL     1       2.206   6.396  20.187  0.00  0.00    +0.000 A 
ATOM     19  C   UNL     1       1.833   7.745  20.289  0.00  0.00    +0.000 A 
ENDBRANCH   1  17
TORSDOF 2
ENDMDL
MODEL 8
REMARK VINA RESULT:      -7.0      1.539      1.777
REMARK  Name = 
REMARK  2 active torsions:
REMARK  status: ('A' for Active; 'I' for Inactive)
REMARK    1  A    between atoms: C_4  and  C_5
REMARK    2  A    between atoms: C_5  and  N_6
REMARK                            x       y       z     vdW  Elec       q    Type
REMARK                         _______ _______ _______ _____ _____    ______ ____
ROOT
ATOM      1  C   UNL     1       3.173   5.855  18.229  0.00  0.00    +0.000 C 
ATOM      2  C   UNL     1       3.989   5.194  19.386  0.00  0.00    +0.000 C 
ATOM      3  C   UNL     1       3.117   4.498  20.429  0.00  0.00    +0.000 C 
ATOM      4  C   UNL     1       2.225   3.448  19.783  0.00  0.00    +0.000 C 
ATOM      5  C   UNL     1       1.365   4.048  18.679  0.00  0.00    +0.000 C 
ATOM      6  C   UNL     1       2.217   4.771  17.635  0.00  0.00    +0.000 C 
ENDROOT
BRANCH   1   7
ATOM      7  N   UNL     1       4.134   6.312  17.208  0.00  0.00    +0.000 N 
ATOM      8  C   UNL     1       5.019   5.493  16.572  0.00  0.00    +0.000 C 
ATOM      9  N   UNL     1       4.926   4.232  16.324  0.00  0.00    +0.000 NA
ATOM     10  C   UNL     1       6.174   3.873  15.668  0.00  0.00    +0.000 C 
ATOM     11  C   UNL     1       6.907   5.177  15.475  0.00  0.00    +0.000 C 
ATOM     12  O   UNL     1       6.141   6.144  16.182  0.00  0.00    +0.000 OA
ATOM     13  H   UNL     1       4.534   7.221  17.409  0.00  0.00    +0.000 HD
ENDBRANCH   1   7
BRANCH   1  17
ATOM     14  C   UNL     1       1.064   9.506  19.516  0.00  0.00    +0.000 A 
ATOM     15  C   UNL     1       1.406   9.324  18.183  0.00  0.00    +0.000 A 
ATOM     16  C   UNL     1       2.077   8.162  17.776  0.00  0.00    +0.000 A 
ATOM     17  C   UNL     1       2.406   7.134  18.684  0.00  0.00    +0.000 A 
ATOM     18  C   UNL     1       2.073   7.367  20.037  0.00  0.00    +0.000 A 
ATOM     19  C   UNL     1       1.406   8.531  20.445  0.00  0.00    +0.000 A 
ENDBRANCH   1  17
TORSDOF 2
ENDMDL
MODEL 9
REMARK VINA RESULT:      -6.9      2.183      5.014
REMARK  Name = 
REMARK  2 active torsions:
REMARK  status: ('A' for Active; 'I' for Inactive)
REMARK    1  A    between atoms: C_4  and  C_5
REMARK    2  A    between atoms: C_5  and  N_6
REMARK                            x       y       z     vdW  Elec       q    Type
REMARK                         _______ _______ _______ _____ _____    ______ ____
ROOT
ATOM      1  C   UNL     1       3.299   5.962  18.240  0.00  0.00    +0.000 C 
ATOM      2  C   UNL     1       2.041   5.260  17.635  0.00  0.00    +0.000 C 
ATOM      3  C   UNL     1       1.852   3.822  18.116  0.00  0.00    +0.000 C 
ATOM      4  C   UNL     1       1.779   3.760  19.635  0.00  0.00    +0.000 C 
ATOM      5  C   UNL     1       3.008   4.384  20.281  0.00  0.00    +0.000 C 
ATOM      6  C   UNL     1       3.229   5.817  19.795  0.00  0.00    +0.000 C 
ENDROOT
BRANCH   1   7
ATOM      7  N   UNL     1       3.249   7.383  17.850  0.00  0.00    +0.000 N 
ATOM      8  C   UNL     1       2.361   8.283  18.359  0.00  0.00    +0.000 C 
ATOM      9  N   UNL     1       1.775   8.287  19.507  0.00  0.00    +0.000 NA
ATOM     10  C   UNL     1       0.904   9.452  19.494  0.00  0.00    +0.000 C 
ATOM     11  C   UNL     1       1.215  10.162  18.200  0.00  0.00    +0.000 C 
ATOM     12  O   UNL     1       2.078   9.283  17.491  0.00  0.00    +0.000 OA
ATOM     13  H   UNL     1       3.424   7.538  16.865  0.00  0.00    +0.000 HD
ENDBRANCH   1   7
BRANCH   1  17
ATOM     14  C   UNL     1       7.066   4.352  16.611  0.00  0.00    +0.000 A 
ATOM     15  C   UNL     1       5.868   4.159  15.936  0.00  0.00    +0.000 A 
ATOM     16  C   UNL     1       4.671   4.672  16.456  0.00  0.00    +0.000 A 
ATOM     17  C   UNL     1       4.637   5.415  17.655  0.00  0.00    +0.000 A 
ATOM     18  C   UNL     1       5.867   5.564  18.332  0.00  0.00    +0.000 A 
ATOM     19  C   UNL     1       7.064   5.046  17.814  0.00  0.00    +0.000 A 
ENDBRANCH   1  17
TORSDOF 2
ENDMDL
