MODEL 1
REMARK VINA RESULT:      -7.9      0.000      0.000
REMARK  Name = 
REMARK  8 active torsions:
REMARK  status: ('A' for Active; 'I' for Inactive)
REMARK    1  A    between atoms: C_2  and  C_3
REMARK    2  A    between atoms: C_3  and  N_4
REMARK    3  A    between atoms: N_4  and  C_5
REMARK    4  A    between atoms: N_4  and  C_12
REMARK    5  A    between atoms: C_5  and  C_6
REMARK    6  A    between atoms: C_16  and  O_17
REMARK    7  A    between atoms: C_16  and  C_18
REMARK    8  A    between atoms: C_19  and  C_20
REMARK                            x       y       z     vdW  Elec       q    Type
REMARK                         _______ _______ _______ _____ _____    ______ ____
ROOT
ATOM      1  C   UNL     1       5.934   4.628  17.417  0.00  0.00    +0.000 C 
ATOM      2  C   UNL     1       7.465   4.402  17.458  0.00  0.00    +0.000 C 
ATOM      3  C   UNL     1       8.016   5.357  18.524  0.00  0.00    +0.000 C 
ATOM      4  C   UNL     1       6.841   6.208  18.983  0.00  0.00    +0.000 C 
ATOM      5  C   UNL     1       5.845   6.146  17.819  0.00  0.00    +0.000 C 
ENDROOT
BRANCH   5   6
ATOM      6  O   UNL     1       6.310   6.981  16.763  0.00  0.00    +0.000 OA
ATOM      7  H   UNL     1       6.808   7.702  17.189  0.00  0.00    +0.000 HD
ENDBRANCH   5   6
BRANCH   5   8
ATOM      8  C   UNL     1       4.519   6.626  18.320  0.00  0.00    +0.000 C 
ATOM      9  C   UNL     1       3.554   7.259  17.627  0.00  0.00    +0.000 C 
BRANCH   9  10
ATOM     10  C   UNL     1       2.437   7.770  18.419  0.00  0.00    +0.000 A 
ATOM     11  C   UNL     1       2.236   7.332  19.743  0.00  0.00    +0.000 A 
ATOM     12  C   UNL     1       1.445   8.082  20.622  0.00  0.00    +0.000 A 
ATOM     13  C   UNL     1       0.928   9.269  20.150  0.00  0.00    +0.000 A 
ATOM     14  C   UNL     1       1.072   9.658  18.836  0.00  0.00    +0.000 A 
ATOM     15  C   UNL     1       1.776   8.906  17.932  0.00  0.00    +0.000 A 
ATOM     16  O   UNL     1       0.577  10.904  18.606  0.00  0.00    +0.000 OA
ATOM     17  C   UNL     1       0.421  11.345  19.969  0.00  0.00    +0.000 C 
ATOM     18  O   UNL     1       0.332  10.242  20.897  0.00  0.00    +0.000 OA
ENDBRANCH   9  10
ENDBRANCH   5   8
BRANCH   1  19
ATOM     19  N   UNL     1       5.299   4.224  16.137  0.00  0.00    +0.000 NA
BRANCH  19  20
ATOM     20  C   UNL     1       6.214   3.640  15.124  0.00  0.00    +0.000 C 
BRANCH  20  22
ATOM     21  N   UNL     1       7.700   5.524  13.718  0.00  0.00    +0.000 NA
ATOM     22  C   UNL     1       7.025   4.669  14.355  0.00  0.00    +0.000 C 
ENDBRANCH  20  22
ENDBRANCH  19  20
BRANCH  19  23
ATOM     23  C   UNL     1       4.081   3.403  16.294  0.00  0.00    +0.000 C 
BRANCH  23  24
ATOM     24  C   UNL     1       3.338   3.407  17.618  0.00  0.00    +0.000 A 
ATOM     25  C   UNL     1       3.810   2.858  18.826  0.00  0.00    +0.000 A 
ATOM     26  C   UNL     1       3.008   2.764  19.958  0.00  0.00    +0.000 A 
ATOM     27  C   UNL     1       1.715   3.262  19.925  0.00  0.00    +0.000 A 
ATOM     28  C   UNL     1       1.241   3.882  18.771  0.00  0.00    +0.000 A 
ATOM     29  C   UNL     1       2.047   3.953  17.630  0.00  0.00    +0.000 A 
ENDBRANCH  23  24
ENDBRANCH  19  23
ENDBRANCH   1  19
TORSDOF 8
ENDMDL
MODEL 2
REMARK VINA RESULT:      -7.7      1.128      1.191
REMARK  Name = 
REMARK  8 active torsions:
REMARK  status: ('A' for Active; 'I' for Inactive)
REMARK    1  A    between atoms: C_2  and  C_3
REMARK    2  A    between atoms: C_3  and  N_4
REMARK    3  A    between atoms: N_4  and  C_5
REMARK    4  A    between atoms: N_4  and  C_12
REMARK    5  A    between atoms: C_5  and  C_6
REMARK    6  A    between atoms: C_16  and  O_17
REMARK    7  A    between atoms: C_16  and  C_18
REMARK    8  A    between atoms: C_19  and  C_20
REMARK                            x       y       z     vdW  Elec       q    Type
REMARK                         _______ _______ _______ _____ _____    ______ ____
ROOT
ATOM      1  C   UNL     1       5.919   5.288  17.338  0.00  0.00    +0.000 C 
ATOM      2  C   UNL     1       7.383   5.485  16.876  0.00  0.00    +0.000 C 
ATOM      3  C   UNL     1       7.738   6.948  17.170  0.00  0.00    +0.000 C 
ATOM      4  C   UNL     1       6.457   7.606  17.664  0.00  0.00    +0.000 C 
ATOM      5  C   UNL     1       5.334   6.728  17.101  0.00  0.00    +0.000 C 
ENDROOT
BRANCH   5   6
ATOM      6  O   UNL     1       5.185   6.995  15.710  0.00  0.00    +0.000 OA
ATOM      7  H   UNL     1       5.011   7.951  15.637  0.00  0.00    +0.000 HD
ENDBRANCH   5   6
BRANCH   5   8
ATOM      8  C   UNL     1       4.074   7.064  17.836  0.00  0.00    +0.000 C 
ATOM      9  C   UNL     1       3.071   7.867  17.433  0.00  0.00    +0.000 C 
BRANCH   9  10
ATOM     10  C   UNL     1       2.046   8.153  18.435  0.00  0.00    +0.000 A 
ATOM     11  C   UNL     1       2.077   7.521  19.693  0.00  0.00    +0.000 A 
ATOM     12  C   UNL     1       1.367   8.062  20.772  0.00  0.00    +0.000 A 
ATOM     13  C   UNL     1       0.697   9.247  20.556  0.00  0.00    +0.000 A 
ATOM     14  C   UNL     1       0.616   9.823  19.308  0.00  0.00    +0.000 A 
ATOM     15  C   UNL     1       1.236   9.275  18.215  0.00  0.00    +0.000 A 
ATOM     16  O   UNL     1      -0.003  11.035  19.335  0.00  0.00    +0.000 OA
ATOM     17  C   UNL     1       0.010  11.268  20.756  0.00  0.00    +0.000 C 
ATOM     18  O   UNL     1       0.143  10.046  21.514  0.00  0.00    +0.000 OA
ENDBRANCH   9  10
ENDBRANCH   5   8
BRANCH   1  19
ATOM     19  N   UNL     1       5.225   4.154  16.678  0.00  0.00    +0.000 NA
BRANCH  19  20
ATOM     20  C   UNL     1       5.989   3.475  15.601  0.00  0.00    +0.000 C 
BRANCH  20  22
ATOM     21  N   UNL     1       5.138   4.114  13.031  0.00  0.00    +0.000 NA
ATOM     22  C   UNL     1       5.525   3.823  14.197  0.00  0.00    +0.000 C 
ENDBRANCH  20  22
ENDBRANCH  19  20
BRANCH  19  23
ATOM     23  C   UNL     1       4.633   3.174  17.611  0.00  0.00    +0.000 C 
BRANCH  23  24
ATOM     24  C   UNL     1       3.451   3.579  18.474  0.00  0.00    +0.000 A 
ATOM     25  C   UNL     1       3.468   3.725  19.875  0.00  0.00    +0.000 A 
ATOM     26  C   UNL     1       2.308   3.948  20.609  0.00  0.00    +0.000 A 
ATOM     27  C   UNL     1       1.096   4.078  19.951  0.00  0.00    +0.000 A 
ATOM     28  C   UNL     1       1.052   4.017  18.560  0.00  0.00    +0.000 A 
ATOM     29  C   UNL     1       2.220   3.770  17.831  0.00  0.00    +0.000 A 
ENDBRANCH  23  24
ENDBRANCH  19  23
ENDBRANCH   1  19
TORSDOF 8
ENDMDL
MODEL 3
REMARK VINA RESULT:      -7.3      1.561      4.069
REMARK  Name = 
REMARK  8 active torsions:
REMARK  status: ('A' for Active; 'I' for Inactive)
REMARK    1  A    between atoms: C_2  and  C_3
REMARK    2  A    between atoms: C_3  and  N_4
REMARK    3  A    between atoms: N_4  and  C_5
REMARK    4  A    between atoms: N_4  and  C_12
REMARK    5  A    between atoms: C_5  and  C_6
REMARK    6  A    between atoms: C_16  and  O_17
REMARK    7  A    between atoms: C_16  and  C_18
REMARK    8  A    between atoms: C_19  and  C_20
REMARK                            x       y       z     vdW  Elec       q    Type
REMARK                         _______ _______ _______ _____ _____    ______ ____
ROOT
ATOM      1  C   UNL     1       3.229   3.954  17.504  0.00  0.00    +0.000 C 
ATOM      2  C   UNL     1       2.899   2.443  17.537  0.00  0.00    +0.000 C 
ATOM      3  C   UNL     1       1.848   2.252  18.638  0.00  0.00    +0.000 C 
ATOM      4  C   UNL     1       1.684   3.609  19.310  0.00  0.00    +0.000 C 
ATOM      5  C   UNL     1       2.994   4.346  19.008  0.00  0.00    +0.000 C 
ENDROOT
BRANCH   5   6
ATOM      6  O   UNL     1       4.026   3.822  19.839  0.00  0.00    +0.000 OA
ATOM      7  H   UNL     1       3.707   3.915  20.754  0.00  0.00    +0.000 HD
ENDBRANCH   5   6
BRANCH   5   8
ATOM      8  C   UNL     1       2.782   5.800  19.293  0.00  0.00    +0.000 C 
ATOM      9  C   UNL     1       1.936   6.353  20.182  0.00  0.00    +0.000 C 
BRANCH   9  10
ATOM     10  C   UNL     1       1.811   7.808  20.118  0.00  0.00    +0.000 A 
ATOM     11  C   UNL     1       1.818   8.474  18.877  0.00  0.00    +0.000 A 
ATOM     12  C   UNL     1       1.312   9.776  18.772  0.00  0.00    +0.000 A 
ATOM     13  C   UNL     1       0.771  10.336  19.910  0.00  0.00    +0.000 A 
ATOM     14  C   UNL     1       0.830   9.706  21.134  0.00  0.00    +0.000 A 
ATOM     15  C   UNL     1       1.389   8.464  21.282  0.00  0.00    +0.000 A 
ATOM     16  O   UNL     1       0.151  10.383  22.099  0.00  0.00    +0.000 OA
ATOM     17  C   UNL     1      -0.584  11.299  21.264  0.00  0.00    +0.000 C 
ATOM     18  O   UNL     1       0.034  11.482  19.972  0.00  0.00    +0.000 OA
ENDBRANCH   9  10
ENDBRANCH   5   8
BRANCH   1  19
ATOM     19  N   UNL     1       4.557   4.269  16.918  0.00  0.00    +0.000 NA
BRANCH  19  20
ATOM     20  C   UNL     1       4.917   3.501  15.698  0.00  0.00    +0.000 C 
BRANCH  20  22
ATOM     21  N   UNL     1       6.988   4.625  14.221  0.00  0.00    +0.000 NA
ATOM     22  C   UNL     1       6.048   4.115  14.890  0.00  0.00    +0.000 C 
ENDBRANCH  20  22
ENDBRANCH  19  20
BRANCH  19  23
ATOM     23  C   UNL     1       4.818   5.711  16.738  0.00  0.00    +0.000 C 
BRANCH  23  24
ATOM     24  C   UNL     1       5.997   6.354  17.446  0.00  0.00    +0.000 A 
ATOM     25  C   UNL     1       6.577   7.595  17.115  0.00  0.00    +0.000 A 
ATOM     26  C   UNL     1       7.749   8.045  17.711  0.00  0.00    +0.000 A 
ATOM     27  C   UNL     1       8.354   7.281  18.696  0.00  0.00    +0.000 A 
ATOM     28  C   UNL     1       7.766   6.085  19.104  0.00  0.00    +0.000 A 
ATOM     29  C   UNL     1       6.599   5.629  18.484  0.00  0.00    +0.000 A 
ENDBRANCH  23  24
ENDBRANCH  19  23
ENDBRANCH   1  19
TORSDOF 8
ENDMDL
MODEL 4
REMARK VINA RESULT:      -7.3      1.634      4.000
REMARK  Name = 
REMARK  8 active torsions:
REMARK  status: ('A' for Active; 'I' for Inactive)
REMARK    1  A    between atoms: C_2  and  C_3
REMARK    2  A    between atoms: C_3  and  N_4
REMARK    3  A    between atoms: N_4  and  C_5
REMARK    4  A    between atoms: N_4  and  C_12
REMARK    5  A    between atoms: C_5  and  C_6
REMARK    6  A    between atoms: C_16  and  O_17
REMARK    7  A    between atoms: C_16  and  C_18
REMARK    8  A    between atoms: C_19  and  C_20
REMARK                            x       y       z     vdW  Elec       q    Type
REMARK                         _______ _______ _______ _____ _____    ______ ____
ROOT
ATOM      1  C   UNL     1       3.059   3.641  17.583  0.00  0.00    +0.000 C 
ATOM      2  C   UNL     1       2.875   2.134  17.879  0.00  0.00    +0.000 C 
ATOM      3  C   UNL     1       1.692   2.023  18.849  0.00  0.00    +0.000 C 
ATOM      4  C   UNL     1       1.299   3.450  19.206  0.00  0.00    +0.000 C 
ATOM      5  C   UNL     1       2.563   4.274  18.933  0.00  0.00    +0.000 C 
ENDROOT
BRANCH   5   6
ATOM      6  O   UNL     1       3.502   4.047  19.980  0.00  0.00    +0.000 OA
ATOM      7  H   UNL     1       3.088   4.390  20.792  0.00  0.00    +0.000 HD
ENDBRANCH   5   6
BRANCH   5   8
ATOM      8  C   UNL     1       2.170   5.718  18.888  0.00  0.00    +0.000 C 
ATOM      9  C   UNL     1       2.380   6.662  19.825  0.00  0.00    +0.000 C 
BRANCH   9  10
ATOM     10  C   UNL     1       1.729   7.948  19.587  0.00  0.00    +0.000 A 
ATOM     11  C   UNL     1       1.022   8.596  20.618  0.00  0.00    +0.000 A 
ATOM     12  C   UNL     1       0.745   9.966  20.532  0.00  0.00    +0.000 A 
ATOM     13  C   UNL     1       1.236  10.641  19.435  0.00  0.00    +0.000 A 
ATOM     14  C   UNL     1       1.867   9.989  18.398  0.00  0.00    +0.000 A 
ATOM     15  C   UNL     1       2.084   8.636  18.419  0.00  0.00    +0.000 A 
ATOM     16  O   UNL     1       2.361  10.851  17.468  0.00  0.00    +0.000 OA
ATOM     17  C   UNL     1       2.249  12.080  18.210  0.00  0.00    +0.000 C 
ATOM     18  O   UNL     1       1.274  11.995  19.273  0.00  0.00    +0.000 OA
ENDBRANCH   9  10
ENDBRANCH   5   8
BRANCH   1  19
ATOM     19  N   UNL     1       4.424   4.003  17.123  0.00  0.00    +0.000 NA
BRANCH  19  20
ATOM     20  C   UNL     1       4.930   3.237  15.955  0.00  0.00    +0.000 C 
BRANCH  20  22
ATOM     21  N   UNL     1       6.751   4.634  14.384  0.00  0.00    +0.000 NA
ATOM     22  C   UNL     1       5.925   4.001  15.097  0.00  0.00    +0.000 C 
ENDBRANCH  20  22
ENDBRANCH  19  20
BRANCH  19  23
ATOM     23  C   UNL     1       4.644   5.453  16.947  0.00  0.00    +0.000 C 
BRANCH  23  24
ATOM     24  C   UNL     1       5.855   6.111  17.583  0.00  0.00    +0.000 A 
ATOM     25  C   UNL     1       6.457   7.310  17.155  0.00  0.00    +0.000 A 
ATOM     26  C   UNL     1       7.655   7.769  17.693  0.00  0.00    +0.000 A 
ATOM     27  C   UNL     1       8.264   7.057  18.714  0.00  0.00    +0.000 A 
ATOM     28  C   UNL     1       7.657   5.908  19.215  0.00  0.00    +0.000 A 
ATOM     29  C   UNL     1       6.463   5.442  18.654  0.00  0.00    +0.000 A 
ENDBRANCH  23  24
ENDBRANCH  19  23
ENDBRANCH   1  19
TORSDOF 8
ENDMDL
MODEL 5
REMARK VINA RESULT:      -7.3      1.742      4.299
REMARK  Name = 
REMARK  8 active torsions:
REMARK  status: ('A' for Active; 'I' for Inactive)
REMARK    1  A    between atoms: C_2  and  C_3
REMARK    2  A    between atoms: C_3  and  N_4
REMARK    3  A    between atoms: N_4  and  C_5
REMARK    4  A    between atoms: N_4  and  C_12
REMARK    5  A    between atoms: C_5  and  C_6
REMARK    6  A    between atoms: C_16  and  O_17
REMARK    7  A    between atoms: C_16  and  C_18
REMARK    8  A    between atoms: C_19  and  C_20
REMARK                            x       y       z     vdW  Elec       q    Type
REMARK                         _______ _______ _______ _____ _____    ______ ____
ROOT
ATOM      1  C   UNL     1       2.552   4.032  18.614  0.00  0.00    +0.000 C 
ATOM      2  C   UNL     1       2.183   2.603  19.079  0.00  0.00    +0.000 C 
ATOM      3  C   UNL     1       1.114   2.763  20.168  0.00  0.00    +0.000 C 
ATOM      4  C   UNL     1       0.978   4.259  20.414  0.00  0.00    +0.000 C 
ATOM      5  C   UNL     1       2.310   4.849  19.935  0.00  0.00    +0.000 C 
ENDROOT
BRANCH   5   6
ATOM      6  O   UNL     1       3.318   4.567  20.902  0.00  0.00    +0.000 OA
ATOM      7  H   UNL     1       4.092   5.101  20.645  0.00  0.00    +0.000 HD
ENDBRANCH   5   6
BRANCH   5   8
ATOM      8  C   UNL     1       2.131   6.327  19.782  0.00  0.00    +0.000 C 
ATOM      9  C   UNL     1       1.593   7.190  20.663  0.00  0.00    +0.000 C 
BRANCH   9  10
ATOM     10  C   UNL     1       1.385   8.551  20.171  0.00  0.00    +0.000 A 
ATOM     11  C   UNL     1       1.695   8.888  18.840  0.00  0.00    +0.000 A 
ATOM     12  C   UNL     1       1.146  10.035  18.255  0.00  0.00    +0.000 A 
ATOM     13  C   UNL     1       0.263  10.770  19.017  0.00  0.00    +0.000 A 
ATOM     14  C   UNL     1       0.016  10.474  20.339  0.00  0.00    +0.000 A 
ATOM     15  C   UNL     1       0.600   9.401  20.962  0.00  0.00    +0.000 A 
ATOM     16  O   UNL     1      -0.959  11.258  20.874  0.00  0.00    +0.000 OA
ATOM     17  C   UNL     1      -1.490  11.824  19.660  0.00  0.00    +0.000 C 
ATOM     18  O   UNL     1      -0.544  11.775  18.570  0.00  0.00    +0.000 OA
ENDBRANCH   9  10
ENDBRANCH   5   8
BRANCH   1  19
ATOM     19  N   UNL     1       3.894   4.135  17.987  0.00  0.00    +0.000 NA
BRANCH  19  20
ATOM     20  C   UNL     1       4.192   3.122  16.942  0.00  0.00    +0.000 C 
BRANCH  20  22
ATOM     21  N   UNL     1       6.212   3.866  15.181  0.00  0.00    +0.000 NA
ATOM     22  C   UNL     1       5.295   3.529  15.980  0.00  0.00    +0.000 C 
ENDBRANCH  20  22
ENDBRANCH  19  20
BRANCH  19  23
ATOM     23  C   UNL     1       4.252   5.493  17.531  0.00  0.00    +0.000 C 
BRANCH  23  24
ATOM     24  C   UNL     1       5.595   6.085  17.917  0.00  0.00    +0.000 A 
ATOM     25  C   UNL     1       6.245   7.147  17.258  0.00  0.00    +0.000 A 
ATOM     26  C   UNL     1       7.543   7.531  17.576  0.00  0.00    +0.000 A 
ATOM     27  C   UNL     1       8.215   6.887  18.603  0.00  0.00    +0.000 A 
ATOM     28  C   UNL     1       7.576   5.884  19.328  0.00  0.00    +0.000 A 
ATOM     29  C   UNL     1       6.278   5.489  18.987  0.00  0.00    +0.000 A 
ENDBRANCH  23  24
ENDBRANCH  19  23
ENDBRANCH   1  19
TORSDOF 8
ENDMDL
MODEL 6
REMARK VINA RESULT:      -7.2      2.276      4.613
REMARK  Name = 
REMARK  8 active torsions:
REMARK  status: ('A' for Active; 'I' for Inactive)
REMARK    1  A    between atoms: C_2  and  C_3
REMARK    2  A    between atoms: C_3  and  N_4
REMARK    3  A    between atoms: N_4  and  C_5
REMARK    4  A    between atoms: N_4  and  C_12
REMARK    5  A    between atoms: C_5  and  C_6
REMARK    6  A    between atoms: C_16  and  O_17
REMARK    7  A    between atoms: C_16  and  C_18
REMARK    8  A    between atoms: C_19  and  C_20
REMARK                            x       y       z     vdW  Elec       q    Type
REMARK                         _______ _______ _______ _____ _____    ______ ____
ROOT
ATOM      1  C   UNL     1       2.799   4.895  19.117  0.00  0.00    +0.000 C 
ATOM      2  C   UNL     1       2.718   3.350  19.085  0.00  0.00    +0.000 C 
ATOM      3  C   UNL     1       1.407   2.970  19.783  0.00  0.00    +0.000 C 
ATOM      4  C   UNL     1       0.820   4.267  20.324  0.00  0.00    +0.000 C 
ATOM      5  C   UNL     1       2.024   5.209  20.448  0.00  0.00    +0.000 C 
ENDROOT
BRANCH   5   6
ATOM      6  O   UNL     1       2.793   4.835  21.587  0.00  0.00    +0.000 OA
ATOM      7  H   UNL     1       2.626   3.885  21.724  0.00  0.00    +0.000 HD
ENDBRANCH   5   6
BRANCH   5   8
ATOM      8  C   UNL     1       1.503   6.604  20.603  0.00  0.00    +0.000 C 
ATOM      9  C   UNL     1       1.723   7.662  19.802  0.00  0.00    +0.000 C 
BRANCH   9  10
ATOM     10  C   UNL     1       1.233   8.946  20.298  0.00  0.00    +0.000 A 
ATOM     11  C   UNL     1       0.615   9.864  19.427  0.00  0.00    +0.000 A 
ATOM     12  C   UNL     1      -0.194  10.887  19.937  0.00  0.00    +0.000 A 
ATOM     13  C   UNL     1      -0.392  10.914  21.300  0.00  0.00    +0.000 A 
ATOM     14  C   UNL     1       0.268  10.056  22.152  0.00  0.00    +0.000 A 
ATOM     15  C   UNL     1       1.127   9.094  21.688  0.00  0.00    +0.000 A 
ATOM     16  O   UNL     1      -0.146  10.184  23.442  0.00  0.00    +0.000 OA
ATOM     17  C   UNL     1      -1.338  10.965  23.224  0.00  0.00    +0.000 C 
ATOM     18  O   UNL     1      -1.309  11.674  21.967  0.00  0.00    +0.000 OA
ENDBRANCH   9  10
ENDBRANCH   5   8
BRANCH   1  19
ATOM     19  N   UNL     1       4.179   5.430  18.991  0.00  0.00    +0.000 NA
BRANCH  19  20
ATOM     20  C   UNL     1       5.269   4.463  19.280  0.00  0.00    +0.000 C 
BRANCH  20  22
ATOM     21  N   UNL     1       7.773   5.636  19.583  0.00  0.00    +0.000 NA
ATOM     22  C   UNL     1       6.637   5.103  19.445  0.00  0.00    +0.000 C 
ENDBRANCH  20  22
ENDBRANCH  19  20
BRANCH  19  23
ATOM     23  C   UNL     1       4.436   6.165  17.737  0.00  0.00    +0.000 C 
BRANCH  23  24
ATOM     24  C   UNL     1       5.081   5.448  16.564  0.00  0.00    +0.000 A 
ATOM     25  C   UNL     1       4.660   4.218  16.022  0.00  0.00    +0.000 A 
ATOM     26  C   UNL     1       5.394   3.549  15.049  0.00  0.00    +0.000 A 
ATOM     27  C   UNL     1       6.556   4.120  14.554  0.00  0.00    +0.000 A 
ATOM     28  C   UNL     1       6.962   5.372  15.012  0.00  0.00    +0.000 A 
ATOM     29  C   UNL     1       6.229   6.028  16.007  0.00  0.00    +0.000 A 
ENDBRANCH  23  24
ENDBRANCH  19  23
ENDBRANCH   1  19
TORSDOF 8
ENDMDL
MODEL 7
REMARK VINA RESULT:      -7.2      1.831      4.466
REMARK  Name = 
REMARK  8 active torsions:
REMARK  status: ('A' for Active; 'I' for Inactive)
REMARK    1  A    between atoms: C_2  and  C_3
REMARK    2  A    between atoms: C_3  and  N_4
REMARK    3  A    between atoms: N_4  and  C_5
REMARK    4  A    between atoms: N_4  and  C_12
REMARK    5  A    between atoms: C_5  and  C_6
REMARK    6  A    between atoms: C_16  and  O_17
REMARK    7  A    between atoms: C_16  and  C_18
REMARK    8  A    between atoms: C_19  and  C_20
REMARK                            x       y       z     vdW  Elec       q    Type
REMARK                         _______ _______ _______ _____ _____    ______ ____
ROOT
ATOM      1  C   UNL     1       3.403   4.868  17.348  0.00  0.00    +0.000 C 
ATOM      2  C   UNL     1       3.136   3.368  17.079  0.00  0.00    +0.000 C 
ATOM      3  C   UNL     1       1.960   2.968  17.978  0.00  0.00    +0.000 C 
ATOM      4  C   UNL     1       1.653   4.183  18.843  0.00  0.00    +0.000 C 
ATOM      5  C   UNL     1       2.958   4.987  18.851  0.00  0.00    +0.000 C 
ENDROOT
BRANCH   5   6
ATOM      6  O   UNL     1       3.894   4.347  19.713  0.00  0.00    +0.000 OA
ATOM      7  H   UNL     1       3.400   3.644  20.172  0.00  0.00    +0.000 HD
ENDBRANCH   5   6
BRANCH   5   8
ATOM      8  C   UNL     1       2.647   6.364  19.347  0.00  0.00    +0.000 C 
ATOM      9  C   UNL     1       1.882   6.711  20.398  0.00  0.00    +0.000 C 
BRANCH   9  10
ATOM     10  C   UNL     1       1.611   8.140  20.541  0.00  0.00    +0.000 A 
ATOM     11  C   UNL     1       1.311   8.930  19.414  0.00  0.00    +0.000 A 
ATOM     12  C   UNL     1       0.674  10.167  19.568  0.00  0.00    +0.000 A 
ATOM     13  C   UNL     1       0.317  10.538  20.846  0.00  0.00    +0.000 A 
ATOM     14  C   UNL     1       0.673   9.794  21.950  0.00  0.00    +0.000 A 
ATOM     15  C   UNL     1       1.365   8.617  21.836  0.00  0.00    +0.000 A 
ATOM     16  O   UNL     1       0.136  10.283  23.101  0.00  0.00    +0.000 OA
ATOM     17  C   UNL     1      -0.831  11.189  22.536  0.00  0.00    +0.000 C 
ATOM     18  O   UNL     1      -0.499  11.578  21.186  0.00  0.00    +0.000 OA
ENDBRANCH   9  10
ENDBRANCH   5   8
BRANCH   1  19
ATOM     19  N   UNL     1       4.781   5.306  17.009  0.00  0.00    +0.000 NA
BRANCH  19  20
ATOM     20  C   UNL     1       5.452   6.154  18.028  0.00  0.00    +0.000 C 
BRANCH  20  22
ATOM     21  N   UNL     1       7.548   7.684  17.029  0.00  0.00    +0.000 NA
ATOM     22  C   UNL     1       6.597   6.989  17.483  0.00  0.00    +0.000 C 
ENDBRANCH  20  22
ENDBRANCH  19  20
BRANCH  19  23
ATOM     23  C   UNL     1       5.670   4.221  16.547  0.00  0.00    +0.000 C 
BRANCH  23  24
ATOM     24  C   UNL     1       6.190   4.233  15.121  0.00  0.00    +0.000 A 
ATOM     25  C   UNL     1       7.316   4.946  14.663  0.00  0.00    +0.000 A 
ATOM     26  C   UNL     1       7.639   5.030  13.314  0.00  0.00    +0.000 A 
ATOM     27  C   UNL     1       6.864   4.360  12.381  0.00  0.00    +0.000 A 
ATOM     28  C   UNL     1       5.788   3.582  12.805  0.00  0.00    +0.000 A 
ATOM     29  C   UNL     1       5.457   3.521  14.162  0.00  0.00    +0.000 A 
ENDBRANCH  23  24
ENDBRANCH  19  23
ENDBRANCH   1  19
TORSDOF 8
ENDMDL
MODEL 8
REMARK VINA RESULT:      -7.1      1.868      4.323
REMARK  Name = 
REMARK  8 active torsions:
REMARK  status: ('A' for Active; 'I' for Inactive)
REMARK    1  A    between atoms: C_2  and  C_3
REMARK    2  A    between atoms: C_3  and  N_4
REMARK    3  A    between atoms: N_4  and  C_5
REMARK    4  A    between atoms: N_4  and  C_12
REMARK    5  A    between atoms: C_5  and  C_6
REMARK    6  A    between atoms: C_16  and  O_17
REMARK    7  A    between atoms: C_16  and  C_18
REMARK    8  A    between atoms: C_19  and  C_20
REMARK                            x       y       z     vdW  Elec       q    Type
REMARK                         _______ _______ _______ _____ _____    ______ ____
ROOT
ATOM      1  C   UNL     1       3.641   4.751  17.404  0.00  0.00    +0.000 C 
ATOM      2  C   UNL     1       3.684   3.204  17.415  0.00  0.00    +0.000 C 
ATOM      3  C   UNL     1       2.370   2.737  18.054  0.00  0.00    +0.000 C 
ATOM      4  C   UNL     1       1.654   3.997  18.523  0.00  0.00    +0.000 C 
ATOM      5  C   UNL     1       2.771   5.035  18.681  0.00  0.00    +0.000 C 
ENDROOT
BRANCH   5   6
ATOM      6  O   UNL     1       3.503   4.755  19.871  0.00  0.00    +0.000 OA
ATOM      7  H   UNL     1       4.389   4.472  19.580  0.00  0.00    +0.000 HD
ENDBRANCH   5   6
BRANCH   5   8
ATOM      8  C   UNL     1       2.134   6.387  18.766  0.00  0.00    +0.000 C 
ATOM      9  C   UNL     1       2.534   7.528  18.175  0.00  0.00    +0.000 C 
BRANCH   9  10
ATOM     10  C   UNL     1       1.820   8.737  18.581  0.00  0.00    +0.000 A 
ATOM     11  C   UNL     1       1.149   8.793  19.818  0.00  0.00    +0.000 A 
ATOM     12  C   UNL     1       0.815  10.029  20.385  0.00  0.00    +0.000 A 
ATOM     13  C   UNL     1       1.214  11.162  19.710  0.00  0.00    +0.000 A 
ATOM     14  C   UNL     1       1.809  11.101  18.469  0.00  0.00    +0.000 A 
ATOM     15  C   UNL     1       2.080   9.906  17.853  0.00  0.00    +0.000 A 
ATOM     16  O   UNL     1       2.215  12.322  18.026  0.00  0.00    +0.000 OA
ATOM     17  C   UNL     1       2.098  13.062  19.257  0.00  0.00    +0.000 C 
ATOM     18  O   UNL     1       1.191  12.438  20.191  0.00  0.00    +0.000 OA
ENDBRANCH   9  10
ENDBRANCH   5   8
BRANCH   1  19
ATOM     19  N   UNL     1       4.979   5.391  17.335  0.00  0.00    +0.000 NA
BRANCH  19  20
ATOM     20  C   UNL     1       6.120   4.539  17.760  0.00  0.00    +0.000 C 
BRANCH  20  22
ATOM     21  N   UNL     1       7.504   5.516  19.965  0.00  0.00    +0.000 NA
ATOM     22  C   UNL     1       6.877   5.072  18.964  0.00  0.00    +0.000 C 
ENDBRANCH  20  22
ENDBRANCH  19  20
BRANCH  19  23
ATOM     23  C   UNL     1       5.266   6.068  16.055  0.00  0.00    +0.000 C 
BRANCH  23  24
ATOM     24  C   UNL     1       5.890   5.284  14.914  0.00  0.00    +0.000 A 
ATOM     25  C   UNL     1       7.194   5.462  14.412  0.00  0.00    +0.000 A 
ATOM     26  C   UNL     1       7.640   4.813  13.266  0.00  0.00    +0.000 A 
ATOM     27  C   UNL     1       6.801   3.925  12.611  0.00  0.00    +0.000 A 
ATOM     28  C   UNL     1       5.531   3.666  13.124  0.00  0.00    +0.000 A 
ATOM     29  C   UNL     1       5.083   4.340  14.264  0.00  0.00    +0.000 A 
ENDBRANCH  23  24
ENDBRANCH  19  23
ENDBRANCH   1  19
TORSDOF 8
ENDMDL
MODEL 9
REMARK VINA RESULT:      -7.1      3.906      5.676
REMARK  Name = 
REMARK  8 active torsions:
REMARK  status: ('A' for Active; 'I' for Inactive)
REMARK    1  A    between atoms: C_2  and  C_3
REMARK    2  A    between atoms: C_3  and  N_4
REMARK    3  A    between atoms: N_4  and  C_5
REMARK    4  A    between atoms: N_4  and  C_12
REMARK    5  A    between atoms: C_5  and  C_6
REMARK    6  A    between atoms: C_16  and  O_17
REMARK    7  A    between atoms: C_16  and  C_18
REMARK    8  A    between atoms: C_19  and  C_20
REMARK                            x       y       z     vdW  Elec       q    Type
REMARK                         _______ _______ _______ _____ _____    ______ ____
ROOT
ATOM      1  C   UNL     1       5.272   5.912  18.084  0.00  0.00    +0.000 C 
ATOM      2  C   UNL     1       5.339   4.476  17.512  0.00  0.00    +0.000 C 
ATOM      3  C   UNL     1       6.763   4.288  16.975  0.00  0.00    +0.000 C 
ATOM      4  C   UNL     1       7.453   5.638  17.116  0.00  0.00    +0.000 C 
ATOM      5  C   UNL     1       6.304   6.652  17.158  0.00  0.00    +0.000 C 
ENDROOT
BRANCH   5   6
ATOM      6  O   UNL     1       5.781   6.819  15.843  0.00  0.00    +0.000 OA
ATOM      7  H   UNL     1       5.514   7.753  15.777  0.00  0.00    +0.000 HD
ENDBRANCH   5   6
BRANCH   5   8
ATOM      8  C   UNL     1       6.852   7.947  17.671  0.00  0.00    +0.000 C 
ATOM      9  C   UNL     1       8.071   8.473  17.454  0.00  0.00    +0.000 C 
BRANCH   9  10
ATOM     10  C   UNL     1       8.393   9.670  18.229  0.00  0.00    +0.000 A 
ATOM     11  C   UNL     1       9.092   9.569  19.447  0.00  0.00    +0.000 A 
ATOM     12  C   UNL     1       9.742  10.688  19.984  0.00  0.00    +0.000 A 
ATOM     13  C   UNL     1       9.705  11.852  19.246  0.00  0.00    +0.000 A 
ATOM     14  C   UNL     1       8.963  11.962  18.091  0.00  0.00    +0.000 A 
ATOM     15  C   UNL     1       8.254  10.905  17.582  0.00  0.00    +0.000 A 
ATOM     16  O   UNL     1       9.146  13.158  17.468  0.00  0.00    +0.000 OA
ATOM     17  C   UNL     1      10.309  13.615  18.187  0.00  0.00    +0.000 C 
ATOM     18  O   UNL     1      10.450  12.972  19.472  0.00  0.00    +0.000 OA
ENDBRANCH   9  10
ENDBRANCH   5   8
BRANCH   1  19
ATOM     19  N   UNL     1       3.898   6.470  18.155  0.00  0.00    +0.000 NA
BRANCH  19  20
ATOM     20  C   UNL     1       3.683   7.738  17.411  0.00  0.00    +0.000 C 
BRANCH  20  22
ATOM     21  N   UNL     1       1.369   9.101  18.134  0.00  0.00    +0.000 NA
ATOM     22  C   UNL     1       2.419   8.482  17.806  0.00  0.00    +0.000 C 
ENDBRANCH  20  22
ENDBRANCH  19  20
BRANCH  19  23
ATOM     23  C   UNL     1       2.828   5.495  17.870  0.00  0.00    +0.000 C 
BRANCH  23  24
ATOM     24  C   UNL     1       2.225   4.687  19.006  0.00  0.00    +0.000 A 
ATOM     25  C   UNL     1       2.505   4.861  20.376  0.00  0.00    +0.000 A 
ATOM     26  C   UNL     1       2.032   3.983  21.344  0.00  0.00    +0.000 A 
ATOM     27  C   UNL     1       1.222   2.922  20.970  0.00  0.00    +0.000 A 
ATOM     28  C   UNL     1       0.861   2.764  19.633  0.00  0.00    +0.000 A 
ATOM     29  C   UNL     1       1.359   3.640  18.663  0.00  0.00    +0.000 A 
ENDBRANCH  23  24
ENDBRANCH  19  23
ENDBRANCH   1  19
TORSDOF 8
ENDMDL
