MODEL 1
REMARK VINA RESULT:      -7.3      0.000      0.000
REMARK  Name = 
REMARK  4 active torsions:
REMARK  status: ('A' for Active; 'I' for Inactive)
REMARK    1  A    between atoms: C_2  and  O_3
REMARK    2  A    between atoms: C_2  and  C_4
REMARK    3  A    between atoms: C_9  and  C_11
REMARK    4  A    between atoms: C_11  and  C_12
REMARK                            x       y       z     vdW  Elec       q    Type
REMARK                         _______ _______ _______ _____ _____    ______ ____
ROOT
ATOM      1  C   UNL     1       2.188   3.501  19.548  0.00  0.00    +0.000 C 
ATOM      2  C   UNL     1       1.110   4.193  20.399  0.00  0.00    +0.000 C 
ATOM      3  C   UNL     1       1.671   5.570  20.692  0.00  0.00    +0.000 C 
ATOM      4  C   UNL     1       2.548   5.885  19.494  0.00  0.00    +0.000 C 
ATOM      5  N   UNL     1       2.725   4.635  18.766  0.00  0.00    +0.000 N 
ATOM      6  C   UNL     1       3.642   4.482  17.745  0.00  0.00    +0.000 C 
ATOM      7  O   UNL     1       3.800   3.360  17.250  0.00  0.00    +0.000 OA
ENDROOT
BRANCH   1   9
ATOM      8  O   UNL     1       0.290   2.216  18.741  0.00  0.00    +0.000 OA
ATOM      9  C   UNL     1       1.503   2.272  18.917  0.00  0.00    +0.000 C 
BRANCH   9  10
ATOM     10  O   UNL     1       2.308   1.255  18.559  0.00  0.00    +0.000 OA
ATOM     11  H   UNL     1       1.899   0.710  17.848  0.00  0.00    +0.000 HD
ENDBRANCH   9  10
ENDBRANCH   1   9
BRANCH   6  12
ATOM     12  C   UNL     1       4.269   5.746  17.154  0.00  0.00    +0.000 C 
BRANCH  12  13
ATOM     13  C   UNL     1       5.625   6.112  17.707  0.00  0.00    +0.000 A 
ATOM     14  C   UNL     1       6.198   5.386  18.760  0.00  0.00    +0.000 A 
ATOM     15  C   UNL     1       7.462   5.724  19.249  0.00  0.00    +0.000 A 
ATOM     16  C   UNL     1       8.172   6.780  18.682  0.00  0.00    +0.000 A 
ATOM     17  C   UNL     1       7.620   7.500  17.627  0.00  0.00    +0.000 A 
ATOM     18  C   UNL     1       6.353   7.169  17.141  0.00  0.00    +0.000 A 
ENDBRANCH  12  13
ENDBRANCH   6  12
TORSDOF 4
ENDMDL
MODEL 2
REMARK VINA RESULT:      -7.2      0.124      1.173
REMARK  Name = 
REMARK  4 active torsions:
REMARK  status: ('A' for Active; 'I' for Inactive)
REMARK    1  A    between atoms: C_2  and  O_3
REMARK    2  A    between atoms: C_2  and  C_4
REMARK    3  A    between atoms: C_9  and  C_11
REMARK    4  A    between atoms: C_11  and  C_12
REMARK                            x       y       z     vdW  Elec       q    Type
REMARK                         _______ _______ _______ _____ _____    ______ ____
ROOT
ATOM      1  C   UNL     1       2.233   3.491  19.528  0.00  0.00    +0.000 C 
ATOM      2  C   UNL     1       1.199   4.227  20.396  0.00  0.00    +0.000 C 
ATOM      3  C   UNL     1       1.804   5.594  20.644  0.00  0.00    +0.000 C 
ATOM      4  C   UNL     1       2.651   5.864  19.414  0.00  0.00    +0.000 C 
ATOM      5  N   UNL     1       2.775   4.595  18.706  0.00  0.00    +0.000 N 
ATOM      6  C   UNL     1       3.656   4.398  17.662  0.00  0.00    +0.000 C 
ATOM      7  O   UNL     1       3.771   3.263  17.186  0.00  0.00    +0.000 OA
ENDROOT
BRANCH   1   9
ATOM      8  O   UNL     1       0.277   2.226  18.836  0.00  0.00    +0.000 OA
ATOM      9  C   UNL     1       1.498   2.268  18.942  0.00  0.00    +0.000 C 
BRANCH   9  10
ATOM     10  O   UNL     1       2.269   1.239  18.544  0.00  0.00    +0.000 OA
ATOM     11  H   UNL     1       1.760   0.397  18.529  0.00  0.00    +0.000 HD
ENDBRANCH   9  10
ENDBRANCH   1   9
BRANCH   6  12
ATOM     12  C   UNL     1       4.297   5.634  17.027  0.00  0.00    +0.000 C 
BRANCH  12  13
ATOM     13  C   UNL     1       5.646   6.018  17.583  0.00  0.00    +0.000 A 
ATOM     14  C   UNL     1       6.306   7.176  17.151  0.00  0.00    +0.000 A 
ATOM     15  C   UNL     1       7.545   7.528  17.689  0.00  0.00    +0.000 A 
ATOM     16  C   UNL     1       8.132   6.736  18.674  0.00  0.00    +0.000 A 
ATOM     17  C   UNL     1       7.481   5.590  19.122  0.00  0.00    +0.000 A 
ATOM     18  C   UNL     1       6.244   5.232  18.580  0.00  0.00    +0.000 A 
ENDBRANCH  12  13
ENDBRANCH   6  12
TORSDOF 4
ENDMDL
MODEL 3
REMARK VINA RESULT:      -7.0      2.614      6.166
REMARK  Name = 
REMARK  4 active torsions:
REMARK  status: ('A' for Active; 'I' for Inactive)
REMARK    1  A    between atoms: C_2  and  O_3
REMARK    2  A    between atoms: C_2  and  C_4
REMARK    3  A    between atoms: C_9  and  C_11
REMARK    4  A    between atoms: C_11  and  C_12
REMARK                            x       y       z     vdW  Elec       q    Type
REMARK                         _______ _______ _______ _____ _____    ______ ____
ROOT
ATOM      1  C   UNL     1       6.870   4.917  17.911  0.00  0.00    +0.000 C 
ATOM      2  C   UNL     1       7.482   4.855  16.502  0.00  0.00    +0.000 C 
ATOM      3  C   UNL     1       6.396   4.253  15.633  0.00  0.00    +0.000 C 
ATOM      4  C   UNL     1       5.099   4.691  16.289  0.00  0.00    +0.000 C 
ATOM      5  N   UNL     1       5.451   5.203  17.608  0.00  0.00    +0.000 N 
ATOM      6  C   UNL     1       4.513   5.485  18.582  0.00  0.00    +0.000 C 
ATOM      7  O   UNL     1       4.903   5.817  19.706  0.00  0.00    +0.000 OA
ENDROOT
BRANCH   1   9
ATOM      8  O   UNL     1       8.126   6.961  18.304  0.00  0.00    +0.000 OA
ATOM      9  C   UNL     1       7.779   5.861  18.724  0.00  0.00    +0.000 C 
BRANCH   9  10
ATOM     10  O   UNL     1       8.176   5.419  19.932  0.00  0.00    +0.000 OA
ATOM     11  H   UNL     1       8.581   6.143  20.462  0.00  0.00    +0.000 HD
ENDBRANCH   9  10
ENDBRANCH   1   9
BRANCH   6  12
ATOM     12  C   UNL     1       3.045   5.560  18.156  0.00  0.00    +0.000 C 
BRANCH  12  13
ATOM     13  C   UNL     1       2.146   4.507  18.759  0.00  0.00    +0.000 A 
ATOM     14  C   UNL     1       1.718   3.403  18.009  0.00  0.00    +0.000 A 
ATOM     15  C   UNL     1       0.902   2.428  18.586  0.00  0.00    +0.000 A 
ATOM     16  C   UNL     1       0.517   2.538  19.921  0.00  0.00    +0.000 A 
ATOM     17  C   UNL     1       0.946   3.622  20.680  0.00  0.00    +0.000 A 
ATOM     18  C   UNL     1       1.756   4.602  20.104  0.00  0.00    +0.000 A 
ENDBRANCH  12  13
ENDBRANCH   6  12
TORSDOF 4
ENDMDL
MODEL 4
REMARK VINA RESULT:      -6.9      2.727      6.270
REMARK  Name = 
REMARK  4 active torsions:
REMARK  status: ('A' for Active; 'I' for Inactive)
REMARK    1  A    between atoms: C_2  and  O_3
REMARK    2  A    between atoms: C_2  and  C_4
REMARK    3  A    between atoms: C_9  and  C_11
REMARK    4  A    between atoms: C_11  and  C_12
REMARK                            x       y       z     vdW  Elec       q    Type
REMARK                         _______ _______ _______ _____ _____    ______ ____
ROOT
ATOM      1  C   UNL     1       7.040   5.084  16.739  0.00  0.00    +0.000 C 
ATOM      2  C   UNL     1       7.212   5.332  15.232  0.00  0.00    +0.000 C 
ATOM      3  C   UNL     1       6.533   4.153  14.564  0.00  0.00    +0.000 C 
ATOM      4  C   UNL     1       5.435   3.750  15.531  0.00  0.00    +0.000 C 
ATOM      5  N   UNL     1       5.711   4.437  16.787  0.00  0.00    +0.000 N 
ATOM      6  C   UNL     1       5.055   4.144  17.966  0.00  0.00    +0.000 C 
ATOM      7  O   UNL     1       5.423   4.701  19.006  0.00  0.00    +0.000 OA
ENDROOT
BRANCH   1   9
ATOM      8  O   UNL     1       7.219   7.504  16.862  0.00  0.00    +0.000 OA
ATOM      9  C   UNL     1       7.365   6.425  17.427  0.00  0.00    +0.000 C 
BRANCH   9  10
ATOM     10  O   UNL     1       7.817   6.356  18.693  0.00  0.00    +0.000 OA
ATOM     11  H   UNL     1       8.337   7.158  18.930  0.00  0.00    +0.000 HD
ENDBRANCH   9  10
ENDBRANCH   1   9
BRANCH   6  12
ATOM     12  C   UNL     1       3.786   3.294  17.883  0.00  0.00    +0.000 C 
BRANCH  12  13
ATOM     13  C   UNL     1       2.933   3.287  19.129  0.00  0.00    +0.000 A 
ATOM     14  C   UNL     1       1.690   3.933  19.160  0.00  0.00    +0.000 A 
ATOM     15  C   UNL     1       0.904   3.902  20.314  0.00  0.00    +0.000 A 
ATOM     16  C   UNL     1       1.344   3.215  21.442  0.00  0.00    +0.000 A 
ATOM     17  C   UNL     1       2.571   2.558  21.420  0.00  0.00    +0.000 A 
ATOM     18  C   UNL     1       3.362   2.593  20.270  0.00  0.00    +0.000 A 
ENDBRANCH  12  13
ENDBRANCH   6  12
TORSDOF 4
ENDMDL
MODEL 5
REMARK VINA RESULT:      -6.8      2.635      6.161
REMARK  Name = 
REMARK  4 active torsions:
REMARK  status: ('A' for Active; 'I' for Inactive)
REMARK    1  A    between atoms: C_2  and  O_3
REMARK    2  A    between atoms: C_2  and  C_4
REMARK    3  A    between atoms: C_9  and  C_11
REMARK    4  A    between atoms: C_11  and  C_12
REMARK                            x       y       z     vdW  Elec       q    Type
REMARK                         _______ _______ _______ _____ _____    ______ ____
ROOT
ATOM      1  C   UNL     1       6.630   5.163  17.141  0.00  0.00    +0.000 C 
ATOM      2  C   UNL     1       7.075   4.765  15.724  0.00  0.00    +0.000 C 
ATOM      3  C   UNL     1       5.969   3.866  15.209  0.00  0.00    +0.000 C 
ATOM      4  C   UNL     1       4.718   4.362  15.908  0.00  0.00    +0.000 C 
ATOM      5  N   UNL     1       5.161   5.241  16.983  0.00  0.00    +0.000 N 
ATOM      6  C   UNL     1       4.319   5.704  17.974  0.00  0.00    +0.000 C 
ATOM      7  O   UNL     1       4.798   6.361  18.905  0.00  0.00    +0.000 OA
ENDROOT
BRANCH   1   9
ATOM      8  O   UNL     1       7.823   7.243  16.744  0.00  0.00    +0.000 OA
ATOM      9  C   UNL     1       7.514   6.362  17.540  0.00  0.00    +0.000 C 
BRANCH   9  10
ATOM     10  O   UNL     1       7.932   6.400  18.819  0.00  0.00    +0.000 OA
ATOM     11  H   UNL     1       7.758   5.546  19.277  0.00  0.00    +0.000 HD
ENDBRANCH   9  10
ENDBRANCH   1   9
BRANCH   6  12
ATOM     12  C   UNL     1       2.812   5.544  17.761  0.00  0.00    +0.000 C 
BRANCH  12  13
ATOM     13  C   UNL     1       2.139   4.532  18.657  0.00  0.00    +0.000 A 
ATOM     14  C   UNL     1       1.932   4.793  20.018  0.00  0.00    +0.000 A 
ATOM     15  C   UNL     1       1.291   3.855  20.830  0.00  0.00    +0.000 A 
ATOM     16  C   UNL     1       0.839   2.654  20.289  0.00  0.00    +0.000 A 
ATOM     17  C   UNL     1       1.026   2.388  18.936  0.00  0.00    +0.000 A 
ATOM     18  C   UNL     1       1.673   3.321  18.123  0.00  0.00    +0.000 A 
ENDBRANCH  12  13
ENDBRANCH   6  12
TORSDOF 4
ENDMDL
MODEL 6
REMARK VINA RESULT:      -6.8      2.964      4.327
REMARK  Name = 
REMARK  4 active torsions:
REMARK  status: ('A' for Active; 'I' for Inactive)
REMARK    1  A    between atoms: C_2  and  O_3
REMARK    2  A    between atoms: C_2  and  C_4
REMARK    3  A    between atoms: C_9  and  C_11
REMARK    4  A    between atoms: C_11  and  C_12
REMARK                            x       y       z     vdW  Elec       q    Type
REMARK                         _______ _______ _______ _____ _____    ______ ____
ROOT
ATOM      1  C   UNL     1       3.082   3.194  19.836  0.00  0.00    +0.000 C 
ATOM      2  C   UNL     1       2.242   2.056  19.232  0.00  0.00    +0.000 C 
ATOM      3  C   UNL     1       1.042   2.746  18.614  0.00  0.00    +0.000 C 
ATOM      4  C   UNL     1       1.557   4.115  18.210  0.00  0.00    +0.000 C 
ATOM      5  N   UNL     1       2.847   4.287  18.867  0.00  0.00    +0.000 N 
ATOM      6  C   UNL     1       3.513   5.495  18.915  0.00  0.00    +0.000 C 
ATOM      7  O   UNL     1       4.551   5.576  19.581  0.00  0.00    +0.000 OA
ENDROOT
BRANCH   1   9
ATOM      8  O   UNL     1       4.686   1.873  21.097  0.00  0.00    +0.000 OA
ATOM      9  C   UNL     1       4.470   2.586  20.123  0.00  0.00    +0.000 C 
BRANCH   9  10
ATOM     10  O   UNL     1       5.445   2.875  19.240  0.00  0.00    +0.000 OA
ATOM     11  H   UNL     1       5.120   3.481  18.535  0.00  0.00    +0.000 HD
ENDBRANCH   9  10
ENDBRANCH   1   9
BRANCH   6  12
ATOM     12  C   UNL     1       3.034   6.611  17.984  0.00  0.00    +0.000 C 
BRANCH  12  13
ATOM     13  C   UNL     1       2.237   7.706  18.650  0.00  0.00    +0.000 A 
ATOM     14  C   UNL     1       1.915   7.643  20.012  0.00  0.00    +0.000 A 
ATOM     15  C   UNL     1       1.193   8.674  20.618  0.00  0.00    +0.000 A 
ATOM     16  C   UNL     1       0.798   9.783  19.874  0.00  0.00    +0.000 A 
ATOM     17  C   UNL     1       1.123   9.864  18.523  0.00  0.00    +0.000 A 
ATOM     18  C   UNL     1       1.839   8.832  17.913  0.00  0.00    +0.000 A 
ENDBRANCH  12  13
ENDBRANCH   6  12
TORSDOF 4
ENDMDL
MODEL 7
REMARK VINA RESULT:      -6.8      1.999      2.535
REMARK  Name = 
REMARK  4 active torsions:
REMARK  status: ('A' for Active; 'I' for Inactive)
REMARK    1  A    between atoms: C_2  and  O_3
REMARK    2  A    between atoms: C_2  and  C_4
REMARK    3  A    between atoms: C_9  and  C_11
REMARK    4  A    between atoms: C_11  and  C_12
REMARK                            x       y       z     vdW  Elec       q    Type
REMARK                         _______ _______ _______ _____ _____    ______ ____
ROOT
ATOM      1  C   UNL     1       2.484   4.561  20.495  0.00  0.00    +0.000 C 
ATOM      2  C   UNL     1       1.726   5.874  20.751  0.00  0.00    +0.000 C 
ATOM      3  C   UNL     1       2.264   6.841  19.716  0.00  0.00    +0.000 C 
ATOM      4  C   UNL     1       2.647   5.963  18.539  0.00  0.00    +0.000 C 
ATOM      5  N   UNL     1       2.641   4.588  19.024  0.00  0.00    +0.000 N 
ATOM      6  C   UNL     1       3.154   3.531  18.299  0.00  0.00    +0.000 C 
ATOM      7  O   UNL     1       3.202   2.415  18.828  0.00  0.00    +0.000 OA
ENDROOT
BRANCH   1   9
ATOM      8  O   UNL     1       2.069   3.034  22.340  0.00  0.00    +0.000 OA
ATOM      9  C   UNL     1       1.702   3.469  21.252  0.00  0.00    +0.000 C 
BRANCH   9  10
ATOM     10  O   UNL     1       0.583   3.012  20.661  0.00  0.00    +0.000 OA
ATOM     11  H   UNL     1       0.590   2.030  20.593  0.00  0.00    +0.000 HD
ENDBRANCH   9  10
ENDBRANCH   1   9
BRANCH   6  12
ATOM     12  C   UNL     1       3.453   3.762  16.817  0.00  0.00    +0.000 C 
BRANCH  12  13
ATOM     13  C   UNL     1       4.875   4.162  16.502  0.00  0.00    +0.000 A 
ATOM     14  C   UNL     1       5.816   4.356  17.521  0.00  0.00    +0.000 A 
ATOM     15  C   UNL     1       7.132   4.707  17.213  0.00  0.00    +0.000 A 
ATOM     16  C   UNL     1       7.525   4.854  15.885  0.00  0.00    +0.000 A 
ATOM     17  C   UNL     1       6.603   4.651  14.862  0.00  0.00    +0.000 A 
ATOM     18  C   UNL     1       5.284   4.306  15.167  0.00  0.00    +0.000 A 
ENDBRANCH  12  13
ENDBRANCH   6  12
TORSDOF 4
ENDMDL
MODEL 8
REMARK VINA RESULT:      -6.8      2.030      2.716
REMARK  Name = 
REMARK  4 active torsions:
REMARK  status: ('A' for Active; 'I' for Inactive)
REMARK    1  A    between atoms: C_2  and  O_3
REMARK    2  A    between atoms: C_2  and  C_4
REMARK    3  A    between atoms: C_9  and  C_11
REMARK    4  A    between atoms: C_11  and  C_12
REMARK                            x       y       z     vdW  Elec       q    Type
REMARK                         _______ _______ _______ _____ _____    ______ ____
ROOT
ATOM      1  C   UNL     1       2.517   4.590  20.489  0.00  0.00    +0.000 C 
ATOM      2  C   UNL     1       1.741   5.895  20.728  0.00  0.00    +0.000 C 
ATOM      3  C   UNL     1       2.254   6.851  19.670  0.00  0.00    +0.000 C 
ATOM      4  C   UNL     1       2.642   5.958  18.506  0.00  0.00    +0.000 C 
ATOM      5  N   UNL     1       2.661   4.592  19.017  0.00  0.00    +0.000 N 
ATOM      6  C   UNL     1       3.185   3.530  18.307  0.00  0.00    +0.000 C 
ATOM      7  O   UNL     1       3.256   2.425  18.856  0.00  0.00    +0.000 OA
ENDROOT
BRANCH   1   9
ATOM      8  O   UNL     1       2.156   3.074  22.354  0.00  0.00    +0.000 OA
ATOM      9  C   UNL     1       1.760   3.499  21.274  0.00  0.00    +0.000 C 
BRANCH   9  10
ATOM     10  O   UNL     1       0.628   3.035  20.714  0.00  0.00    +0.000 OA
ATOM     11  H   UNL     1       0.099   3.765  20.320  0.00  0.00    +0.000 HD
ENDBRANCH   9  10
ENDBRANCH   1   9
BRANCH   6  12
ATOM     12  C   UNL     1       3.468   3.738  16.818  0.00  0.00    +0.000 C 
BRANCH  12  13
ATOM     13  C   UNL     1       4.892   4.106  16.479  0.00  0.00    +0.000 A 
ATOM     14  C   UNL     1       5.321   4.191  15.147  0.00  0.00    +0.000 A 
ATOM     15  C   UNL     1       6.637   4.551  14.849  0.00  0.00    +0.000 A 
ATOM     16  C   UNL     1       7.533   4.843  15.875  0.00  0.00    +0.000 A 
ATOM     17  C   UNL     1       7.116   4.775  17.201  0.00  0.00    +0.000 A 
ATOM     18  C   UNL     1       5.803   4.408  17.503  0.00  0.00    +0.000 A 
ENDBRANCH  12  13
ENDBRANCH   6  12
TORSDOF 4
ENDMDL
MODEL 9
REMARK VINA RESULT:      -6.8      2.733      6.184
REMARK  Name = 
REMARK  4 active torsions:
REMARK  status: ('A' for Active; 'I' for Inactive)
REMARK    1  A    between atoms: C_2  and  O_3
REMARK    2  A    between atoms: C_2  and  C_4
REMARK    3  A    between atoms: C_9  and  C_11
REMARK    4  A    between atoms: C_11  and  C_12
REMARK                            x       y       z     vdW  Elec       q    Type
REMARK                         _______ _______ _______ _____ _____    ______ ____
ROOT
ATOM      1  C   UNL     1       6.959   5.268  17.158  0.00  0.00    +0.000 C 
ATOM      2  C   UNL     1       7.348   5.186  15.673  0.00  0.00    +0.000 C 
ATOM      3  C   UNL     1       6.439   4.122  15.092  0.00  0.00    +0.000 C 
ATOM      4  C   UNL     1       5.178   4.199  15.933  0.00  0.00    +0.000 C 
ATOM      5  N   UNL     1       5.505   5.007  17.102  0.00  0.00    +0.000 N 
ATOM      6  C   UNL     1       4.675   5.113  18.201  0.00  0.00    +0.000 C 
ATOM      7  O   UNL     1       5.075   5.735  19.191  0.00  0.00    +0.000 OA
ENDROOT
BRANCH   1   9
ATOM      8  O   UNL     1       7.577   7.615  17.021  0.00  0.00    +0.000 OA
ATOM      9  C   UNL     1       7.574   6.582  17.682  0.00  0.00    +0.000 C 
BRANCH   9  10
ATOM     10  O   UNL     1       8.109   6.543  18.917  0.00  0.00    +0.000 OA
ATOM     11  H   UNL     1       9.062   6.791  18.901  0.00  0.00    +0.000 HD
ENDBRANCH   9  10
ENDBRANCH   1   9
BRANCH   6  12
ATOM     12  C   UNL     1       3.234   4.620  18.056  0.00  0.00    +0.000 C 
BRANCH  12  13
ATOM     13  C   UNL     1       2.676   3.899  19.259  0.00  0.00    +0.000 A 
ATOM     14  C   UNL     1       3.497   3.113  20.079  0.00  0.00    +0.000 A 
ATOM     15  C   UNL     1       2.970   2.469  21.200  0.00  0.00    +0.000 A 
ATOM     16  C   UNL     1       1.623   2.613  21.522  0.00  0.00    +0.000 A 
ATOM     17  C   UNL     1       0.799   3.401  20.723  0.00  0.00    +0.000 A 
ATOM     18  C   UNL     1       1.322   4.042  19.598  0.00  0.00    +0.000 A 
ENDBRANCH  12  13
ENDBRANCH   6  12
TORSDOF 4
ENDMDL
