MODEL 1
REMARK VINA RESULT:      -6.7      0.000      0.000
REMARK  Name = 
REMARK  7 active torsions:
REMARK  status: ('A' for Active; 'I' for Inactive)
REMARK    1  A    between atoms: C_1  and  C_2
REMARK    2  A    between atoms: C_4  and  C_5
REMARK    3  A    between atoms: C_5  and  O_6
REMARK    4  A    between atoms: O_6  and  C_7
REMARK    5  A    between atoms: C_7  and  C_8
REMARK    6  A    between atoms: C_16  and  C_18
REMARK    7  A    between atoms: C_21  and  C_22
REMARK                            x       y       z     vdW  Elec       q    Type
REMARK                         _______ _______ _______ _____ _____    ______ ____
ROOT
ATOM      1  C   UNL     1       2.968   2.960  18.952  0.00  0.00    +0.000 A 
ATOM      2  C   UNL     1       2.248   2.606  17.829  0.00  0.00    +0.000 A 
ATOM      3  N   UNL     1       2.838   3.077  16.684  0.00  0.00    +0.000 NA
ATOM      4  C   UNL     1       3.910   3.739  17.079  0.00  0.00    +0.000 A 
ATOM      5  N   UNL     1       4.025   3.678  18.452  0.00  0.00    +0.000 N 
ATOM      6  C   UNL     1       5.110   4.298  19.197  0.00  0.00    +0.000 C 
ATOM      7  C   UNL     1       6.289   4.560  18.270  0.00  0.00    +0.000 C 
ATOM      8  N   UNL     1       5.828   5.250  17.061  0.00  0.00    +0.000 N 
ATOM      9  C   UNL     1       5.970   6.612  16.787  0.00  0.00    +0.000 C 
ATOM     10  O   UNL     1       5.521   7.134  15.775  0.00  0.00    +0.000 OA
ATOM     11  C   UNL     1       4.929   4.443  16.205  0.00  0.00    +0.000 C 
ATOM     12  C   UNL     1       5.737   3.417  15.401  0.00  0.00    +0.000 C 
ENDROOT
BRANCH   9  13
ATOM     13  C   UNL     1       6.660   7.477  17.803  0.00  0.00    +0.000 C 
ATOM     14  C   UNL     1       8.047   7.160  18.322  0.00  0.00    +0.000 C 
ATOM     15  C   UNL     1       7.856   8.297  17.365  0.00  0.00    +0.000 C 
ENDBRANCH   9  13
BRANCH   1  16
ATOM     16  C   UNL     1       2.738   2.671  20.388  0.00  0.00    +0.000 C 
BRANCH  16  17
ATOM     17  O   UNL     1       2.644   3.929  21.048  0.00  0.00    +0.000 OA
BRANCH  17  18
ATOM     18  C   UNL     1       1.385   4.562  20.796  0.00  0.00    +0.000 C 
BRANCH  18  22
ATOM     19  C   UNL     1       2.806   8.284  17.839  0.00  0.00    +0.000 C 
ATOM     20  C   UNL     1       2.223   7.608  19.028  0.00  0.00    +0.000 A 
ATOM     21  N   UNL     1       2.148   6.302  19.185  0.00  0.00    +0.000 NA
ATOM     22  C   UNL     1       1.556   5.999  20.406  0.00  0.00    +0.000 A 
ATOM     23  C   UNL     1       1.195   7.104  21.157  0.00  0.00    +0.000 A 
ATOM     24  S   UNL     1       1.590   8.545  20.323  0.00  0.00    +0.000 S 
ENDBRANCH  18  22
ENDBRANCH  17  18
ENDBRANCH  16  17
ENDBRANCH   1  16
TORSDOF 5
ENDMDL
MODEL 2
REMARK VINA RESULT:      -6.7      1.722      2.812
REMARK  Name = 
REMARK  7 active torsions:
REMARK  status: ('A' for Active; 'I' for Inactive)
REMARK    1  A    between atoms: C_1  and  C_2
REMARK    2  A    between atoms: C_4  and  C_5
REMARK    3  A    between atoms: C_5  and  O_6
REMARK    4  A    between atoms: O_6  and  C_7
REMARK    5  A    between atoms: C_7  and  C_8
REMARK    6  A    between atoms: C_16  and  C_18
REMARK    7  A    between atoms: C_21  and  C_22
REMARK                            x       y       z     vdW  Elec       q    Type
REMARK                         _______ _______ _______ _____ _____    ______ ____
ROOT
ATOM      1  C   UNL     1       2.919   3.523  19.326  0.00  0.00    +0.000 A 
ATOM      2  C   UNL     1       3.669   2.871  20.283  0.00  0.00    +0.000 A 
ATOM      3  N   UNL     1       5.009   3.119  20.129  0.00  0.00    +0.000 NA
ATOM      4  C   UNL     1       5.108   3.905  19.072  0.00  0.00    +0.000 A 
ATOM      5  N   UNL     1       3.854   4.180  18.566  0.00  0.00    +0.000 N 
ATOM      6  C   UNL     1       3.621   5.030  17.410  0.00  0.00    +0.000 C 
ATOM      7  C   UNL     1       4.832   5.922  17.173  0.00  0.00    +0.000 C 
ATOM      8  N   UNL     1       6.055   5.113  17.173  0.00  0.00    +0.000 N 
ATOM      9  C   UNL     1       6.775   4.711  16.046  0.00  0.00    +0.000 C 
ATOM     10  O   UNL     1       7.766   3.997  16.115  0.00  0.00    +0.000 OA
ATOM     11  C   UNL     1       6.374   4.492  18.479  0.00  0.00    +0.000 C 
ATOM     12  C   UNL     1       6.973   5.533  19.433  0.00  0.00    +0.000 C 
ENDROOT
BRANCH   9  13
ATOM     13  C   UNL     1       6.279   5.135  14.693  0.00  0.00    +0.000 C 
ATOM     14  C   UNL     1       6.838   4.554  13.412  0.00  0.00    +0.000 C 
ATOM     15  C   UNL     1       5.471   4.149  13.875  0.00  0.00    +0.000 C 
ENDBRANCH   9  13
BRANCH   1  16
ATOM     16  C   UNL     1       1.454   3.569  19.101  0.00  0.00    +0.000 C 
BRANCH  16  17
ATOM     17  O   UNL     1       0.922   4.483  20.054  0.00  0.00    +0.000 OA
BRANCH  17  18
ATOM     18  C   UNL     1       1.942   5.329  20.596  0.00  0.00    +0.000 C 
BRANCH  18  22
ATOM     19  C   UNL     1       2.044   9.513  17.932  0.00  0.00    +0.000 C 
ATOM     20  C   UNL     1       1.751   8.608  19.075  0.00  0.00    +0.000 A 
ATOM     21  N   UNL     1       2.071   7.331  19.120  0.00  0.00    +0.000 NA
ATOM     22  C   UNL     1       1.662   6.776  20.328  0.00  0.00    +0.000 A 
ATOM     23  C   UNL     1       1.035   7.666  21.182  0.00  0.00    +0.000 A 
ATOM     24  S   UNL     1       0.943   9.217  20.465  0.00  0.00    +0.000 S 
ENDBRANCH  18  22
ENDBRANCH  17  18
ENDBRANCH  16  17
ENDBRANCH   1  16
TORSDOF 5
ENDMDL
MODEL 3
REMARK VINA RESULT:      -6.4      1.155      1.368
REMARK  Name = 
REMARK  7 active torsions:
REMARK  status: ('A' for Active; 'I' for Inactive)
REMARK    1  A    between atoms: C_1  and  C_2
REMARK    2  A    between atoms: C_4  and  C_5
REMARK    3  A    between atoms: C_5  and  O_6
REMARK    4  A    between atoms: O_6  and  C_7
REMARK    5  A    between atoms: C_7  and  C_8
REMARK    6  A    between atoms: C_16  and  C_18
REMARK    7  A    between atoms: C_21  and  C_22
REMARK                            x       y       z     vdW  Elec       q    Type
REMARK                         _______ _______ _______ _____ _____    ______ ____
ROOT
ATOM      1  C   UNL     1       2.435   3.416  18.980  0.00  0.00    +0.000 A 
ATOM      2  C   UNL     1       1.815   2.988  17.824  0.00  0.00    +0.000 A 
ATOM      3  N   UNL     1       2.577   3.255  16.716  0.00  0.00    +0.000 NA
ATOM      4  C   UNL     1       3.660   3.864  17.164  0.00  0.00    +0.000 A 
ATOM      5  N   UNL     1       3.611   3.968  18.539  0.00  0.00    +0.000 N 
ATOM      6  C   UNL     1       4.662   4.577  19.338  0.00  0.00    +0.000 C 
ATOM      7  C   UNL     1       5.959   4.614  18.542  0.00  0.00    +0.000 C 
ATOM      8  N   UNL     1       5.714   5.184  17.214  0.00  0.00    +0.000 N 
ATOM      9  C   UNL     1       6.027   6.482  16.805  0.00  0.00    +0.000 C 
ATOM     10  O   UNL     1       5.753   6.909  15.692  0.00  0.00    +0.000 OA
ATOM     11  C   UNL     1       4.840   4.358  16.350  0.00  0.00    +0.000 C 
ATOM     12  C   UNL     1       5.623   3.170  15.777  0.00  0.00    +0.000 C 
ENDROOT
BRANCH   9  13
ATOM     13  C   UNL     1       6.683   7.403  17.794  0.00  0.00    +0.000 C 
ATOM     14  C   UNL     1       8.033   7.098  18.407  0.00  0.00    +0.000 C 
ATOM     15  C   UNL     1       7.917   8.168  17.364  0.00  0.00    +0.000 C 
ENDBRANCH   9  13
BRANCH   1  16
ATOM     16  C   UNL     1       2.013   3.333  20.400  0.00  0.00    +0.000 C 
BRANCH  16  17
ATOM     17  O   UNL     1       1.213   4.482  20.657  0.00  0.00    +0.000 OA
BRANCH  17  18
ATOM     18  C   UNL     1       1.982   5.537  21.244  0.00  0.00    +0.000 C 
BRANCH  18  22
ATOM     19  C   UNL     1       0.381  10.199  20.686  0.00  0.00    +0.000 C 
ATOM     20  C   UNL     1       1.045   8.914  20.340  0.00  0.00    +0.000 A 
ATOM     21  N   UNL     1       1.118   7.871  21.141  0.00  0.00    +0.000 NA
ATOM     22  C   UNL     1       1.796   6.831  20.513  0.00  0.00    +0.000 A 
ATOM     23  C   UNL     1       2.221   7.120  19.228  0.00  0.00    +0.000 A 
ATOM     24  S   UNL     1       1.779   8.716  18.799  0.00  0.00    +0.000 S 
ENDBRANCH  18  22
ENDBRANCH  17  18
ENDBRANCH  16  17
ENDBRANCH   1  16
TORSDOF 5
ENDMDL
MODEL 4
REMARK VINA RESULT:      -6.4      2.711      5.286
REMARK  Name = 
REMARK  7 active torsions:
REMARK  status: ('A' for Active; 'I' for Inactive)
REMARK    1  A    between atoms: C_1  and  C_2
REMARK    2  A    between atoms: C_4  and  C_5
REMARK    3  A    between atoms: C_5  and  O_6
REMARK    4  A    between atoms: O_6  and  C_7
REMARK    5  A    between atoms: C_7  and  C_8
REMARK    6  A    between atoms: C_16  and  C_18
REMARK    7  A    between atoms: C_21  and  C_22
REMARK                            x       y       z     vdW  Elec       q    Type
REMARK                         _______ _______ _______ _____ _____    ______ ____
ROOT
ATOM      1  C   UNL     1       3.017   7.613  17.638  0.00  0.00    +0.000 A 
ATOM      2  C   UNL     1       4.351   7.869  17.399  0.00  0.00    +0.000 A 
ATOM      3  N   UNL     1       5.100   6.721  17.441  0.00  0.00    +0.000 NA
ATOM      4  C   UNL     1       4.251   5.750  17.724  0.00  0.00    +0.000 A 
ATOM      5  N   UNL     1       2.973   6.256  17.840  0.00  0.00    +0.000 N 
ATOM      6  C   UNL     1       1.807   5.438  18.133  0.00  0.00    +0.000 C 
ATOM      7  C   UNL     1       2.103   3.981  17.805  0.00  0.00    +0.000 C 
ATOM      8  N   UNL     1       3.373   3.580  18.419  0.00  0.00    +0.000 N 
ATOM      9  C   UNL     1       3.520   2.815  19.577  0.00  0.00    +0.000 C 
ATOM     10  O   UNL     1       4.613   2.552  20.062  0.00  0.00    +0.000 OA
ATOM     11  C   UNL     1       4.560   4.273  17.868  0.00  0.00    +0.000 C 
ATOM     12  C   UNL     1       4.943   3.677  16.508  0.00  0.00    +0.000 C 
ENDROOT
BRANCH   9  13
ATOM     13  C   UNL     1       2.282   2.337  20.281  0.00  0.00    +0.000 C 
ATOM     14  C   UNL     1       2.207   2.217  21.788  0.00  0.00    +0.000 C 
ATOM     15  C   UNL     1       1.483   3.332  21.097  0.00  0.00    +0.000 C 
ENDBRANCH   9  13
BRANCH   1  16
ATOM     16  C   UNL     1       1.842   8.518  17.679  0.00  0.00    +0.000 C 
BRANCH  16  17
ATOM     17  O   UNL     1       2.146   9.540  18.622  0.00  0.00    +0.000 OA
BRANCH  17  18
ATOM     18  C   UNL     1       1.006  10.363  18.890  0.00  0.00    +0.000 C 
BRANCH  18  22
ATOM     19  C   UNL     1      -1.477  11.707  22.969  0.00  0.00    +0.000 C 
ATOM     20  C   UNL     1      -0.602  10.887  22.090  0.00  0.00    +0.000 A 
ATOM     21  N   UNL     1      -0.311  11.181  20.840  0.00  0.00    +0.000 NA
ATOM     22  C   UNL     1       0.536  10.216  20.305  0.00  0.00    +0.000 A 
ATOM     23  C   UNL     1       0.873   9.201  21.183  0.00  0.00    +0.000 A 
ATOM     24  S   UNL     1       0.114   9.446  22.697  0.00  0.00    +0.000 S 
ENDBRANCH  18  22
ENDBRANCH  17  18
ENDBRANCH  16  17
ENDBRANCH   1  16
TORSDOF 5
ENDMDL
MODEL 5
REMARK VINA RESULT:      -6.4      2.637      5.338
REMARK  Name = 
REMARK  7 active torsions:
REMARK  status: ('A' for Active; 'I' for Inactive)
REMARK    1  A    between atoms: C_1  and  C_2
REMARK    2  A    between atoms: C_4  and  C_5
REMARK    3  A    between atoms: C_5  and  O_6
REMARK    4  A    between atoms: O_6  and  C_7
REMARK    5  A    between atoms: C_7  and  C_8
REMARK    6  A    between atoms: C_16  and  C_18
REMARK    7  A    between atoms: C_21  and  C_22
REMARK                            x       y       z     vdW  Elec       q    Type
REMARK                         _______ _______ _______ _____ _____    ______ ____
ROOT
ATOM      1  C   UNL     1       3.129   7.587  17.689  0.00  0.00    +0.000 A 
ATOM      2  C   UNL     1       4.483   7.770  17.496  0.00  0.00    +0.000 A 
ATOM      3  N   UNL     1       5.166   6.583  17.560  0.00  0.00    +0.000 NA
ATOM      4  C   UNL     1       4.256   5.659  17.811  0.00  0.00    +0.000 A 
ATOM      5  N   UNL     1       3.005   6.234  17.884  0.00  0.00    +0.000 N 
ATOM      6  C   UNL     1       1.786   5.480  18.135  0.00  0.00    +0.000 C 
ATOM      7  C   UNL     1       2.013   4.010  17.813  0.00  0.00    +0.000 C 
ATOM      8  N   UNL     1       3.238   3.539  18.469  0.00  0.00    +0.000 N 
ATOM      9  C   UNL     1       3.303   2.766  19.629  0.00  0.00    +0.000 C 
ATOM     10  O   UNL     1       4.362   2.444  20.150  0.00  0.00    +0.000 OA
ATOM     11  C   UNL     1       4.479   4.167  17.961  0.00  0.00    +0.000 C 
ATOM     12  C   UNL     1       4.876   3.552  16.613  0.00  0.00    +0.000 C 
ENDROOT
BRANCH   9  13
ATOM     13  C   UNL     1       2.017   2.356  20.288  0.00  0.00    +0.000 C 
ATOM     14  C   UNL     1       1.859   2.320  21.794  0.00  0.00    +0.000 C 
ATOM     15  C   UNL     1       1.201   3.411  21.005  0.00  0.00    +0.000 C 
ENDBRANCH   9  13
BRANCH   1  16
ATOM     16  C   UNL     1       2.005   8.554  17.692  0.00  0.00    +0.000 C 
BRANCH  16  17
ATOM     17  O   UNL     1       2.323   9.548  18.660  0.00  0.00    +0.000 OA
BRANCH  17  18
ATOM     18  C   UNL     1       1.428  10.663  18.582  0.00  0.00    +0.000 C 
BRANCH  18  22
ATOM     19  C   UNL     1      -0.039   9.496  23.175  0.00  0.00    +0.000 C 
ATOM     20  C   UNL     1       0.095  10.292  21.927  0.00  0.00    +0.000 A 
ATOM     21  N   UNL     1       0.798   9.924  20.876  0.00  0.00    +0.000 NA
ATOM     22  C   UNL     1       0.711  10.889  19.878  0.00  0.00    +0.000 A 
ATOM     23  C   UNL     1      -0.075  11.980  20.205  0.00  0.00    +0.000 A 
ATOM     24  S   UNL     1      -0.706  11.807  21.786  0.00  0.00    +0.000 S 
ENDBRANCH  18  22
ENDBRANCH  17  18
ENDBRANCH  16  17
ENDBRANCH   1  16
TORSDOF 5
ENDMDL
MODEL 6
REMARK VINA RESULT:      -6.3      3.064      5.376
REMARK  Name = 
REMARK  7 active torsions:
REMARK  status: ('A' for Active; 'I' for Inactive)
REMARK    1  A    between atoms: C_1  and  C_2
REMARK    2  A    between atoms: C_4  and  C_5
REMARK    3  A    between atoms: C_5  and  O_6
REMARK    4  A    between atoms: O_6  and  C_7
REMARK    5  A    between atoms: C_7  and  C_8
REMARK    6  A    between atoms: C_16  and  C_18
REMARK    7  A    between atoms: C_21  and  C_22
REMARK                            x       y       z     vdW  Elec       q    Type
REMARK                         _______ _______ _______ _____ _____    ______ ____
ROOT
ATOM      1  C   UNL     1       3.205   7.587  17.623  0.00  0.00    +0.000 A 
ATOM      2  C   UNL     1       4.560   7.739  17.412  0.00  0.00    +0.000 A 
ATOM      3  N   UNL     1       5.218   6.538  17.478  0.00  0.00    +0.000 NA
ATOM      4  C   UNL     1       4.291   5.637  17.746  0.00  0.00    +0.000 A 
ATOM      5  N   UNL     1       3.053   6.239  17.830  0.00  0.00    +0.000 N 
ATOM      6  C   UNL     1       1.821   5.515  18.101  0.00  0.00    +0.000 C 
ATOM      7  C   UNL     1       2.013   4.037  17.788  0.00  0.00    +0.000 C 
ATOM      8  N   UNL     1       3.234   3.544  18.433  0.00  0.00    +0.000 N 
ATOM      9  C   UNL     1       3.297   2.779  19.598  0.00  0.00    +0.000 C 
ATOM     10  O   UNL     1       4.355   2.437  20.109  0.00  0.00    +0.000 OA
ATOM     11  C   UNL     1       4.483   4.141  17.905  0.00  0.00    +0.000 C 
ATOM     12  C   UNL     1       4.849   3.507  16.558  0.00  0.00    +0.000 C 
ENDROOT
BRANCH   9  13
ATOM     13  C   UNL     1       2.011   2.402  20.276  0.00  0.00    +0.000 C 
ATOM     14  C   UNL     1       1.869   2.383  21.783  0.00  0.00    +0.000 C 
ATOM     15  C   UNL     1       1.226   3.481  20.993  0.00  0.00    +0.000 C 
ENDBRANCH   9  13
BRANCH   1  16
ATOM     16  C   UNL     1       2.102   8.580  17.632  0.00  0.00    +0.000 C 
BRANCH  16  17
ATOM     17  O   UNL     1       2.218   9.309  18.849  0.00  0.00    +0.000 OA
BRANCH  17  18
ATOM     18  C   UNL     1       0.969   9.369  19.546  0.00  0.00    +0.000 C 
BRANCH  18  22
ATOM     19  C   UNL     1      -2.997  11.397  17.362  0.00  0.00    +0.000 C 
ATOM     20  C   UNL     1      -1.688  11.330  18.065  0.00  0.00    +0.000 A 
ATOM     21  N   UNL     1      -1.092  10.215  18.433  0.00  0.00    +0.000 NA
ATOM     22  C   UNL     1       0.116  10.500  19.059  0.00  0.00    +0.000 A 
ATOM     23  C   UNL     1       0.410  11.849  19.146  0.00  0.00    +0.000 A 
ATOM     24  S   UNL     1      -0.845  12.779  18.447  0.00  0.00    +0.000 S 
ENDBRANCH  18  22
ENDBRANCH  17  18
ENDBRANCH  16  17
ENDBRANCH   1  16
TORSDOF 5
ENDMDL
MODEL 7
REMARK VINA RESULT:      -6.3      2.951      4.016
REMARK  Name = 
REMARK  7 active torsions:
REMARK  status: ('A' for Active; 'I' for Inactive)
REMARK    1  A    between atoms: C_1  and  C_2
REMARK    2  A    between atoms: C_4  and  C_5
REMARK    3  A    between atoms: C_5  and  O_6
REMARK    4  A    between atoms: O_6  and  C_7
REMARK    5  A    between atoms: C_7  and  C_8
REMARK    6  A    between atoms: C_16  and  C_18
REMARK    7  A    between atoms: C_21  and  C_22
REMARK                            x       y       z     vdW  Elec       q    Type
REMARK                         _______ _______ _______ _____ _____    ______ ____
ROOT
ATOM      1  C   UNL     1       1.883   6.079  20.311  0.00  0.00    +0.000 A 
ATOM      2  C   UNL     1       1.044   4.999  20.492  0.00  0.00    +0.000 A 
ATOM      3  N   UNL     1       1.608   3.839  20.025  0.00  0.00    +0.000 NA
ATOM      4  C   UNL     1       2.784   4.186  19.534  0.00  0.00    +0.000 A 
ATOM      5  N   UNL     1       2.989   5.539  19.702  0.00  0.00    +0.000 N 
ATOM      6  C   UNL     1       4.197   6.230  19.280  0.00  0.00    +0.000 C 
ATOM      7  C   UNL     1       5.331   5.228  19.109  0.00  0.00    +0.000 C 
ATOM      8  N   UNL     1       4.881   4.102  18.284  0.00  0.00    +0.000 N 
ATOM      9  C   UNL     1       5.183   3.897  16.937  0.00  0.00    +0.000 C 
ATOM     10  O   UNL     1       4.738   2.956  16.295  0.00  0.00    +0.000 OA
ATOM     11  C   UNL     1       3.823   3.275  18.910  0.00  0.00    +0.000 C 
ATOM     12  C   UNL     1       4.428   2.351  19.974  0.00  0.00    +0.000 C 
ENDROOT
BRANCH   9  13
ATOM     13  C   UNL     1       6.054   4.903  16.239  0.00  0.00    +0.000 C 
ATOM     14  C   UNL     1       6.163   4.966  14.730  0.00  0.00    +0.000 C 
ATOM     15  C   UNL     1       5.390   6.021  15.461  0.00  0.00    +0.000 C 
ENDBRANCH   9  13
BRANCH   1  16
ATOM     16  C   UNL     1       1.719   7.511  20.664  0.00  0.00    +0.000 C 
BRANCH  16  17
ATOM     17  O   UNL     1       1.419   8.199  19.454  0.00  0.00    +0.000 OA
BRANCH  17  18
ATOM     18  C   UNL     1       1.308   9.610  19.667  0.00  0.00    +0.000 C 
BRANCH  18  22
ATOM     19  C   UNL     1      -2.366  10.046  16.362  0.00  0.00    +0.000 C 
ATOM     20  C   UNL     1      -1.588  10.290  17.606  0.00  0.00    +0.000 A 
ATOM     21  N   UNL     1      -0.454   9.693  17.909  0.00  0.00    +0.000 NA
ATOM     22  C   UNL     1       0.016  10.150  19.135  0.00  0.00    +0.000 A 
ATOM     23  C   UNL     1      -0.788  11.102  19.737  0.00  0.00    +0.000 A 
ATOM     24  S   UNL     1      -2.158  11.426  18.764  0.00  0.00    +0.000 S 
ENDBRANCH  18  22
ENDBRANCH  17  18
ENDBRANCH  16  17
ENDBRANCH   1  16
TORSDOF 5
ENDMDL
MODEL 8
REMARK VINA RESULT:      -6.3      3.431      4.956
REMARK  Name = 
REMARK  7 active torsions:
REMARK  status: ('A' for Active; 'I' for Inactive)
REMARK    1  A    between atoms: C_1  and  C_2
REMARK    2  A    between atoms: C_4  and  C_5
REMARK    3  A    between atoms: C_5  and  O_6
REMARK    4  A    between atoms: O_6  and  C_7
REMARK    5  A    between atoms: C_7  and  C_8
REMARK    6  A    between atoms: C_16  and  C_18
REMARK    7  A    between atoms: C_21  and  C_22
REMARK                            x       y       z     vdW  Elec       q    Type
REMARK                         _______ _______ _______ _____ _____    ______ ____
ROOT
ATOM      1  C   UNL     1       2.444   7.806  18.566  0.00  0.00    +0.000 A 
ATOM      2  C   UNL     1       2.127   7.026  19.660  0.00  0.00    +0.000 A 
ATOM      3  N   UNL     1       2.943   5.928  19.749  0.00  0.00    +0.000 NA
ATOM      4  C   UNL     1       3.757   6.002  18.712  0.00  0.00    +0.000 A 
ATOM      5  N   UNL     1       3.488   7.138  17.977  0.00  0.00    +0.000 N 
ATOM      6  C   UNL     1       4.221   7.514  16.779  0.00  0.00    +0.000 C 
ATOM      7  C   UNL     1       5.565   6.798  16.750  0.00  0.00    +0.000 C 
ATOM      8  N   UNL     1       5.371   5.365  16.993  0.00  0.00    +0.000 N 
ATOM      9  C   UNL     1       5.392   4.357  16.027  0.00  0.00    +0.000 C 
ATOM     10  O   UNL     1       5.179   3.182  16.293  0.00  0.00    +0.000 OA
ATOM     11  C   UNL     1       4.872   5.041  18.349  0.00  0.00    +0.000 C 
ATOM     12  C   UNL     1       6.009   5.137  19.374  0.00  0.00    +0.000 C 
ENDROOT
BRANCH   9  13
ATOM     13  C   UNL     1       5.641   4.743  14.597  0.00  0.00    +0.000 C 
ATOM     14  C   UNL     1       7.036   4.828  14.015  0.00  0.00    +0.000 C 
ATOM     15  C   UNL     1       6.143   3.685  13.637  0.00  0.00    +0.000 C 
ENDBRANCH   9  13
BRANCH   1  16
ATOM     16  C   UNL     1       1.861   9.078  18.074  0.00  0.00    +0.000 C 
BRANCH  16  17
ATOM     17  O   UNL     1       0.900   9.489  19.040  0.00  0.00    +0.000 OA
BRANCH  17  18
ATOM     18  C   UNL     1      -0.200  10.171  18.430  0.00  0.00    +0.000 C 
BRANCH  18  22
ATOM     19  C   UNL     1      -1.244  11.972  22.933  0.00  0.00    +0.000 C 
ATOM     20  C   UNL     1      -1.338  11.790  21.460  0.00  0.00    +0.000 A 
ATOM     21  N   UNL     1      -0.582  10.974  20.756  0.00  0.00    +0.000 NA
ATOM     22  C   UNL     1      -0.930  11.036  19.411  0.00  0.00    +0.000 A 
ATOM     23  C   UNL     1      -1.963  11.912  19.128  0.00  0.00    +0.000 A 
ATOM     24  S   UNL     1      -2.503  12.679  20.560  0.00  0.00    +0.000 S 
ENDBRANCH  18  22
ENDBRANCH  17  18
ENDBRANCH  16  17
ENDBRANCH   1  16
TORSDOF 5
ENDMDL
MODEL 9
REMARK VINA RESULT:      -6.3      3.651      5.030
REMARK  Name = 
REMARK  7 active torsions:
REMARK  status: ('A' for Active; 'I' for Inactive)
REMARK    1  A    between atoms: C_1  and  C_2
REMARK    2  A    between atoms: C_4  and  C_5
REMARK    3  A    between atoms: C_5  and  O_6
REMARK    4  A    between atoms: O_6  and  C_7
REMARK    5  A    between atoms: C_7  and  C_8
REMARK    6  A    between atoms: C_16  and  C_18
REMARK    7  A    between atoms: C_21  and  C_22
REMARK                            x       y       z     vdW  Elec       q    Type
REMARK                         _______ _______ _______ _____ _____    ______ ____
ROOT
ATOM      1  C   UNL     1       2.418   7.678  18.583  0.00  0.00    +0.000 A 
ATOM      2  C   UNL     1       2.163   6.889  19.686  0.00  0.00    +0.000 A 
ATOM      3  N   UNL     1       3.041   5.839  19.768  0.00  0.00    +0.000 NA
ATOM      4  C   UNL     1       3.832   5.950  18.717  0.00  0.00    +0.000 A 
ATOM      5  N   UNL     1       3.488   7.065  17.980  0.00  0.00    +0.000 N 
ATOM      6  C   UNL     1       4.179   7.473  16.767  0.00  0.00    +0.000 C 
ATOM      7  C   UNL     1       5.559   6.833  16.720  0.00  0.00    +0.000 C 
ATOM      8  N   UNL     1       5.450   5.393  16.974  0.00  0.00    +0.000 N 
ATOM      9  C   UNL     1       5.511   4.381  16.014  0.00  0.00    +0.000 C 
ATOM     10  O   UNL     1       5.368   3.197  16.291  0.00  0.00    +0.000 OA
ATOM     11  C   UNL     1       4.993   5.050  18.341  0.00  0.00    +0.000 C 
ATOM     12  C   UNL     1       6.140   5.217  19.345  0.00  0.00    +0.000 C 
ENDROOT
BRANCH   9  13
ATOM     13  C   UNL     1       5.714   4.770  14.578  0.00  0.00    +0.000 C 
ATOM     14  C   UNL     1       7.090   4.859  13.953  0.00  0.00    +0.000 C 
ATOM     15  C   UNL     1       6.189   3.715  13.600  0.00  0.00    +0.000 C 
ENDBRANCH   9  13
BRANCH   1  16
ATOM     16  C   UNL     1       1.757   8.912  18.093  0.00  0.00    +0.000 C 
BRANCH  16  17
ATOM     17  O   UNL     1       0.916   9.371  19.146  0.00  0.00    +0.000 OA
BRANCH  17  18
ATOM     18  C   UNL     1       0.441  10.698  18.898  0.00  0.00    +0.000 C 
BRANCH  18  22
ATOM     19  C   UNL     1      -4.326  12.071  18.900  0.00  0.00    +0.000 C 
ATOM     20  C   UNL     1      -3.092  11.361  18.472  0.00  0.00    +0.000 A 
ATOM     21  N   UNL     1      -1.911  11.507  19.036  0.00  0.00    +0.000 NA
ATOM     22  C   UNL     1      -0.973  10.698  18.404  0.00  0.00    +0.000 A 
ATOM     23  C   UNL     1      -1.480   9.943  17.361  0.00  0.00    +0.000 A 
ATOM     24  S   UNL     1      -3.150  10.254  17.158  0.00  0.00    +0.000 S 
ENDBRANCH  18  22
ENDBRANCH  17  18
ENDBRANCH  16  17
ENDBRANCH   1  16
TORSDOF 5
ENDMDL
