MODEL 1
REMARK VINA RESULT:      -8.4      0.000      0.000
REMARK  Name = 
REMARK  8 active torsions:
REMARK  status: ('A' for Active; 'I' for Inactive)
REMARK    1  A    between atoms: N_5  and  C_6
REMARK    2  A    between atoms: C_6  and  C_7
REMARK    3  A    between atoms: C_7  and  C_8
REMARK    4  A    between atoms: N_18  and  C1*_19
REMARK    5  A    between atoms: C4*_21  and  C5*_22
REMARK    6  A    between atoms: C5*_22  and  O5*_23
REMARK    7  A    between atoms: C3*_24  and  O3*_25
REMARK    8  A    between atoms: C2*_26  and  O2*_27
REMARK                            x       y       z     vdW  Elec       q    Type
REMARK                         _______ _______ _______ _____ _____    ______ ____
ROOT
ATOM      1  N   UNL     1       5.071   6.980  14.763  0.00  0.00    +0.000 N 
ATOM      2  C   UNL     1       5.523   6.617  16.018  0.00  0.00    +0.000 A 
ATOM      3  N   UNL     1       6.590   7.286  16.483  0.00  0.00    +0.000 NA
ATOM      4  C   UNL     1       7.115   6.974  17.699  0.00  0.00    +0.000 A 
ATOM      5  N   UNL     1       8.244   7.662  18.176  0.00  0.00    +0.000 N 
ATOM      6  C   UNL     1       6.474   5.958  18.437  0.00  0.00    +0.000 A 
ATOM      7  N   UNL     1       6.683   5.435  19.698  0.00  0.00    +0.000 NA
ATOM      8  C   UNL     1       5.731   4.537  19.854  0.00  0.00    +0.000 A 
ATOM      9  N   UNL     1       4.927   4.443  18.748  0.00  0.00    +0.000 N 
ATOM     10  C   UNL     1       5.386   5.348  17.834  0.00  0.00    +0.000 A 
ATOM     11  N   UNL     1       4.878   5.613  16.624  0.00  0.00    +0.000 NA
ATOM     12  H   UNL     1       5.826   7.448  14.277  0.00  0.00    +0.000 HD
ATOM     13  H   UNL     1       4.668   6.177  14.302  0.00  0.00    +0.000 HD
ATOM     14  H   UNL     1       8.392   7.442  19.159  0.00  0.00    +0.000 HD
ENDROOT
BRANCH   9  15
ATOM     15  C1* UNL     1       3.774   3.574  18.614  0.00  0.00    +0.000 C 
ATOM     16  O4* UNL     1       2.566   4.347  18.793  0.00  0.00    +0.000 OA
ATOM     17  C4* UNL     1       1.620   3.552  19.558  0.00  0.00    +0.000 C 
ATOM     18  C3* UNL     1       2.215   2.152  19.671  0.00  0.00    +0.000 C 
ATOM     19  C2* UNL     1       3.715   2.399  19.592  0.00  0.00    +0.000 C 
BRANCH  18  20
ATOM     20  O3* UNL     1       1.852   1.318  18.553  0.00  0.00    +0.000 OA
ATOM     21  H3* UNL     1       1.685   0.411  18.868  0.00  0.00    +0.000 HD
ENDBRANCH  18  20
BRANCH  19  22
ATOM     22  O2* UNL     1       4.410   1.250  19.108  0.00  0.00    +0.000 OA
ATOM     23  H2* UNL     1       4.350   1.286  18.130  0.00  0.00    +0.000 HD
ENDBRANCH  19  22
BRANCH  17  24
ATOM     24  C5* UNL     1       1.386   4.215  20.918  0.00  0.00    +0.000 C 
BRANCH  24  25
ATOM     25  O5* UNL     1       2.120   5.435  20.996  0.00  0.00    +0.000 OA
ATOM     26  H5* UNL     1       2.740   5.333  21.744  0.00  0.00    +0.000 HD
ENDBRANCH  24  25
ENDBRANCH  17  24
ENDBRANCH   9  15
BRANCH   5  27
ATOM     27  C   UNL     1       8.264   9.082  17.823  0.00  0.00    +0.000 C 
BRANCH  27  28
ATOM     28  C   UNL     1       8.786   9.923  18.998  0.00  0.00    +0.000 C 
BRANCH  28  29
ATOM     29  C   UNL     1       9.707  11.042  18.553  0.00  0.00    +0.000 A 
ATOM     30  C   UNL     1      11.058  11.007  18.943  0.00  0.00    +0.000 A 
ATOM     31  C   UNL     1      11.946  12.015  18.559  0.00  0.00    +0.000 A 
ATOM     32  C   UNL     1      11.499  13.078  17.779  0.00  0.00    +0.000 A 
ATOM     33  C   UNL     1      10.162  13.137  17.392  0.00  0.00    +0.000 A 
ATOM     34  C   UNL     1       9.269  12.131  17.779  0.00  0.00    +0.000 A 
ATOM     35 CL   UNL     1       7.626  12.288  17.269  0.00  0.00    +0.000 Cl
ENDBRANCH  28  29
ENDBRANCH  27  28
ENDBRANCH   5  27
TORSDOF 8
ENDMDL
MODEL 2
REMARK VINA RESULT:      -8.4      1.051      1.150
REMARK  Name = 
REMARK  8 active torsions:
REMARK  status: ('A' for Active; 'I' for Inactive)
REMARK    1  A    between atoms: N_5  and  C_6
REMARK    2  A    between atoms: C_6  and  C_7
REMARK    3  A    between atoms: C_7  and  C_8
REMARK    4  A    between atoms: N_18  and  C1*_19
REMARK    5  A    between atoms: C4*_21  and  C5*_22
REMARK    6  A    between atoms: C5*_22  and  O5*_23
REMARK    7  A    between atoms: C3*_24  and  O3*_25
REMARK    8  A    between atoms: C2*_26  and  O2*_27
REMARK                            x       y       z     vdW  Elec       q    Type
REMARK                         _______ _______ _______ _____ _____    ______ ____
ROOT
ATOM      1  N   UNL     1       5.007   7.247  14.902  0.00  0.00    +0.000 N 
ATOM      2  C   UNL     1       5.457   6.748  16.110  0.00  0.00    +0.000 A 
ATOM      3  N   UNL     1       6.568   7.311  16.611  0.00  0.00    +0.000 NA
ATOM      4  C   UNL     1       7.091   6.862  17.784  0.00  0.00    +0.000 A 
ATOM      5  N   UNL     1       8.266   7.439  18.297  0.00  0.00    +0.000 N 
ATOM      6  C   UNL     1       6.403   5.822  18.442  0.00  0.00    +0.000 A 
ATOM      7  N   UNL     1       6.600   5.177  19.648  0.00  0.00    +0.000 NA
ATOM      8  C   UNL     1       5.600   4.325  19.743  0.00  0.00    +0.000 A 
ATOM      9  N   UNL     1       4.775   4.376  18.649  0.00  0.00    +0.000 N 
ATOM     10  C   UNL     1       5.272   5.331  17.809  0.00  0.00    +0.000 A 
ATOM     11  N   UNL     1       4.763   5.732  16.638  0.00  0.00    +0.000 NA
ATOM     12  H   UNL     1       5.781   7.713  14.445  0.00  0.00    +0.000 HD
ATOM     13  H   UNL     1       4.552   6.513  14.380  0.00  0.00    +0.000 HD
ATOM     14  H   UNL     1       8.416   7.123  19.254  0.00  0.00    +0.000 HD
ENDROOT
BRANCH   9  15
ATOM     15  C1* UNL     1       3.571   3.590  18.462  0.00  0.00    +0.000 C 
ATOM     16  O4* UNL     1       2.416   4.395  18.788  0.00  0.00    +0.000 OA
ATOM     17  C4* UNL     1       1.457   3.560  19.492  0.00  0.00    +0.000 C 
ATOM     18  C3* UNL     1       1.977   2.127  19.407  0.00  0.00    +0.000 C 
ATOM     19  C2* UNL     1       3.484   2.307  19.291  0.00  0.00    +0.000 C 
BRANCH  18  20
ATOM     20  O3* UNL     1       1.525   1.459  18.212  0.00  0.00    +0.000 OA
ATOM     21  H3* UNL     1       1.351   2.123  17.519  0.00  0.00    +0.000 HD
ENDBRANCH  18  20
BRANCH  19  22
ATOM     22  O2* UNL     1       4.096   1.194  18.639  0.00  0.00    +0.000 OA
ATOM     23  H2* UNL     1       3.478   0.921  17.928  0.00  0.00    +0.000 HD
ENDBRANCH  19  22
BRANCH  17  24
ATOM     24  C5* UNL     1       1.313   4.058  20.932  0.00  0.00    +0.000 C 
BRANCH  24  25
ATOM     25  O5* UNL     1       2.265   5.090  21.187  0.00  0.00    +0.000 OA
ATOM     26  H5* UNL     1       2.808   4.780  21.937  0.00  0.00    +0.000 HD
ENDBRANCH  24  25
ENDBRANCH  17  24
ENDBRANCH   9  15
BRANCH   5  27
ATOM     27  C   UNL     1       8.364   8.881  18.071  0.00  0.00    +0.000 C 
BRANCH  27  28
ATOM     28  C   UNL     1       8.957   9.582  19.303  0.00  0.00    +0.000 C 
BRANCH  28  29
ATOM     29  C   UNL     1       9.508  10.958  18.985  0.00  0.00    +0.000 A 
ATOM     30  C   UNL     1      10.077  11.187  17.719  0.00  0.00    +0.000 A 
ATOM     31  C   UNL     1      10.599  12.438  17.379  0.00  0.00    +0.000 A 
ATOM     32  C   UNL     1      10.565  13.482  18.299  0.00  0.00    +0.000 A 
ATOM     33  C   UNL     1      10.016  13.271  19.563  0.00  0.00    +0.000 A 
ATOM     34  C   UNL     1       9.496  12.018  19.908  0.00  0.00    +0.000 A 
ATOM     35 CL   UNL     1       8.848  11.838  21.499  0.00  0.00    +0.000 Cl
ENDBRANCH  28  29
ENDBRANCH  27  28
ENDBRANCH   5  27
TORSDOF 8
ENDMDL
MODEL 3
REMARK VINA RESULT:      -8.3      1.417      2.366
REMARK  Name = 
REMARK  8 active torsions:
REMARK  status: ('A' for Active; 'I' for Inactive)
REMARK    1  A    between atoms: N_5  and  C_6
REMARK    2  A    between atoms: C_6  and  C_7
REMARK    3  A    between atoms: C_7  and  C_8
REMARK    4  A    between atoms: N_18  and  C1*_19
REMARK    5  A    between atoms: C4*_21  and  C5*_22
REMARK    6  A    between atoms: C5*_22  and  O5*_23
REMARK    7  A    between atoms: C3*_24  and  O3*_25
REMARK    8  A    between atoms: C2*_26  and  O2*_27
REMARK                            x       y       z     vdW  Elec       q    Type
REMARK                         _______ _______ _______ _____ _____    ______ ____
ROOT
ATOM      1  N   UNL     1       8.764   5.164  20.266  0.00  0.00    +0.000 N 
ATOM      2  C   UNL     1       7.844   5.665  19.364  0.00  0.00    +0.000 A 
ATOM      3  N   UNL     1       8.017   6.940  18.982  0.00  0.00    +0.000 NA
ATOM      4  C   UNL     1       7.141   7.519  18.116  0.00  0.00    +0.000 A 
ATOM      5  N   UNL     1       7.313   8.861  17.733  0.00  0.00    +0.000 N 
ATOM      6  C   UNL     1       6.088   6.717  17.632  0.00  0.00    +0.000 A 
ATOM      7  N   UNL     1       5.076   6.942  16.718  0.00  0.00    +0.000 NA
ATOM      8  C   UNL     1       4.428   5.797  16.643  0.00  0.00    +0.000 A 
ATOM      9  N   UNL     1       4.961   4.849  17.477  0.00  0.00    +0.000 N 
ATOM     10  C   UNL     1       6.026   5.419  18.114  0.00  0.00    +0.000 A 
ATOM     11  N   UNL     1       6.854   4.844  18.994  0.00  0.00    +0.000 NA
ATOM     12  H   UNL     1       9.204   5.945  20.736  0.00  0.00    +0.000 HD
ATOM     13  H   UNL     1       8.321   4.475  20.855  0.00  0.00    +0.000 HD
ATOM     14  H   UNL     1       6.695   9.078  16.953  0.00  0.00    +0.000 HD
ENDROOT
BRANCH   9  15
ATOM     15  C1* UNL     1       4.498   3.481  17.605  0.00  0.00    +0.000 C 
ATOM     16  O4* UNL     1       3.260   3.321  16.875  0.00  0.00    +0.000 OA
ATOM     17  C4* UNL     1       2.377   2.465  17.648  0.00  0.00    +0.000 C 
ATOM     18  C3* UNL     1       3.203   1.918  18.809  0.00  0.00    +0.000 C 
ATOM     19  C2* UNL     1       4.251   2.997  19.035  0.00  0.00    +0.000 C 
BRANCH  18  20
ATOM     20  O3* UNL     1       3.896   0.705  18.454  0.00  0.00    +0.000 OA
ATOM     21  H3* UNL     1       4.653   0.924  17.878  0.00  0.00    +0.000 HD
ENDBRANCH  18  20
BRANCH  19  22
ATOM     22  O2* UNL     1       5.429   2.465  19.642  0.00  0.00    +0.000 OA
ATOM     23  H2* UNL     1       5.449   2.821  20.556  0.00  0.00    +0.000 HD
ENDBRANCH  19  22
BRANCH  17  24
ATOM     24  C5* UNL     1       1.163   3.275  18.109  0.00  0.00    +0.000 C 
BRANCH  24  25
ATOM     25  O5* UNL     1       0.681   2.766  19.351  0.00  0.00    +0.000 OA
ATOM     26  H5* UNL     1       0.522   3.543  19.920  0.00  0.00    +0.000 HD
ENDBRANCH  24  25
ENDBRANCH  17  24
ENDBRANCH   9  15
BRANCH   5  27
ATOM     27  C   UNL     1       8.713   9.255  17.575  0.00  0.00    +0.000 C 
BRANCH  27  28
ATOM     28  C   UNL     1       9.156  10.152  18.741  0.00  0.00    +0.000 C 
BRANCH  28  29
ATOM     29  C   UNL     1       9.988  11.336  18.287  0.00  0.00    +0.000 A 
ATOM     30  C   UNL     1      11.363  11.354  18.581  0.00  0.00    +0.000 A 
ATOM     31  C   UNL     1      12.171  12.422  18.183  0.00  0.00    +0.000 A 
ATOM     32  C   UNL     1      11.619  13.494  17.487  0.00  0.00    +0.000 A 
ATOM     33  C   UNL     1      10.255  13.499  17.196  0.00  0.00    +0.000 A 
ATOM     34  C   UNL     1       9.443  12.433  17.597  0.00  0.00    +0.000 A 
ATOM     35 CL   UNL     1       7.762  12.526  17.210  0.00  0.00    +0.000 Cl
ENDBRANCH  28  29
ENDBRANCH  27  28
ENDBRANCH   5  27
TORSDOF 8
ENDMDL
MODEL 4
REMARK VINA RESULT:      -8.3      1.490      1.626
REMARK  Name = 
REMARK  8 active torsions:
REMARK  status: ('A' for Active; 'I' for Inactive)
REMARK    1  A    between atoms: N_5  and  C_6
REMARK    2  A    between atoms: C_6  and  C_7
REMARK    3  A    between atoms: C_7  and  C_8
REMARK    4  A    between atoms: N_18  and  C1*_19
REMARK    5  A    between atoms: C4*_21  and  C5*_22
REMARK    6  A    between atoms: C5*_22  and  O5*_23
REMARK    7  A    between atoms: C3*_24  and  O3*_25
REMARK    8  A    between atoms: C2*_26  and  O2*_27
REMARK                            x       y       z     vdW  Elec       q    Type
REMARK                         _______ _______ _______ _____ _____    ______ ____
ROOT
ATOM      1  N   UNL     1       6.987   5.430  14.392  0.00  0.00    +0.000 N 
ATOM      2  C   UNL     1       6.711   5.613  15.734  0.00  0.00    +0.000 A 
ATOM      3  N   UNL     1       7.518   6.453  16.400  0.00  0.00    +0.000 NA
ATOM      4  C   UNL     1       7.331   6.670  17.730  0.00  0.00    +0.000 A 
ATOM      5  N   UNL     1       8.190   7.535  18.430  0.00  0.00    +0.000 N 
ATOM      6  C   UNL     1       6.252   6.005  18.347  0.00  0.00    +0.000 A 
ATOM      7  N   UNL     1       5.736   6.034  19.628  0.00  0.00    +0.000 NA
ATOM      8  C   UNL     1       4.689   5.234  19.589  0.00  0.00    +0.000 A 
ATOM      9  N   UNL     1       4.514   4.676  18.349  0.00  0.00    +0.000 N 
ATOM     10  C   UNL     1       5.502   5.162  17.541  0.00  0.00    +0.000 A 
ATOM     11  N   UNL     1       5.693   4.906  16.242  0.00  0.00    +0.000 NA
ATOM     12  H   UNL     1       7.949   5.697  14.228  0.00  0.00    +0.000 HD
ATOM     13  H   UNL     1       6.726   4.495  14.116  0.00  0.00    +0.000 HD
ATOM     14  H   UNL     1       7.807   7.729  19.353  0.00  0.00    +0.000 HD
ENDROOT
BRANCH   9  15
ATOM     15  C1* UNL     1       3.439   3.780  17.971  0.00  0.00    +0.000 C 
ATOM     16  O4* UNL     1       2.170   4.448  18.151  0.00  0.00    +0.000 OA
ATOM     17  C4* UNL     1       1.218   3.490  18.687  0.00  0.00    +0.000 C 
ATOM     18  C3* UNL     1       1.895   2.124  18.637  0.00  0.00    +0.000 C 
ATOM     19  C2* UNL     1       3.376   2.461  18.742  0.00  0.00    +0.000 C 
BRANCH  18  20
ATOM     20  O3* UNL     1       1.688   1.464  17.371  0.00  0.00    +0.000 OA
ATOM     21  H3* UNL     1       0.809   1.705  17.024  0.00  0.00    +0.000 HD
ENDBRANCH  18  20
BRANCH  19  22
ATOM     22  O2* UNL     1       4.188   1.445  18.153  0.00  0.00    +0.000 OA
ATOM     23  H2* UNL     1       4.988   1.375  18.717  0.00  0.00    +0.000 HD
ENDBRANCH  19  22
BRANCH  17  24
ATOM     24  C5* UNL     1       0.823   3.909  20.105  0.00  0.00    +0.000 C 
BRANCH  24  25
ATOM     25  O5* UNL     1       0.794   2.768  20.959  0.00  0.00    +0.000 OA
ATOM     26  H5* UNL     1       1.485   2.915  21.634  0.00  0.00    +0.000 HD
ENDBRANCH  24  25
ENDBRANCH  17  24
ENDBRANCH   9  15
BRANCH   5  27
ATOM     27  C   UNL     1       8.618   8.699  17.653  0.00  0.00    +0.000 C 
BRANCH  27  28
ATOM     28  C   UNL     1       8.322   9.998  18.418  0.00  0.00    +0.000 C 
BRANCH  28  29
ATOM     29  C   UNL     1       9.577  10.781  18.751  0.00  0.00    +0.000 A 
ATOM     30  C   UNL     1      10.465  11.117  17.712  0.00  0.00    +0.000 A 
ATOM     31  C   UNL     1      11.634  11.837  17.969  0.00  0.00    +0.000 A 
ATOM     32  C   UNL     1      11.940  12.232  19.268  0.00  0.00    +0.000 A 
ATOM     33  C   UNL     1      11.079  11.899  20.312  0.00  0.00    +0.000 A 
ATOM     34  C   UNL     1       9.909  11.174  20.059  0.00  0.00    +0.000 A 
ATOM     35 CL   UNL     1       8.905  10.789  21.411  0.00  0.00    +0.000 Cl
ENDBRANCH  28  29
ENDBRANCH  27  28
ENDBRANCH   5  27
TORSDOF 8
ENDMDL
MODEL 5
REMARK VINA RESULT:      -8.1      1.733      2.626
REMARK  Name = 
REMARK  8 active torsions:
REMARK  status: ('A' for Active; 'I' for Inactive)
REMARK    1  A    between atoms: N_5  and  C_6
REMARK    2  A    between atoms: C_6  and  C_7
REMARK    3  A    between atoms: C_7  and  C_8
REMARK    4  A    between atoms: N_18  and  C1*_19
REMARK    5  A    between atoms: C4*_21  and  C5*_22
REMARK    6  A    between atoms: C5*_22  and  O5*_23
REMARK    7  A    between atoms: C3*_24  and  O3*_25
REMARK    8  A    between atoms: C2*_26  and  O2*_27
REMARK                            x       y       z     vdW  Elec       q    Type
REMARK                         _______ _______ _______ _____ _____    ______ ____
ROOT
ATOM      1  N   UNL     1       8.739   5.145  20.331  0.00  0.00    +0.000 N 
ATOM      2  C   UNL     1       7.827   5.633  19.414  0.00  0.00    +0.000 A 
ATOM      3  N   UNL     1       7.998   6.906  19.023  0.00  0.00    +0.000 NA
ATOM      4  C   UNL     1       7.129   7.472  18.141  0.00  0.00    +0.000 A 
ATOM      5  N   UNL     1       7.298   8.811  17.748  0.00  0.00    +0.000 N 
ATOM      6  C   UNL     1       6.086   6.660  17.651  0.00  0.00    +0.000 A 
ATOM      7  N   UNL     1       5.085   6.871  16.723  0.00  0.00    +0.000 NA
ATOM      8  C   UNL     1       4.444   5.721  16.650  0.00  0.00    +0.000 A 
ATOM      9  N   UNL     1       4.972   4.784  17.499  0.00  0.00    +0.000 N 
ATOM     10  C   UNL     1       6.026   5.366  18.144  0.00  0.00    +0.000 A 
ATOM     11  N   UNL     1       6.846   4.803  19.039  0.00  0.00    +0.000 NA
ATOM     12  H   UNL     1       9.168   5.933  20.800  0.00  0.00    +0.000 HD
ATOM     13  H   UNL     1       8.292   4.459  20.922  0.00  0.00    +0.000 HD
ATOM     14  H   UNL     1       6.689   9.018  16.959  0.00  0.00    +0.000 HD
ENDROOT
BRANCH   9  15
ATOM     15  C1* UNL     1       4.515   3.414  17.633  0.00  0.00    +0.000 C 
ATOM     16  O4* UNL     1       3.289   3.240  16.887  0.00  0.00    +0.000 OA
ATOM     17  C4* UNL     1       2.400   2.387  17.656  0.00  0.00    +0.000 C 
ATOM     18  C3* UNL     1       3.211   1.855  18.834  0.00  0.00    +0.000 C 
ATOM     19  C2* UNL     1       4.250   2.943  19.065  0.00  0.00    +0.000 C 
BRANCH  18  20
ATOM     20  O3* UNL     1       3.917   0.643  18.500  0.00  0.00    +0.000 OA
ATOM     21  H3* UNL     1       3.563  -0.092  19.034  0.00  0.00    +0.000 HD
ENDBRANCH  18  20
BRANCH  19  22
ATOM     22  O2* UNL     1       5.422   2.424  19.694  0.00  0.00    +0.000 OA
ATOM     23  H2* UNL     1       5.196   1.513  19.980  0.00  0.00    +0.000 HD
ENDBRANCH  19  22
BRANCH  17  24
ATOM     24  C5* UNL     1       1.174   3.194  18.090  0.00  0.00    +0.000 C 
BRANCH  24  25
ATOM     25  O5* UNL     1       1.070   4.380  17.305  0.00  0.00    +0.000 OA
ATOM     26  H5* UNL     1       0.331   4.894  17.684  0.00  0.00    +0.000 HD
ENDBRANCH  24  25
ENDBRANCH  17  24
ENDBRANCH   9  15
BRANCH   5  27
ATOM     27  C   UNL     1       8.698   9.212  17.604  0.00  0.00    +0.000 C 
BRANCH  27  28
ATOM     28  C   UNL     1       9.243   9.760  18.932  0.00  0.00    +0.000 C 
BRANCH  28  29
ATOM     29  C   UNL     1       9.841  11.146  18.792  0.00  0.00    +0.000 A 
ATOM     30  C   UNL     1      10.503  11.484  17.598  0.00  0.00    +0.000 A 
ATOM     31  C   UNL     1      11.070  12.749  17.422  0.00  0.00    +0.000 A 
ATOM     32  C   UNL     1      10.989  13.699  18.436  0.00  0.00    +0.000 A 
ATOM     33  C   UNL     1      10.346  13.378  19.631  0.00  0.00    +0.000 A 
ATOM     34  C   UNL     1       9.781  12.111  19.813  0.00  0.00    +0.000 A 
ATOM     35 CL   UNL     1       9.017  11.792  21.329  0.00  0.00    +0.000 Cl
ENDBRANCH  28  29
ENDBRANCH  27  28
ENDBRANCH   5  27
TORSDOF 8
ENDMDL
MODEL 6
REMARK VINA RESULT:      -7.9      1.822      2.801
REMARK  Name = 
REMARK  8 active torsions:
REMARK  status: ('A' for Active; 'I' for Inactive)
REMARK    1  A    between atoms: N_5  and  C_6
REMARK    2  A    between atoms: C_6  and  C_7
REMARK    3  A    between atoms: C_7  and  C_8
REMARK    4  A    between atoms: N_18  and  C1*_19
REMARK    5  A    between atoms: C4*_21  and  C5*_22
REMARK    6  A    between atoms: C5*_22  and  O5*_23
REMARK    7  A    between atoms: C3*_24  and  O3*_25
REMARK    8  A    between atoms: C2*_26  and  O2*_27
REMARK                            x       y       z     vdW  Elec       q    Type
REMARK                         _______ _______ _______ _____ _____    ______ ____
ROOT
ATOM      1  N   UNL     1       8.761   5.143  20.295  0.00  0.00    +0.000 N 
ATOM      2  C   UNL     1       7.853   5.635  19.377  0.00  0.00    +0.000 A 
ATOM      3  N   UNL     1       8.036   6.903  18.978  0.00  0.00    +0.000 NA
ATOM      4  C   UNL     1       7.171   7.472  18.094  0.00  0.00    +0.000 A 
ATOM      5  N   UNL     1       7.353   8.807  17.692  0.00  0.00    +0.000 N 
ATOM      6  C   UNL     1       6.119   6.668  17.611  0.00  0.00    +0.000 A 
ATOM      7  N   UNL     1       5.119   6.883  16.683  0.00  0.00    +0.000 NA
ATOM      8  C   UNL     1       4.466   5.740  16.618  0.00  0.00    +0.000 A 
ATOM      9  N   UNL     1       4.986   4.802  17.472  0.00  0.00    +0.000 N 
ATOM     10  C   UNL     1       6.047   5.377  18.111  0.00  0.00    +0.000 A 
ATOM     11  N   UNL     1       6.863   4.812  19.008  0.00  0.00    +0.000 NA
ATOM     12  H   UNL     1       9.200   5.929  20.758  0.00  0.00    +0.000 HD
ATOM     13  H   UNL     1       8.309   4.465  20.890  0.00  0.00    +0.000 HD
ATOM     14  H   UNL     1       6.744   9.015  16.903  0.00  0.00    +0.000 HD
ENDROOT
BRANCH   9  15
ATOM     15  C1* UNL     1       4.516   3.438  17.615  0.00  0.00    +0.000 C 
ATOM     16  O4* UNL     1       3.276   3.277  16.890  0.00  0.00    +0.000 OA
ATOM     17  C4* UNL     1       2.390   2.434  17.674  0.00  0.00    +0.000 C 
ATOM     18  C3* UNL     1       3.215   1.895  18.839  0.00  0.00    +0.000 C 
ATOM     19  C2* UNL     1       4.270   2.971  19.051  0.00  0.00    +0.000 C 
BRANCH  18  20
ATOM     20  O3* UNL     1       3.901   0.674  18.495  0.00  0.00    +0.000 OA
ATOM     21  H3* UNL     1       3.346  -0.088  18.743  0.00  0.00    +0.000 HD
ENDBRANCH  18  20
BRANCH  19  22
ATOM     22  O2* UNL     1       5.446   2.439  19.661  0.00  0.00    +0.000 OA
ATOM     23  H2* UNL     1       5.773   1.737  19.058  0.00  0.00    +0.000 HD
ENDBRANCH  19  22
BRANCH  17  24
ATOM     24  C5* UNL     1       1.181   3.256  18.129  0.00  0.00    +0.000 C 
BRANCH  24  25
ATOM     25  O5* UNL     1       0.138   2.387  18.565  0.00  0.00    +0.000 OA
ATOM     26  H5* UNL     1       0.572   1.553  18.830  0.00  0.00    +0.000 HD
ENDBRANCH  24  25
ENDBRANCH  17  24
ENDBRANCH   9  15
BRANCH   5  27
ATOM     27  C   UNL     1       8.756   9.194  17.544  0.00  0.00    +0.000 C 
BRANCH  27  28
ATOM     28  C   UNL     1       9.231   9.989  18.769  0.00  0.00    +0.000 C 
BRANCH  28  29
ATOM     29  C   UNL     1       9.405  11.466  18.478  0.00  0.00    +0.000 A 
ATOM     30  C   UNL     1       8.404  12.140  17.755  0.00  0.00    +0.000 A 
ATOM     31  C   UNL     1       8.519  13.501  17.461  0.00  0.00    +0.000 A 
ATOM     32  C   UNL     1       9.638  14.214  17.883  0.00  0.00    +0.000 A 
ATOM     33  C   UNL     1      10.646  13.562  18.591  0.00  0.00    +0.000 A 
ATOM     34  C   UNL     1      10.535  12.197  18.883  0.00  0.00    +0.000 A 
ATOM     35 CL   UNL     1      11.836  11.463  19.751  0.00  0.00    +0.000 Cl
ENDBRANCH  28  29
ENDBRANCH  27  28
ENDBRANCH   5  27
TORSDOF 8
ENDMDL
MODEL 7
REMARK VINA RESULT:      -7.6      1.281      1.538
REMARK  Name = 
REMARK  8 active torsions:
REMARK  status: ('A' for Active; 'I' for Inactive)
REMARK    1  A    between atoms: N_5  and  C_6
REMARK    2  A    between atoms: C_6  and  C_7
REMARK    3  A    between atoms: C_7  and  C_8
REMARK    4  A    between atoms: N_18  and  C1*_19
REMARK    5  A    between atoms: C4*_21  and  C5*_22
REMARK    6  A    between atoms: C5*_22  and  O5*_23
REMARK    7  A    between atoms: C3*_24  and  O3*_25
REMARK    8  A    between atoms: C2*_26  and  O2*_27
REMARK                            x       y       z     vdW  Elec       q    Type
REMARK                         _______ _______ _______ _____ _____    ______ ____
ROOT
ATOM      1  N   UNL     1       4.989   7.192  14.813  0.00  0.00    +0.000 N 
ATOM      2  C   UNL     1       5.427   6.749  16.047  0.00  0.00    +0.000 A 
ATOM      3  N   UNL     1       6.488   7.386  16.567  0.00  0.00    +0.000 NA
ATOM      4  C   UNL     1       6.998   6.996  17.767  0.00  0.00    +0.000 A 
ATOM      5  N   UNL     1       8.122   7.651  18.300  0.00  0.00    +0.000 N 
ATOM      6  C   UNL     1       6.349   5.936  18.431  0.00  0.00    +0.000 A 
ATOM      7  N   UNL     1       6.543   5.333  19.658  0.00  0.00    +0.000 NA
ATOM      8  C   UNL     1       5.589   4.428  19.745  0.00  0.00    +0.000 A 
ATOM      9  N   UNL     1       4.798   4.405  18.626  0.00  0.00    +0.000 N 
ATOM     10  C   UNL     1       5.267   5.366  17.777  0.00  0.00    +0.000 A 
ATOM     11  N   UNL     1       4.774   5.709  16.581  0.00  0.00    +0.000 NA
ATOM     12  H   UNL     1       5.750   7.689  14.368  0.00  0.00    +0.000 HD
ATOM     13  H   UNL     1       4.592   6.421  14.298  0.00  0.00    +0.000 HD
ATOM     14  H   UNL     1       8.258   7.368  19.269  0.00  0.00    +0.000 HD
ENDROOT
BRANCH   9  15
ATOM     15  C1* UNL     1       3.646   3.548  18.423  0.00  0.00    +0.000 C 
ATOM     16  O4* UNL     1       2.437   4.304  18.656  0.00  0.00    +0.000 OA
ATOM     17  C4* UNL     1       1.489   3.453  19.355  0.00  0.00    +0.000 C 
ATOM     18  C3* UNL     1       2.085   2.049  19.365  0.00  0.00    +0.000 C 
ATOM     19  C2* UNL     1       3.585   2.303  19.310  0.00  0.00    +0.000 C 
BRANCH  18  20
ATOM     20  O3* UNL     1       1.727   1.302  18.185  0.00  0.00    +0.000 OA
ATOM     21  H3* UNL     1       2.206   0.452  18.185  0.00  0.00    +0.000 HD
ENDBRANCH  18  20
BRANCH  19  22
ATOM     22  O2* UNL     1       4.284   1.194  18.743  0.00  0.00    +0.000 OA
ATOM     23  H2* UNL     1       4.684   0.710  19.497  0.00  0.00    +0.000 HD
ENDBRANCH  19  22
BRANCH  17  24
ATOM     24  C5* UNL     1       1.250   4.011  20.760  0.00  0.00    +0.000 C 
BRANCH  24  25
ATOM     25  O5* UNL     1       1.000   2.943  21.671  0.00  0.00    +0.000 OA
ATOM     26  H5* UNL     1       1.782   2.894  22.255  0.00  0.00    +0.000 HD
ENDBRANCH  24  25
ENDBRANCH  17  24
ENDBRANCH   9  15
BRANCH   5  27
ATOM     27  C   UNL     1       8.146   9.091  18.039  0.00  0.00    +0.000 C 
BRANCH  27  28
ATOM     28  C   UNL     1       9.455   9.711  18.550  0.00  0.00    +0.000 C 
BRANCH  28  29
ATOM     29  C   UNL     1       9.224  10.901  19.460  0.00  0.00    +0.000 A 
ATOM     30  C   UNL     1       9.125  10.689  20.847  0.00  0.00    +0.000 A 
ATOM     31  C   UNL     1       8.912  11.754  21.726  0.00  0.00    +0.000 A 
ATOM     32  C   UNL     1       8.791  13.051  21.235  0.00  0.00    +0.000 A 
ATOM     33  C   UNL     1       8.874  13.280  19.863  0.00  0.00    +0.000 A 
ATOM     34  C   UNL     1       9.083  12.215  18.979  0.00  0.00    +0.000 A 
ATOM     35 CL   UNL     1       9.159  12.585  17.294  0.00  0.00    +0.000 Cl
ENDBRANCH  28  29
ENDBRANCH  27  28
ENDBRANCH   5  27
TORSDOF 8
ENDMDL
MODEL 8
REMARK VINA RESULT:      -7.6      5.630      6.683
REMARK  Name = 
REMARK  8 active torsions:
REMARK  status: ('A' for Active; 'I' for Inactive)
REMARK    1  A    between atoms: N_5  and  C_6
REMARK    2  A    between atoms: C_6  and  C_7
REMARK    3  A    between atoms: C_7  and  C_8
REMARK    4  A    between atoms: N_18  and  C1*_19
REMARK    5  A    between atoms: C4*_21  and  C5*_22
REMARK    6  A    between atoms: C5*_22  and  O5*_23
REMARK    7  A    between atoms: C3*_24  and  O3*_25
REMARK    8  A    between atoms: C2*_26  and  O2*_27
REMARK                            x       y       z     vdW  Elec       q    Type
REMARK                         _______ _______ _______ _____ _____    ______ ____
ROOT
ATOM      1  N   UNL     1       0.184   8.899  22.402  0.00  0.00    +0.000 N 
ATOM      2  C   UNL     1       0.752   8.861  21.143  0.00  0.00    +0.000 A 
ATOM      3  N   UNL     1       0.538   9.930  20.360  0.00  0.00    +0.000 NA
ATOM      4  C   UNL     1       1.042   9.963  19.096  0.00  0.00    +0.000 A 
ATOM      5  N   UNL     1       0.800  11.075  18.271  0.00  0.00    +0.000 N 
ATOM      6  C   UNL     1       1.806   8.855  18.677  0.00  0.00    +0.000 A 
ATOM      7  N   UNL     1       2.505   8.577  17.518  0.00  0.00    +0.000 NA
ATOM      8  C   UNL     1       3.062   7.402  17.733  0.00  0.00    +0.000 A 
ATOM      9  N   UNL     1       2.742   6.899  18.967  0.00  0.00    +0.000 N 
ATOM     10  C   UNL     1       1.943   7.818  19.586  0.00  0.00    +0.000 A 
ATOM     11  N   UNL     1       1.424   7.750  20.818  0.00  0.00    +0.000 NA
ATOM     12  H   UNL     1      -0.572   9.572  22.388  0.00  0.00    +0.000 HD
ATOM     13  H   UNL     1      -0.052   7.963  22.696  0.00  0.00    +0.000 HD
ATOM     14  H   UNL     1       1.390  11.024  17.443  0.00  0.00    +0.000 HD
ENDROOT
BRANCH   9  15
ATOM     15  C1* UNL     1       3.218   5.645  19.518  0.00  0.00    +0.000 C 
ATOM     16  O4* UNL     1       4.664   5.637  19.515  0.00  0.00    +0.000 OA
ATOM     17  C4* UNL     1       5.116   4.307  19.144  0.00  0.00    +0.000 C 
ATOM     18  C3* UNL     1       3.878   3.414  19.118  0.00  0.00    +0.000 C 
ATOM     19  C2* UNL     1       2.752   4.384  18.788  0.00  0.00    +0.000 C 
BRANCH  18  20
ATOM     20  O3* UNL     1       3.597   2.844  20.412  0.00  0.00    +0.000 OA
ATOM     21  H3* UNL     1       4.431   2.549  20.822  0.00  0.00    +0.000 HD
ENDBRANCH  18  20
BRANCH  19  22
ATOM     22  O2* UNL     1       1.494   3.909  19.269  0.00  0.00    +0.000 OA
ATOM     23  H2* UNL     1       0.872   3.971  18.512  0.00  0.00    +0.000 HD
ENDBRANCH  19  22
BRANCH  17  24
ATOM     24  C5* UNL     1       5.831   4.375  17.793  0.00  0.00    +0.000 C 
BRANCH  24  25
ATOM     25  O5* UNL     1       7.233   4.182  17.975  0.00  0.00    +0.000 OA
ATOM     26  H5* UNL     1       7.638   5.070  17.928  0.00  0.00    +0.000 HD
ENDBRANCH  24  25
ENDBRANCH  17  24
ENDBRANCH   9  15
BRANCH   5  27
ATOM     27  C   UNL     1       0.799  12.352  18.985  0.00  0.00    +0.000 C 
BRANCH  27  28
ATOM     28  C   UNL     1       2.159  13.052  18.843  0.00  0.00    +0.000 C 
BRANCH  28  29
ATOM     29  C   UNL     1       2.029  14.542  18.600  0.00  0.00    +0.000 A 
ATOM     30  C   UNL     1       0.781  15.158  18.806  0.00  0.00    +0.000 A 
ATOM     31  C   UNL     1       0.611  16.529  18.595  0.00  0.00    +0.000 A 
ATOM     32  C   UNL     1       1.684  17.309  18.171  0.00  0.00    +0.000 A 
ATOM     33  C   UNL     1       2.925  16.714  17.951  0.00  0.00    +0.000 A 
ATOM     34  C   UNL     1       3.097  15.341  18.157  0.00  0.00    +0.000 A 
ATOM     35 CL   UNL     1       4.664  14.682  17.847  0.00  0.00    +0.000 Cl
ENDBRANCH  28  29
ENDBRANCH  27  28
ENDBRANCH   5  27
TORSDOF 8
ENDMDL
MODEL 9
REMARK VINA RESULT:      -7.4      6.190      7.913
REMARK  Name = 
REMARK  8 active torsions:
REMARK  status: ('A' for Active; 'I' for Inactive)
REMARK    1  A    between atoms: N_5  and  C_6
REMARK    2  A    between atoms: C_6  and  C_7
REMARK    3  A    between atoms: C_7  and  C_8
REMARK    4  A    between atoms: N_18  and  C1*_19
REMARK    5  A    between atoms: C4*_21  and  C5*_22
REMARK    6  A    between atoms: C5*_22  and  O5*_23
REMARK    7  A    between atoms: C3*_24  and  O3*_25
REMARK    8  A    between atoms: C2*_26  and  O2*_27
REMARK                            x       y       z     vdW  Elec       q    Type
REMARK                         _______ _______ _______ _____ _____    ______ ____
ROOT
ATOM      1  N   UNL     1       0.307   9.303  22.586  0.00  0.00    +0.000 N 
ATOM      2  C   UNL     1       0.843   9.051  21.337  0.00  0.00    +0.000 A 
ATOM      3  N   UNL     1       0.794  10.059  20.453  0.00  0.00    +0.000 NA
ATOM      4  C   UNL     1       1.279   9.886  19.193  0.00  0.00    +0.000 A 
ATOM      5  N   UNL     1       1.208  10.937  18.262  0.00  0.00    +0.000 N 
ATOM      6  C   UNL     1       1.847   8.633  18.886  0.00  0.00    +0.000 A 
ATOM      7  N   UNL     1       2.476   8.134  17.761  0.00  0.00    +0.000 NA
ATOM      8  C   UNL     1       2.838   6.911  18.092  0.00  0.00    +0.000 A 
ATOM      9  N   UNL     1       2.458   6.589  19.369  0.00  0.00    +0.000 N 
ATOM     10  C   UNL     1       1.827   7.681  19.893  0.00  0.00    +0.000 A 
ATOM     11  N   UNL     1       1.322   7.818  21.124  0.00  0.00    +0.000 NA
ATOM     12  H   UNL     1      -0.331  10.085  22.504  0.00  0.00    +0.000 HD
ATOM     13  H   UNL     1      -0.074   8.450  22.970  0.00  0.00    +0.000 HD
ATOM     14  H   UNL     1       1.771  10.711  17.444  0.00  0.00    +0.000 HD
ENDROOT
BRANCH   9  15
ATOM     15  C1* UNL     1       2.733   5.334  20.041  0.00  0.00    +0.000 C 
ATOM     16  O4* UNL     1       4.075   4.901  19.722  0.00  0.00    +0.000 OA
ATOM     17  C4* UNL     1       4.061   3.460  19.535  0.00  0.00    +0.000 C 
ATOM     18  C3* UNL     1       2.678   2.976  19.961  0.00  0.00    +0.000 C 
ATOM     19  C2* UNL     1       1.787   4.181  19.700  0.00  0.00    +0.000 C 
BRANCH  18  20
ATOM     20  O3* UNL     1       2.619   2.688  21.373  0.00  0.00    +0.000 OA
ATOM     21  H3* UNL     1       3.151   3.347  21.858  0.00  0.00    +0.000 HD
ENDBRANCH  18  20
BRANCH  19  22
ATOM     22  O2* UNL     1       0.626   4.164  20.530  0.00  0.00    +0.000 OA
ATOM     23  H2* UNL     1       0.527   3.238  20.842  0.00  0.00    +0.000 HD
ENDBRANCH  19  22
BRANCH  17  24
ATOM     24  C5* UNL     1       4.383   3.138  18.074  0.00  0.00    +0.000 C 
BRANCH  24  25
ATOM     25  O5* UNL     1       4.010   1.793  17.779  0.00  0.00    +0.000 OA
ATOM     26  H5* UNL     1       4.082   1.300  18.620  0.00  0.00    +0.000 HD
ENDBRANCH  24  25
ENDBRANCH  17  24
ENDBRANCH   9  15
BRANCH   5  27
ATOM     27  C   UNL     1       1.424  12.261  18.847  0.00  0.00    +0.000 C 
BRANCH  27  28
ATOM     28  C   UNL     1       0.299  13.223  18.438  0.00  0.00    +0.000 C 
BRANCH  28  29
ATOM     29  C   UNL     1      -0.947  13.062  19.287  0.00  0.00    +0.000 A 
ATOM     30  C   UNL     1      -0.985  13.660  20.559  0.00  0.00    +0.000 A 
ATOM     31  C   UNL     1      -2.110  13.540  21.379  0.00  0.00    +0.000 A 
ATOM     32  C   UNL     1      -3.218  12.818  20.942  0.00  0.00    +0.000 A 
ATOM     33  C   UNL     1      -3.195  12.209  19.689  0.00  0.00    +0.000 A 
ATOM     34  C   UNL     1      -2.067  12.324  18.867  0.00  0.00    +0.000 A 
ATOM     35 CL   UNL     1      -2.116  11.526  17.336  0.00  0.00    +0.000 Cl
ENDBRANCH  28  29
ENDBRANCH  27  28
ENDBRANCH   5  27
TORSDOF 8
ENDMDL
