MODEL 1
REMARK VINA RESULT:      -8.2      0.000      0.000
REMARK  Name = 
REMARK  3 active torsions:
REMARK  status: ('A' for Active; 'I' for Inactive)
REMARK    1  A    between atoms: N_2  and  C_4
REMARK    2  A    between atoms: C_8  and  N_9
REMARK    3  A    between atoms: N_9  and  C_10
REMARK                            x       y       z     vdW  Elec       q    Type
REMARK                         _______ _______ _______ _____ _____    ______ ____
ROOT
ATOM      1  N   UNL     1       4.060   6.564  17.825  0.00  0.00    +0.000 N 
ATOM      2  H   UNL     1       4.257   6.765  18.820  0.00  0.00    +0.000 HD
ENDROOT
BRANCH   1   3
ATOM      3  C   UNL     1       2.566   6.227  17.918  0.00  0.00    +0.000 A 
ATOM      4  C   UNL     1       1.920   7.428  18.205  0.00  0.00    +0.000 A 
ATOM      5  C   UNL     1       1.993   7.767  19.546  0.00  0.00    +0.000 A 
ATOM      6  N   UNL     1       2.314   6.864  20.511  0.00  0.00    +0.000 NA
ATOM      7  C   UNL     1       2.215   5.568  20.155  0.00  0.00    +0.000 A 
ATOM      8  C   UNL     1       1.927   4.595  21.095  0.00  0.00    +0.000 A 
ATOM      9  C   UNL     1       1.291   3.422  20.703  0.00  0.00    +0.000 A 
ATOM     10  F   UNL     1       0.905   2.541  21.635  0.00  0.00    +0.000 F 
ATOM     11  C   UNL     1       0.949   3.202  19.376  0.00  0.00    +0.000 A 
ATOM     12  C   UNL     1       1.409   4.094  18.410  0.00  0.00    +0.000 A 
ATOM     13  C   UNL     1       2.156   5.227  18.796  0.00  0.00    +0.000 A 
ENDBRANCH   1   3
BRANCH   1  18
ATOM     14  C   UNL     1       6.744   4.980  15.791  0.00  0.00    +0.000 A 
ATOM     15  C   UNL     1       7.699   4.638  16.762  0.00  0.00    +0.000 A 
ATOM     16  C   UNL     1       7.389   4.824  18.099  0.00  0.00    +0.000 A 
ATOM     17  C   UNL     1       6.172   5.390  18.501  0.00  0.00    +0.000 A 
ATOM     18  C   UNL     1       5.236   5.790  17.555  0.00  0.00    +0.000 A 
ATOM     19  C   UNL     1       5.516   5.540  16.183  0.00  0.00    +0.000 A 
BRANCH  14  21
ATOM     20  O   UNL     1       6.415   3.915  13.756  0.00  0.00    +0.000 OA
ATOM     21  N   UNL     1       7.044   4.791  14.366  0.00  0.00    +0.000 N 
ATOM     22  O   UNL     1       7.912   5.511  13.853  0.00  0.00    +0.000 OA
ENDBRANCH  14  21
ENDBRANCH   1  18
TORSDOF 3
ENDMDL
MODEL 2
REMARK VINA RESULT:      -8.1      2.523      4.095
REMARK  Name = 
REMARK  3 active torsions:
REMARK  status: ('A' for Active; 'I' for Inactive)
REMARK    1  A    between atoms: N_2  and  C_4
REMARK    2  A    between atoms: C_8  and  N_9
REMARK    3  A    between atoms: N_9  and  C_10
REMARK                            x       y       z     vdW  Elec       q    Type
REMARK                         _______ _______ _______ _____ _____    ______ ____
ROOT
ATOM      1  N   UNL     1       6.320   4.875  16.010  0.00  0.00    +0.000 N 
ATOM      2  H   UNL     1       5.378   4.454  15.931  0.00  0.00    +0.000 HD
ENDROOT
BRANCH   1   3
ATOM      3  C   UNL     1       5.979   6.129  16.823  0.00  0.00    +0.000 A 
ATOM      4  C   UNL     1       7.125   6.437  17.552  0.00  0.00    +0.000 A 
ATOM      5  C   UNL     1       7.262   5.658  18.689  0.00  0.00    +0.000 A 
ATOM      6  N   UNL     1       6.224   4.960  19.224  0.00  0.00    +0.000 NA
ATOM      7  C   UNL     1       4.996   5.332  18.813  0.00  0.00    +0.000 A 
ATOM      8  C   UNL     1       3.895   5.172  19.636  0.00  0.00    +0.000 A 
ATOM      9  C   UNL     1       2.795   6.011  19.489  0.00  0.00    +0.000 A 
ATOM     10  F   UNL     1       1.787   5.932  20.367  0.00  0.00    +0.000 F 
ATOM     11  C   UNL     1       2.776   7.003  18.518  0.00  0.00    +0.000 A 
ATOM     12  C   UNL     1       3.800   7.035  17.575  0.00  0.00    +0.000 A 
ATOM     13  C   UNL     1       4.861   6.108  17.654  0.00  0.00    +0.000 A 
ENDBRANCH   1   3
BRANCH   1  18
ATOM     14  C   UNL     1       6.139   3.594  12.520  0.00  0.00    +0.000 A 
ATOM     15  C   UNL     1       7.119   4.359  11.866  0.00  0.00    +0.000 A 
ATOM     16  C   UNL     1       7.918   5.205  12.616  0.00  0.00    +0.000 A 
ATOM     17  C   UNL     1       7.739   5.356  13.997  0.00  0.00    +0.000 A 
ATOM     18  C   UNL     1       6.737   4.654  14.657  0.00  0.00    +0.000 A 
ATOM     19  C   UNL     1       5.957   3.730  13.907  0.00  0.00    +0.000 A 
BRANCH  14  21
ATOM     20  O   UNL     1       4.156   3.096  11.423  0.00  0.00    +0.000 OA
ATOM     21  N   UNL     1       5.280   2.687  11.750  0.00  0.00    +0.000 N 
ATOM     22  O   UNL     1       5.718   1.562  11.475  0.00  0.00    +0.000 OA
ENDBRANCH  14  21
ENDBRANCH   1  18
TORSDOF 3
ENDMDL
MODEL 3
REMARK VINA RESULT:      -8.1      2.758      3.708
REMARK  Name = 
REMARK  3 active torsions:
REMARK  status: ('A' for Active; 'I' for Inactive)
REMARK    1  A    between atoms: N_2  and  C_4
REMARK    2  A    between atoms: C_8  and  N_9
REMARK    3  A    between atoms: N_9  and  C_10
REMARK                            x       y       z     vdW  Elec       q    Type
REMARK                         _______ _______ _______ _____ _____    ______ ____
ROOT
ATOM      1  N   UNL     1       6.247   4.418  16.099  0.00  0.00    +0.000 N 
ATOM      2  H   UNL     1       6.065   3.409  16.237  0.00  0.00    +0.000 HD
ENDROOT
BRANCH   1   3
ATOM      3  C   UNL     1       5.019   5.004  16.806  0.00  0.00    +0.000 A 
ATOM      4  C   UNL     1       5.506   5.979  17.674  0.00  0.00    +0.000 A 
ATOM      5  C   UNL     1       6.009   5.446  18.849  0.00  0.00    +0.000 A 
ATOM      6  N   UNL     1       5.714   4.184  19.263  0.00  0.00    +0.000 NA
ATOM      7  C   UNL     1       4.649   3.609  18.671  0.00  0.00    +0.000 A 
ATOM      8  C   UNL     1       3.893   2.661  19.338  0.00  0.00    +0.000 A 
ATOM      9  C   UNL     1       2.554   2.487  19.007  0.00  0.00    +0.000 A 
ATOM     10  F   UNL     1       1.799   1.658  19.739  0.00  0.00    +0.000 F 
ATOM     11  C   UNL     1       1.961   3.241  18.004  0.00  0.00    +0.000 A 
ATOM     12  C   UNL     1       2.769   4.053  17.211  0.00  0.00    +0.000 A 
ATOM     13  C   UNL     1       4.152   4.142  17.473  0.00  0.00    +0.000 A 
ENDBRANCH   1   3
BRANCH   1  18
ATOM     14  C   UNL     1       6.091   3.476  12.501  0.00  0.00    +0.000 A 
ATOM     15  C   UNL     1       7.034   4.339  11.921  0.00  0.00    +0.000 A 
ATOM     16  C   UNL     1       7.805   5.140  12.747  0.00  0.00    +0.000 A 
ATOM     17  C   UNL     1       7.630   5.148  14.137  0.00  0.00    +0.000 A 
ATOM     18  C   UNL     1       6.662   4.346  14.729  0.00  0.00    +0.000 A 
ATOM     19  C   UNL     1       5.914   3.469  13.896  0.00  0.00    +0.000 A 
BRANCH  14  21
ATOM     20  O   UNL     1       5.739   1.525  11.296  0.00  0.00    +0.000 OA
ATOM     21  N   UNL     1       5.262   2.613  11.651  0.00  0.00    +0.000 N 
ATOM     22  O   UNL     1       4.138   3.019  11.328  0.00  0.00    +0.000 OA
ENDBRANCH  14  21
ENDBRANCH   1  18
TORSDOF 3
ENDMDL
MODEL 4
REMARK VINA RESULT:      -7.7      1.908      2.281
REMARK  Name = 
REMARK  3 active torsions:
REMARK  status: ('A' for Active; 'I' for Inactive)
REMARK    1  A    between atoms: N_2  and  C_4
REMARK    2  A    between atoms: C_8  and  N_9
REMARK    3  A    between atoms: N_9  and  C_10
REMARK                            x       y       z     vdW  Elec       q    Type
REMARK                         _______ _______ _______ _____ _____    ______ ____
ROOT
ATOM      1  N   UNL     1       4.782   3.855  17.118  0.00  0.00    +0.000 N 
ATOM      2  H   UNL     1       4.583   2.871  16.872  0.00  0.00    +0.000 HD
ENDROOT
BRANCH   1   3
ATOM      3  C   UNL     1       3.358   4.343  17.414  0.00  0.00    +0.000 A 
ATOM      4  C   UNL     1       3.441   5.730  17.512  0.00  0.00    +0.000 A 
ATOM      5  C   UNL     1       3.912   6.153  18.744  0.00  0.00    +0.000 A 
ATOM      6  N   UNL     1       3.922   5.343  19.837  0.00  0.00    +0.000 NA
ATOM      7  C   UNL     1       3.143   4.246  19.760  0.00  0.00    +0.000 A 
ATOM      8  C   UNL     1       2.594   3.685  20.900  0.00  0.00    +0.000 A 
ATOM      9  C   UNL     1       1.410   2.962  20.813  0.00  0.00    +0.000 A 
ATOM     10  F   UNL     1       0.821   2.528  21.935  0.00  0.00    +0.000 F 
ATOM     11  C   UNL     1       0.770   2.781  19.595  0.00  0.00    +0.000 A 
ATOM     12  C   UNL     1       1.421   3.182  18.430  0.00  0.00    +0.000 A 
ATOM     13  C   UNL     1       2.681   3.813  18.510  0.00  0.00    +0.000 A 
ENDBRANCH   1   3
BRANCH   1  18
ATOM     14  C   UNL     1       6.174   3.876  13.666  0.00  0.00    +0.000 A 
ATOM     15  C   UNL     1       7.206   4.822  13.761  0.00  0.00    +0.000 A 
ATOM     16  C   UNL     1       7.513   5.355  15.002  0.00  0.00    +0.000 A 
ATOM     17  C   UNL     1       6.787   5.013  16.150  0.00  0.00    +0.000 A 
ATOM     18  C   UNL     1       5.723   4.122  16.070  0.00  0.00    +0.000 A 
ATOM     19  C   UNL     1       5.445   3.518  14.813  0.00  0.00    +0.000 A 
BRANCH  14  21
ATOM     20  O   UNL     1       4.671   3.452  11.949  0.00  0.00    +0.000 OA
ATOM     21  N   UNL     1       5.829   3.292  12.364  0.00  0.00    +0.000 N 
ATOM     22  O   UNL     1       6.708   2.669  11.753  0.00  0.00    +0.000 OA
ENDBRANCH  14  21
ENDBRANCH   1  18
TORSDOF 3
ENDMDL
MODEL 5
REMARK VINA RESULT:      -7.7      2.569      4.203
REMARK  Name = 
REMARK  3 active torsions:
REMARK  status: ('A' for Active; 'I' for Inactive)
REMARK    1  A    between atoms: N_2  and  C_4
REMARK    2  A    between atoms: C_8  and  N_9
REMARK    3  A    between atoms: N_9  and  C_10
REMARK                            x       y       z     vdW  Elec       q    Type
REMARK                         _______ _______ _______ _____ _____    ______ ____
ROOT
ATOM      1  N   UNL     1       7.069   4.931  15.804  0.00  0.00    +0.000 N 
ATOM      2  H   UNL     1       6.608   4.029  16.012  0.00  0.00    +0.000 HD
ENDROOT
BRANCH   1   3
ATOM      3  C   UNL     1       6.215   5.866  16.668  0.00  0.00    +0.000 A 
ATOM      4  C   UNL     1       7.112   6.599  17.442  0.00  0.00    +0.000 A 
ATOM      5  C   UNL     1       7.569   5.893  18.543  0.00  0.00    +0.000 A 
ATOM      6  N   UNL     1       6.934   4.786  19.015  0.00  0.00    +0.000 NA
ATOM      7  C   UNL     1       5.668   4.612  18.589  0.00  0.00    +0.000 A 
ATOM      8  C   UNL     1       4.742   3.946  19.372  0.00  0.00    +0.000 A 
ATOM      9  C   UNL     1       3.389   4.232  19.236  0.00  0.00    +0.000 A 
ATOM     10  F   UNL     1       2.511   3.676  20.082  0.00  0.00    +0.000 F 
ATOM     11  C   UNL     1       2.944   5.171  18.316  0.00  0.00    +0.000 A 
ATOM     12  C   UNL     1       3.856   5.697  17.403  0.00  0.00    +0.000 A 
ATOM     13  C   UNL     1       5.214   5.317  17.465  0.00  0.00    +0.000 A 
ENDBRANCH   1   3
BRANCH   1  18
ATOM     14  C   UNL     1       6.239   3.688  12.395  0.00  0.00    +0.000 A 
ATOM     15  C   UNL     1       7.038   4.500  11.574  0.00  0.00    +0.000 A 
ATOM     16  C   UNL     1       7.940   5.369  12.166  0.00  0.00    +0.000 A 
ATOM     17  C   UNL     1       8.036   5.494  13.558  0.00  0.00    +0.000 A 
ATOM     18  C   UNL     1       7.214   4.744  14.390  0.00  0.00    +0.000 A 
ATOM     19  C   UNL     1       6.334   3.799  13.793  0.00  0.00    +0.000 A 
BRANCH  14  21
ATOM     20  O   UNL     1       5.675   1.614  11.522  0.00  0.00    +0.000 OA
ATOM     21  N   UNL     1       5.277   2.756  11.795  0.00  0.00    +0.000 N 
ATOM     22  O   UNL     1       4.125   3.160  11.588  0.00  0.00    +0.000 OA
ENDBRANCH  14  21
ENDBRANCH   1  18
TORSDOF 3
ENDMDL
MODEL 6
REMARK VINA RESULT:      -7.6      3.799      6.412
REMARK  Name = 
REMARK  3 active torsions:
REMARK  status: ('A' for Active; 'I' for Inactive)
REMARK    1  A    between atoms: N_2  and  C_4
REMARK    2  A    between atoms: C_8  and  N_9
REMARK    3  A    between atoms: N_9  and  C_10
REMARK                            x       y       z     vdW  Elec       q    Type
REMARK                         _______ _______ _______ _____ _____    ______ ____
ROOT
ATOM      1  N   UNL     1       4.074   4.126  16.329  0.00  0.00    +0.000 N 
ATOM      2  H   UNL     1       4.805   3.439  16.580  0.00  0.00    +0.000 HD
ENDROOT
BRANCH   1   3
ATOM      3  C   UNL     1       4.955   5.256  15.780  0.00  0.00    +0.000 A 
ATOM      4  C   UNL     1       5.613   4.725  14.673  0.00  0.00    +0.000 A 
ATOM      5  C   UNL     1       6.708   3.952  15.021  0.00  0.00    +0.000 A 
ATOM      6  N   UNL     1       7.288   4.020  16.249  0.00  0.00    +0.000 NA
ATOM      7  C   UNL     1       6.978   5.106  16.983  0.00  0.00    +0.000 A 
ATOM      8  C   UNL     1       7.868   5.611  17.914  0.00  0.00    +0.000 A 
ATOM      9  C   UNL     1       7.830   6.961  18.246  0.00  0.00    +0.000 A 
ATOM     10  F   UNL     1       8.773   7.466  19.052  0.00  0.00    +0.000 F 
ATOM     11  C   UNL     1       6.900   7.814  17.668  0.00  0.00    +0.000 A 
ATOM     12  C   UNL     1       5.889   7.268  16.880  0.00  0.00    +0.000 A 
ATOM     13  C   UNL     1       5.860   5.878  16.637  0.00  0.00    +0.000 A 
ENDBRANCH   1   3
BRANCH   1  18
ATOM     14  C   UNL     1       3.216   3.120  19.808  0.00  0.00    +0.000 A 
ATOM     15  C   UNL     1       2.055   3.868  20.062  0.00  0.00    +0.000 A 
ATOM     16  C   UNL     1       1.495   4.605  19.032  0.00  0.00    +0.000 A 
ATOM     17  C   UNL     1       2.086   4.664  17.763  0.00  0.00    +0.000 A 
ATOM     18  C   UNL     1       3.268   3.980  17.505  0.00  0.00    +0.000 A 
ATOM     19  C   UNL     1       3.812   3.165  18.536  0.00  0.00    +0.000 A 
BRANCH  14  21
ATOM     20  O   UNL     1       3.185   2.183  21.930  0.00  0.00    +0.000 OA
ATOM     21  N   UNL     1       3.829   2.327  20.880  0.00  0.00    +0.000 N 
ATOM     22  O   UNL     1       4.955   1.851  20.683  0.00  0.00    +0.000 OA
ENDBRANCH  14  21
ENDBRANCH   1  18
TORSDOF 3
ENDMDL
MODEL 7
REMARK VINA RESULT:      -7.6      2.065      3.080
REMARK  Name = 
REMARK  3 active torsions:
REMARK  status: ('A' for Active; 'I' for Inactive)
REMARK    1  A    between atoms: N_2  and  C_4
REMARK    2  A    between atoms: C_8  and  N_9
REMARK    3  A    between atoms: N_9  and  C_10
REMARK                            x       y       z     vdW  Elec       q    Type
REMARK                         _______ _______ _______ _____ _____    ______ ____
ROOT
ATOM      1  N   UNL     1       5.093   3.495  19.142  0.00  0.00    +0.000 N 
ATOM      2  H   UNL     1       4.963   2.832  18.359  0.00  0.00    +0.000 HD
ENDROOT
BRANCH   1   3
ATOM      3  C   UNL     1       3.636   3.650  19.597  0.00  0.00    +0.000 A 
ATOM      4  C   UNL     1       2.886   2.814  18.772  0.00  0.00    +0.000 A 
ATOM      5  C   UNL     1       2.628   3.377  17.533  0.00  0.00    +0.000 A 
ATOM      6  N   UNL     1       2.755   4.710  17.297  0.00  0.00    +0.000 NA
ATOM      7  C   UNL     1       2.801   5.496  18.390  0.00  0.00    +0.000 A 
ATOM      8  C   UNL     1       2.346   6.802  18.344  0.00  0.00    +0.000 A 
ATOM      9  C   UNL     1       1.875   7.410  19.502  0.00  0.00    +0.000 A 
ATOM     10  F   UNL     1       1.322   8.628  19.426  0.00  0.00    +0.000 F 
ATOM     11  C   UNL     1       1.863   6.733  20.713  0.00  0.00    +0.000 A 
ATOM     12  C   UNL     1       2.495   5.494  20.793  0.00  0.00    +0.000 A 
ATOM     13  C   UNL     1       3.078   4.925  19.640  0.00  0.00    +0.000 A 
ENDBRANCH   1   3
BRANCH   1  18
ATOM     14  C   UNL     1       6.947   5.068  16.324  0.00  0.00    +0.000 A 
ATOM     15  C   UNL     1       7.508   6.205  16.928  0.00  0.00    +0.000 A 
ATOM     16  C   UNL     1       7.369   6.373  18.296  0.00  0.00    +0.000 A 
ATOM     17  C   UNL     1       6.641   5.468  19.079  0.00  0.00    +0.000 A 
ATOM     18  C   UNL     1       6.027   4.367  18.494  0.00  0.00    +0.000 A 
ATOM     19  C   UNL     1       6.223   4.148  17.102  0.00  0.00    +0.000 A 
BRANCH  14  21
ATOM     20  O   UNL     1       6.400   3.966  14.357  0.00  0.00    +0.000 OA
ATOM     21  N   UNL     1       7.081   4.862  14.877  0.00  0.00    +0.000 N 
ATOM     22  O   UNL     1       7.869   5.587  14.256  0.00  0.00    +0.000 OA
ENDBRANCH  14  21
ENDBRANCH   1  18
TORSDOF 3
ENDMDL
MODEL 8
REMARK VINA RESULT:      -7.6      3.972      6.326
REMARK  Name = 
REMARK  3 active torsions:
REMARK  status: ('A' for Active; 'I' for Inactive)
REMARK    1  A    between atoms: N_2  and  C_4
REMARK    2  A    between atoms: C_8  and  N_9
REMARK    3  A    between atoms: N_9  and  C_10
REMARK                            x       y       z     vdW  Elec       q    Type
REMARK                         _______ _______ _______ _____ _____    ______ ____
ROOT
ATOM      1  N   UNL     1       2.670   5.401  18.123  0.00  0.00    +0.000 N 
ATOM      2  H   UNL     1       2.730   4.666  18.848  0.00  0.00    +0.000 HD
ENDROOT
BRANCH   1   3
ATOM      3  C   UNL     1       3.918   5.058  17.299  0.00  0.00    +0.000 A 
ATOM      4  C   UNL     1       3.993   3.667  17.280  0.00  0.00    +0.000 A 
ATOM      5  C   UNL     1       4.536   3.144  18.442  0.00  0.00    +0.000 A 
ATOM      6  N   UNL     1       5.253   3.901  19.316  0.00  0.00    +0.000 NA
ATOM      7  C   UNL     1       5.704   5.077  18.839  0.00  0.00    +0.000 A 
ATOM      8  C   UNL     1       6.864   5.645  19.334  0.00  0.00    +0.000 A 
ATOM      9  C   UNL     1       7.616   6.494  18.529  0.00  0.00    +0.000 A 
ATOM     10  F   UNL     1       8.799   6.941  18.970  0.00  0.00    +0.000 F 
ATOM     11  C   UNL     1       7.215   6.795  17.235  0.00  0.00    +0.000 A 
ATOM     12  C   UNL     1       5.956   6.376  16.810  0.00  0.00    +0.000 A 
ATOM     13  C   UNL     1       5.141   5.610  17.671  0.00  0.00    +0.000 A 
ENDBRANCH   1   3
BRANCH   1  18
ATOM     14  C   UNL     1       1.648   8.852  19.070  0.00  0.00    +0.000 A 
ATOM     15  C   UNL     1       1.257   8.696  20.410  0.00  0.00    +0.000 A 
ATOM     16  C   UNL     1       1.454   7.471  21.025  0.00  0.00    +0.000 A 
ATOM     17  C   UNL     1       1.983   6.374  20.331  0.00  0.00    +0.000 A 
ATOM     18  C   UNL     1       2.322   6.489  18.988  0.00  0.00    +0.000 A 
ATOM     19  C   UNL     1       2.188   7.762  18.367  0.00  0.00    +0.000 A 
BRANCH  14  21
ATOM     20  O   UNL     1       2.272  10.461  17.518  0.00  0.00    +0.000 OA
ATOM     21  N   UNL     1       1.454  10.141  18.394  0.00  0.00    +0.000 N 
ATOM     22  O   UNL     1       0.491  10.840  18.736  0.00  0.00    +0.000 OA
ENDBRANCH  14  21
ENDBRANCH   1  18
TORSDOF 3
ENDMDL
MODEL 9
REMARK VINA RESULT:      -7.5      1.923      2.231
REMARK  Name = 
REMARK  3 active torsions:
REMARK  status: ('A' for Active; 'I' for Inactive)
REMARK    1  A    between atoms: N_2  and  C_4
REMARK    2  A    between atoms: C_8  and  N_9
REMARK    3  A    between atoms: N_9  and  C_10
REMARK                            x       y       z     vdW  Elec       q    Type
REMARK                         _______ _______ _______ _____ _____    ______ ____
ROOT
ATOM      1  N   UNL     1       3.873   7.035  17.481  0.00  0.00    +0.000 N 
ATOM      2  H   UNL     1       4.191   7.043  18.465  0.00  0.00    +0.000 HD
ENDROOT
BRANCH   1   3
ATOM      3  C   UNL     1       2.413   6.610  17.681  0.00  0.00    +0.000 A 
ATOM      4  C   UNL     1       1.727   7.762  18.057  0.00  0.00    +0.000 A 
ATOM      5  C   UNL     1       1.889   8.068  19.398  0.00  0.00    +0.000 A 
ATOM      6  N   UNL     1       2.337   7.158  20.305  0.00  0.00    +0.000 NA
ATOM      7  C   UNL     1       2.282   5.869  19.916  0.00  0.00    +0.000 A 
ATOM      8  C   UNL     1       2.126   4.855  20.844  0.00  0.00    +0.000 A 
ATOM      9  C   UNL     1       1.527   3.658  20.466  0.00  0.00    +0.000 A 
ATOM     10  F   UNL     1       1.267   2.730  21.397  0.00  0.00    +0.000 F 
ATOM     11  C   UNL     1       1.091   3.456  19.164  0.00  0.00    +0.000 A 
ATOM     12  C   UNL     1       1.420   4.400  18.194  0.00  0.00    +0.000 A 
ATOM     13  C   UNL     1       2.132   5.563  18.556  0.00  0.00    +0.000 A 
ENDBRANCH   1   3
BRANCH   1  18
ATOM     14  C   UNL     1       7.097   5.176  17.438  0.00  0.00    +0.000 A 
ATOM     15  C   UNL     1       7.190   4.761  16.100  0.00  0.00    +0.000 A 
ATOM     16  C   UNL     1       6.242   5.207  15.194  0.00  0.00    +0.000 A 
ATOM     17  C   UNL     1       5.170   6.017  15.589  0.00  0.00    +0.000 A 
ATOM     18  C   UNL     1       5.025   6.393  16.919  0.00  0.00    +0.000 A 
ATOM     19  C   UNL     1       6.031   5.997  17.844  0.00  0.00    +0.000 A 
BRANCH  14  21
ATOM     20  O   UNL     1       8.917   3.874  18.052  0.00  0.00    +0.000 OA
ATOM     21  N   UNL     1       8.090   4.721  18.420  0.00  0.00    +0.000 N 
ATOM     22  O   UNL     1       8.043   5.200  19.560  0.00  0.00    +0.000 OA
ENDBRANCH  14  21
ENDBRANCH   1  18
TORSDOF 3
ENDMDL
