MODEL 1
REMARK VINA RESULT:      -7.9      0.000      0.000
REMARK  Name = 
REMARK  14 active torsions:
REMARK  status: ('A' for Active; 'I' for Inactive)
REMARK    1  A    between atoms: C_1  and  C_2
REMARK    2  A    between atoms: C_2  and  C_3
REMARK    3  A    between atoms: C_2  and  C_4
REMARK    4  A    between atoms: C_2  and  N_6
REMARK    5  A    between atoms: C_4  and  O_5
REMARK    6  A    between atoms: N_6  and  S_7
REMARK    7  A    between atoms: S_7  and  C_10
REMARK    8  A    between atoms: C_19  and  S_20
REMARK    9  A    between atoms: S_20  and  N_23
REMARK   10  A    between atoms: N_23  and  C_24
REMARK   11  A    between atoms: C_24  and  C_25
REMARK   12  A    between atoms: C_24  and  C_26
REMARK   13  A    between atoms: C_24  and  C_27
REMARK   14  A    between atoms: C_27  and  O_28
REMARK                            x       y       z     vdW  Elec       q    Type
REMARK                         _______ _______ _______ _____ _____    ______ ____
ROOT
ATOM      1  C   UNL     1       2.741   6.931  18.833  0.00  0.00    +0.000 A 
ATOM      2  C   UNL     1       2.463   7.861  17.811  0.00  0.00    +0.000 A 
ATOM      3  C   UNL     1       1.712   9.002  18.085  0.00  0.00    +0.000 A 
ATOM      4  C   UNL     1       1.239   9.179  19.374  0.00  0.00    +0.000 A 
ATOM      5  C   UNL     1       1.519   8.241  20.393  0.00  0.00    +0.000 A 
ATOM      6  C   UNL     1       2.268   7.106  20.139  0.00  0.00    +0.000 A 
ATOM      7  C   UNL     1       0.849   8.662  21.688  0.00  0.00    +0.000 C 
ATOM      8  C   UNL     1       0.124   9.930  21.273  0.00  0.00    +0.000 A 
ATOM      9  C   UNL     1      -0.683  10.761  22.035  0.00  0.00    +0.000 A 
ATOM     10  C   UNL     1      -1.219  11.894  21.400  0.00  0.00    +0.000 A 
ATOM     11  C   UNL     1      -0.975  12.166  20.038  0.00  0.00    +0.000 A 
ATOM     12  C   UNL     1      -0.154  11.325  19.289  0.00  0.00    +0.000 A 
ATOM     13  C   UNL     1       0.386  10.212  19.911  0.00  0.00    +0.000 A 
ENDROOT
BRANCH   1  14
ATOM     14  S   UNL     1       3.615   5.433  18.436  0.00  0.00    +0.000 S 
ATOM     15  O   UNL     1       4.570   5.193  19.508  0.00  0.00    +0.000 OA
ATOM     16  O   UNL     1       4.046   5.574  17.067  0.00  0.00    +0.000 OA
BRANCH  14  17
ATOM     17  N   UNL     1       2.409   4.253  18.460  0.00  0.00    +0.000 NA
ATOM     18  H   UNL     1       1.488   4.684  18.550  0.00  0.00    +0.000 HD
BRANCH  17  20
ATOM     19  C   UNL     1       1.279   2.131  18.939  0.00  0.00    +0.000 C 
ATOM     20  C   UNL     1       2.539   2.979  19.231  0.00  0.00    +0.000 C 
ATOM     21  C   UNL     1       2.558   3.275  20.731  0.00  0.00    +0.000 C 
BRANCH  20  22
ATOM     22  C   UNL     1       3.774   2.159  18.770  0.00  0.00    +0.000 C 
BRANCH  22  23
ATOM     23  O   UNL     1       4.860   2.284  19.686  0.00  0.00    +0.000 OA
ATOM     24  H   UNL     1       4.592   2.950  20.345  0.00  0.00    +0.000 HD
ENDBRANCH  22  23
ENDBRANCH  20  22
ENDBRANCH  17  20
ENDBRANCH  14  17
ENDBRANCH   1  14
BRANCH  10  25
ATOM     25  S   UNL     1      -2.100  13.117  22.330  0.00  0.00    +0.000 S 
ATOM     26  O   UNL     1      -1.254  13.503  23.438  0.00  0.00    +0.000 OA
ATOM     27  O   UNL     1      -2.623  14.114  21.425  0.00  0.00    +0.000 OA
BRANCH  25  28
ATOM     28  N   UNL     1      -3.431  12.293  23.015  0.00  0.00    +0.000 NA
ATOM     29  H   UNL     1      -3.011  11.702  23.739  0.00  0.00    +0.000 HD
BRANCH  28  30
ATOM     30  C   UNL     1      -4.656  12.998  23.549  0.00  0.00    +0.000 C 
ATOM     31  C   UNL     1      -5.710  13.159  22.455  0.00  0.00    +0.000 C 
ATOM     32  C   UNL     1      -5.231  12.279  24.769  0.00  0.00    +0.000 C 
BRANCH  30  33
ATOM     33  C   UNL     1      -4.230  14.403  24.070  0.00  0.00    +0.000 C 
BRANCH  33  34
ATOM     34  O   UNL     1      -3.556  14.337  25.323  0.00  0.00    +0.000 OA
ATOM     35  H   UNL     1      -3.034  13.519  25.330  0.00  0.00    +0.000 HD
ENDBRANCH  33  34
ENDBRANCH  30  33
ENDBRANCH  28  30
ENDBRANCH  25  28
ENDBRANCH  10  25
TORSDOF 10
ENDMDL
MODEL 2
REMARK VINA RESULT:      -7.7      0.773     10.159
REMARK  Name = 
REMARK  14 active torsions:
REMARK  status: ('A' for Active; 'I' for Inactive)
REMARK    1  A    between atoms: C_1  and  C_2
REMARK    2  A    between atoms: C_2  and  C_3
REMARK    3  A    between atoms: C_2  and  C_4
REMARK    4  A    between atoms: C_2  and  N_6
REMARK    5  A    between atoms: C_4  and  O_5
REMARK    6  A    between atoms: N_6  and  S_7
REMARK    7  A    between atoms: S_7  and  C_10
REMARK    8  A    between atoms: C_19  and  S_20
REMARK    9  A    between atoms: S_20  and  N_23
REMARK   10  A    between atoms: N_23  and  C_24
REMARK   11  A    between atoms: C_24  and  C_25
REMARK   12  A    between atoms: C_24  and  C_26
REMARK   13  A    between atoms: C_24  and  C_27
REMARK   14  A    between atoms: C_27  and  O_28
REMARK                            x       y       z     vdW  Elec       q    Type
REMARK                         _______ _______ _______ _____ _____    ______ ____
ROOT
ATOM      1  C   UNL     1      -0.736  12.014  21.145  0.00  0.00    +0.000 A 
ATOM      2  C   UNL     1      -0.377  12.312  19.814  0.00  0.00    +0.000 A 
ATOM      3  C   UNL     1       0.345  11.390  19.060  0.00  0.00    +0.000 A 
ATOM      4  C   UNL     1       0.711  10.197  19.660  0.00  0.00    +0.000 A 
ATOM      5  C   UNL     1       0.351   9.908  20.995  0.00  0.00    +0.000 A 
ATOM      6  C   UNL     1      -0.372  10.809  21.756  0.00  0.00    +0.000 A 
ATOM      7  C   UNL     1       0.911   8.558  21.407  0.00  0.00    +0.000 C 
ATOM      8  C   UNL     1       1.665   8.134  20.159  0.00  0.00    +0.000 A 
ATOM      9  C   UNL     1       2.404   6.982  19.938  0.00  0.00    +0.000 A 
ATOM     10  C   UNL     1       2.988   6.828  18.669  0.00  0.00    +0.000 A 
ATOM     11  C   UNL     1       2.855   7.811  17.667  0.00  0.00    +0.000 A 
ATOM     12  C   UNL     1       2.101   8.959  17.902  0.00  0.00    +0.000 A 
ATOM     13  C   UNL     1       1.515   9.113  19.148  0.00  0.00    +0.000 A 
ENDROOT
BRANCH   1  14
ATOM     14  S   UNL     1      -1.571  13.247  22.119  0.00  0.00    +0.000 S 
ATOM     15  O   UNL     1      -1.465  14.509  21.400  0.00  0.00    +0.000 OA
ATOM     16  O   UNL     1      -1.065  13.106  23.462  0.00  0.00    +0.000 OA
BRANCH  14  17
ATOM     17  N   UNL     1      -3.175  12.722  22.132  0.00  0.00    +0.000 NA
ATOM     18  H   UNL     1      -3.545  12.678  21.182  0.00  0.00    +0.000 HD
BRANCH  17  20
ATOM     19  C   UNL     1      -5.581  12.972  22.528  0.00  0.00    +0.000 C 
ATOM     20  C   UNL     1      -4.176  13.205  23.131  0.00  0.00    +0.000 C 
ATOM     21  C   UNL     1      -4.013  14.710  23.349  0.00  0.00    +0.000 C 
BRANCH  20  22
ATOM     22  C   UNL     1      -4.094  12.399  24.455  0.00  0.00    +0.000 C 
BRANCH  22  23
ATOM     23  O   UNL     1      -5.357  11.833  24.804  0.00  0.00    +0.000 OA
ATOM     24  H   UNL     1      -5.224  11.356  25.643  0.00  0.00    +0.000 HD
ENDBRANCH  22  23
ENDBRANCH  20  22
ENDBRANCH  17  20
ENDBRANCH  14  17
ENDBRANCH   1  14
BRANCH  10  25
ATOM     25  S   UNL     1       3.787   5.312  18.221  0.00  0.00    +0.000 S 
ATOM     26  O   UNL     1       4.270   5.467  16.867  0.00  0.00    +0.000 OA
ATOM     27  O   UNL     1       4.687   4.920  19.281  0.00  0.00    +0.000 OA
BRANCH  25  28
ATOM     28  N   UNL     1       2.538   4.148  18.148  0.00  0.00    +0.000 NA
ATOM     29  H   UNL     1       2.544   3.838  17.171  0.00  0.00    +0.000 HD
BRANCH  28  30
ATOM     30  C   UNL     1       2.456   2.961  19.081  0.00  0.00    +0.000 C 
ATOM     31  C   UNL     1       2.624   3.401  20.534  0.00  0.00    +0.000 C 
ATOM     32  C   UNL     1       1.156   2.182  18.885  0.00  0.00    +0.000 C 
BRANCH  30  33
ATOM     33  C   UNL     1       3.588   1.959  18.706  0.00  0.00    +0.000 C 
BRANCH  33  34
ATOM     34  O   UNL     1       4.719   2.071  19.565  0.00  0.00    +0.000 OA
ATOM     35  H   UNL     1       5.415   1.497  19.208  0.00  0.00    +0.000 HD
ENDBRANCH  33  34
ENDBRANCH  30  33
ENDBRANCH  28  30
ENDBRANCH  25  28
ENDBRANCH  10  25
TORSDOF 10
ENDMDL
MODEL 3
REMARK VINA RESULT:      -7.6      1.145      1.639
REMARK  Name = 
REMARK  14 active torsions:
REMARK  status: ('A' for Active; 'I' for Inactive)
REMARK    1  A    between atoms: C_1  and  C_2
REMARK    2  A    between atoms: C_2  and  C_3
REMARK    3  A    between atoms: C_2  and  C_4
REMARK    4  A    between atoms: C_2  and  N_6
REMARK    5  A    between atoms: C_4  and  O_5
REMARK    6  A    between atoms: N_6  and  S_7
REMARK    7  A    between atoms: S_7  and  C_10
REMARK    8  A    between atoms: C_19  and  S_20
REMARK    9  A    between atoms: S_20  and  N_23
REMARK   10  A    between atoms: N_23  and  C_24
REMARK   11  A    between atoms: C_24  and  C_25
REMARK   12  A    between atoms: C_24  and  C_26
REMARK   13  A    between atoms: C_24  and  C_27
REMARK   14  A    between atoms: C_27  and  O_28
REMARK                            x       y       z     vdW  Elec       q    Type
REMARK                         _______ _______ _______ _____ _____    ______ ____
ROOT
ATOM      1  C   UNL     1       2.490   7.225  19.136  0.00  0.00    +0.000 A 
ATOM      2  C   UNL     1       2.168   8.222  18.192  0.00  0.00    +0.000 A 
ATOM      3  C   UNL     1       1.375   9.307  18.561  0.00  0.00    +0.000 A 
ATOM      4  C   UNL     1       0.905   9.362  19.862  0.00  0.00    +0.000 A 
ATOM      5  C   UNL     1       1.229   8.357  20.801  0.00  0.00    +0.000 A 
ATOM      6  C   UNL     1       2.019   7.276  20.453  0.00  0.00    +0.000 A 
ATOM      7  C   UNL     1       0.553   8.645  22.129  0.00  0.00    +0.000 C 
ATOM      8  C   UNL     1      -0.224   9.913  21.820  0.00  0.00    +0.000 A 
ATOM      9  C   UNL     1      -1.057  10.648  22.650  0.00  0.00    +0.000 A 
ATOM     10  C   UNL     1      -1.642  11.806  22.110  0.00  0.00    +0.000 A 
ATOM     11  C   UNL     1      -1.419  12.196  20.774  0.00  0.00    +0.000 A 
ATOM     12  C   UNL     1      -0.572  11.451  19.956  0.00  0.00    +0.000 A 
ATOM     13  C   UNL     1       0.016  10.314  20.484  0.00  0.00    +0.000 A 
ENDROOT
BRANCH   1  14
ATOM     14  S   UNL     1       3.418   5.800  18.615  0.00  0.00    +0.000 S 
ATOM     15  O   UNL     1       4.455   5.573  19.612  0.00  0.00    +0.000 OA
ATOM     16  O   UNL     1       3.748   6.023  17.229  0.00  0.00    +0.000 OA
BRANCH  14  17
ATOM     17  N   UNL     1       2.285   4.550  18.663  0.00  0.00    +0.000 NA
ATOM     18  H   UNL     1       1.388   4.893  19.011  0.00  0.00    +0.000 HD
BRANCH  17  20
ATOM     19  C   UNL     1       1.476   2.236  18.693  0.00  0.00    +0.000 C 
ATOM     20  C   UNL     1       2.617   3.176  19.149  0.00  0.00    +0.000 C 
ATOM     21  C   UNL     1       2.648   3.155  20.678  0.00  0.00    +0.000 C 
BRANCH  20  22
ATOM     22  C   UNL     1       3.935   2.653  18.519  0.00  0.00    +0.000 C 
BRANCH  22  23
ATOM     23  O   UNL     1       4.995   2.613  19.474  0.00  0.00    +0.000 OA
ATOM     24  H   UNL     1       4.831   3.341  20.100  0.00  0.00    +0.000 HD
ENDBRANCH  22  23
ENDBRANCH  20  22
ENDBRANCH  17  20
ENDBRANCH  14  17
ENDBRANCH   1  14
BRANCH  10  25
ATOM     25  S   UNL     1      -2.563  12.915  23.140  0.00  0.00    +0.000 S 
ATOM     26  O   UNL     1      -3.446  12.109  23.954  0.00  0.00    +0.000 OA
ATOM     27  O   UNL     1      -1.655  13.856  23.753  0.00  0.00    +0.000 OA
BRANCH  25  28
ATOM     28  N   UNL     1      -3.570  13.790  22.073  0.00  0.00    +0.000 NA
ATOM     29  H   UNL     1      -3.728  13.145  21.293  0.00  0.00    +0.000 HD
BRANCH  28  30
ATOM     30  C   UNL     1      -4.870  14.433  22.501  0.00  0.00    +0.000 C 
ATOM     31  C   UNL     1      -4.728  15.080  23.877  0.00  0.00    +0.000 C 
ATOM     32  C   UNL     1      -5.367  15.439  21.464  0.00  0.00    +0.000 C 
BRANCH  30  33
ATOM     33  C   UNL     1      -5.971  13.331  22.556  0.00  0.00    +0.000 C 
BRANCH  33  34
ATOM     34  O   UNL     1      -5.623  12.177  21.799  0.00  0.00    +0.000 OA
ATOM     35  H   UNL     1      -5.636  11.417  22.402  0.00  0.00    +0.000 HD
ENDBRANCH  33  34
ENDBRANCH  30  33
ENDBRANCH  28  30
ENDBRANCH  25  28
ENDBRANCH  10  25
TORSDOF 10
ENDMDL
MODEL 4
REMARK VINA RESULT:      -7.6      1.075     10.111
REMARK  Name = 
REMARK  14 active torsions:
REMARK  status: ('A' for Active; 'I' for Inactive)
REMARK    1  A    between atoms: C_1  and  C_2
REMARK    2  A    between atoms: C_2  and  C_3
REMARK    3  A    between atoms: C_2  and  C_4
REMARK    4  A    between atoms: C_2  and  N_6
REMARK    5  A    between atoms: C_4  and  O_5
REMARK    6  A    between atoms: N_6  and  S_7
REMARK    7  A    between atoms: S_7  and  C_10
REMARK    8  A    between atoms: C_19  and  S_20
REMARK    9  A    between atoms: S_20  and  N_23
REMARK   10  A    between atoms: N_23  and  C_24
REMARK   11  A    between atoms: C_24  and  C_25
REMARK   12  A    between atoms: C_24  and  C_26
REMARK   13  A    between atoms: C_24  and  C_27
REMARK   14  A    between atoms: C_27  and  O_28
REMARK                            x       y       z     vdW  Elec       q    Type
REMARK                         _______ _______ _______ _____ _____    ______ ____
ROOT
ATOM      1  C   UNL     1      -0.843  12.185  21.509  0.00  0.00    +0.000 A 
ATOM      2  C   UNL     1      -0.529  12.463  20.163  0.00  0.00    +0.000 A 
ATOM      3  C   UNL     1       0.140  11.517  19.390  0.00  0.00    +0.000 A 
ATOM      4  C   UNL     1       0.499  10.320  19.985  0.00  0.00    +0.000 A 
ATOM      5  C   UNL     1       0.184  10.050  21.335  0.00  0.00    +0.000 A 
ATOM      6  C   UNL     1      -0.485  10.976  22.116  0.00  0.00    +0.000 A 
ATOM      7  C   UNL     1       0.726   8.690  21.736  0.00  0.00    +0.000 C 
ATOM      8  C   UNL     1       1.419   8.237  20.463  0.00  0.00    +0.000 A 
ATOM      9  C   UNL     1       2.120   7.065  20.223  0.00  0.00    +0.000 A 
ATOM     10  C   UNL     1       2.649   6.887  18.934  0.00  0.00    +0.000 A 
ATOM     11  C   UNL     1       2.503   7.865  17.930  0.00  0.00    +0.000 A 
ATOM     12  C   UNL     1       1.788   9.033  18.185  0.00  0.00    +0.000 A 
ATOM     13  C   UNL     1       1.254   9.212  19.451  0.00  0.00    +0.000 A 
ENDROOT
BRANCH   1  14
ATOM     14  S   UNL     1      -1.607  13.446  22.504  0.00  0.00    +0.000 S 
ATOM     15  O   UNL     1      -1.913  14.564  21.623  0.00  0.00    +0.000 OA
ATOM     16  O   UNL     1      -0.760  13.613  23.659  0.00  0.00    +0.000 OA
BRANCH  14  17
ATOM     17  N   UNL     1      -3.036  12.720  23.035  0.00  0.00    +0.000 NA
ATOM     18  H   UNL     1      -3.315  11.971  22.399  0.00  0.00    +0.000 HD
BRANCH  17  20
ATOM     19  C   UNL     1      -4.946  14.093  22.348  0.00  0.00    +0.000 C 
ATOM     20  C   UNL     1      -4.193  13.503  23.563  0.00  0.00    +0.000 C 
ATOM     21  C   UNL     1      -3.691  14.676  24.407  0.00  0.00    +0.000 C 
BRANCH  20  22
ATOM     22  C   UNL     1      -5.189  12.597  24.337  0.00  0.00    +0.000 C 
BRANCH  22  23
ATOM     23  O   UNL     1      -4.718  12.300  25.650  0.00  0.00    +0.000 OA
ATOM     24  H   UNL     1      -4.645  13.151  26.118  0.00  0.00    +0.000 HD
ENDBRANCH  22  23
ENDBRANCH  20  22
ENDBRANCH  17  20
ENDBRANCH  14  17
ENDBRANCH   1  14
BRANCH  10  25
ATOM     25  S   UNL     1       3.391   5.347  18.469  0.00  0.00    +0.000 S 
ATOM     26  O   UNL     1       2.491   4.703  17.537  0.00  0.00    +0.000 OA
ATOM     27  O   UNL     1       4.773   5.575  18.115  0.00  0.00    +0.000 OA
BRANCH  25  28
ATOM     28  N   UNL     1       3.372   4.390  19.884  0.00  0.00    +0.000 NA
ATOM     29  H   UNL     1       3.297   5.072  20.645  0.00  0.00    +0.000 HD
BRANCH  28  30
ATOM     30  C   UNL     1       2.405   3.247  20.098  0.00  0.00    +0.000 C 
ATOM     31  C   UNL     1       2.446   2.766  21.547  0.00  0.00    +0.000 C 
ATOM     32  C   UNL     1       0.985   3.628  19.681  0.00  0.00    +0.000 C 
BRANCH  30  33
ATOM     33  C   UNL     1       2.806   2.077  19.151  0.00  0.00    +0.000 C 
BRANCH  33  34
ATOM     34  O   UNL     1       1.880   1.900  18.085  0.00  0.00    +0.000 OA
ATOM     35  H   UNL     1       1.014   1.708  18.478  0.00  0.00    +0.000 HD
ENDBRANCH  33  34
ENDBRANCH  30  33
ENDBRANCH  28  30
ENDBRANCH  25  28
ENDBRANCH  10  25
TORSDOF 10
ENDMDL
MODEL 5
REMARK VINA RESULT:      -7.6      2.378      3.477
REMARK  Name = 
REMARK  14 active torsions:
REMARK  status: ('A' for Active; 'I' for Inactive)
REMARK    1  A    between atoms: C_1  and  C_2
REMARK    2  A    between atoms: C_2  and  C_3
REMARK    3  A    between atoms: C_2  and  C_4
REMARK    4  A    between atoms: C_2  and  N_6
REMARK    5  A    between atoms: C_4  and  O_5
REMARK    6  A    between atoms: N_6  and  S_7
REMARK    7  A    between atoms: S_7  and  C_10
REMARK    8  A    between atoms: C_19  and  S_20
REMARK    9  A    between atoms: S_20  and  N_23
REMARK   10  A    between atoms: N_23  and  C_24
REMARK   11  A    between atoms: C_24  and  C_25
REMARK   12  A    between atoms: C_24  and  C_26
REMARK   13  A    between atoms: C_24  and  C_27
REMARK   14  A    between atoms: C_27  and  O_28
REMARK                            x       y       z     vdW  Elec       q    Type
REMARK                         _______ _______ _______ _____ _____    ______ ____
ROOT
ATOM      1  C   UNL     1       3.060   6.822  18.543  0.00  0.00    +0.000 A 
ATOM      2  C   UNL     1       2.739   6.207  19.771  0.00  0.00    +0.000 A 
ATOM      3  C   UNL     1       1.902   6.850  20.680  0.00  0.00    +0.000 A 
ATOM      4  C   UNL     1       1.417   8.104  20.349  0.00  0.00    +0.000 A 
ATOM      5  C   UNL     1       1.746   8.715  19.118  0.00  0.00    +0.000 A 
ATOM      6  C   UNL     1       2.571   8.088  18.202  0.00  0.00    +0.000 A 
ATOM      7  C   UNL     1       1.114  10.093  19.034  0.00  0.00    +0.000 C 
ATOM      8  C   UNL     1       0.421  10.206  20.380  0.00  0.00    +0.000 A 
ATOM      9  C   UNL     1      -0.316  11.263  20.894  0.00  0.00    +0.000 A 
ATOM     10  C   UNL     1      -0.872  11.095  22.173  0.00  0.00    +0.000 A 
ATOM     11  C   UNL     1      -0.672   9.917  22.921  0.00  0.00    +0.000 A 
ATOM     12  C   UNL     1       0.064   8.861  22.386  0.00  0.00    +0.000 A 
ATOM     13  C   UNL     1       0.607   9.015  21.122  0.00  0.00    +0.000 A 
ENDROOT
BRANCH   1  14
ATOM     14  S   UNL     1       4.210   6.026  17.444  0.00  0.00    +0.000 S 
ATOM     15  O   UNL     1       4.496   6.962  16.367  0.00  0.00    +0.000 OA
ATOM     16  O   UNL     1       3.666   4.718  17.175  0.00  0.00    +0.000 OA
BRANCH  14  17
ATOM     17  N   UNL     1       5.584   5.807  18.401  0.00  0.00    +0.000 NA
ATOM     18  H   UNL     1       5.477   6.287  19.296  0.00  0.00    +0.000 HD
BRANCH  17  20
ATOM     19  C   UNL     1       7.940   5.454  18.978  0.00  0.00    +0.000 C 
ATOM     20  C   UNL     1       6.972   5.888  17.853  0.00  0.00    +0.000 C 
ATOM     21  C   UNL     1       7.308   7.335  17.489  0.00  0.00    +0.000 C 
BRANCH  20  22
ATOM     22  C   UNL     1       7.171   4.913  16.661  0.00  0.00    +0.000 C 
BRANCH  22  23
ATOM     23  O   UNL     1       7.233   5.609  15.417  0.00  0.00    +0.000 OA
ATOM     24  H   UNL     1       6.445   6.180  15.379  0.00  0.00    +0.000 HD
ENDBRANCH  22  23
ENDBRANCH  20  22
ENDBRANCH  17  20
ENDBRANCH  14  17
ENDBRANCH   1  14
BRANCH  10  25
ATOM     25  S   UNL     1      -1.987  12.301  22.838  0.00  0.00    +0.000 S 
ATOM     26  O   UNL     1      -2.962  11.590  23.635  0.00  0.00    +0.000 OA
ATOM     27  O   UNL     1      -1.224  13.386  23.409  0.00  0.00    +0.000 OA
BRANCH  25  28
ATOM     28  N   UNL     1      -2.837  12.921  21.491  0.00  0.00    +0.000 NA
ATOM     29  H   UNL     1      -2.883  12.131  20.841  0.00  0.00    +0.000 HD
BRANCH  28  30
ATOM     30  C   UNL     1      -4.186  13.596  21.603  0.00  0.00    +0.000 C 
ATOM     31  C   UNL     1      -4.414  14.121  23.018  0.00  0.00    +0.000 C 
ATOM     32  C   UNL     1      -4.344  14.708  20.566  0.00  0.00    +0.000 C 
BRANCH  30  33
ATOM     33  C   UNL     1      -5.289  12.554  21.251  0.00  0.00    +0.000 C 
BRANCH  33  34
ATOM     34  O   UNL     1      -6.125  12.251  22.363  0.00  0.00    +0.000 OA
ATOM     35  H   UNL     1      -6.807  12.939  22.411  0.00  0.00    +0.000 HD
ENDBRANCH  33  34
ENDBRANCH  30  33
ENDBRANCH  28  30
ENDBRANCH  25  28
ENDBRANCH  10  25
TORSDOF 10
ENDMDL
MODEL 6
REMARK VINA RESULT:      -7.6      1.064      1.348
REMARK  Name = 
REMARK  14 active torsions:
REMARK  status: ('A' for Active; 'I' for Inactive)
REMARK    1  A    between atoms: C_1  and  C_2
REMARK    2  A    between atoms: C_2  and  C_3
REMARK    3  A    between atoms: C_2  and  C_4
REMARK    4  A    between atoms: C_2  and  N_6
REMARK    5  A    between atoms: C_4  and  O_5
REMARK    6  A    between atoms: N_6  and  S_7
REMARK    7  A    between atoms: S_7  and  C_10
REMARK    8  A    between atoms: C_19  and  S_20
REMARK    9  A    between atoms: S_20  and  N_23
REMARK   10  A    between atoms: N_23  and  C_24
REMARK   11  A    between atoms: C_24  and  C_25
REMARK   12  A    between atoms: C_24  and  C_26
REMARK   13  A    between atoms: C_24  and  C_27
REMARK   14  A    between atoms: C_27  and  O_28
REMARK                            x       y       z     vdW  Elec       q    Type
REMARK                         _______ _______ _______ _____ _____    ______ ____
ROOT
ATOM      1  C   UNL     1       2.567   7.000  18.977  0.00  0.00    +0.000 A 
ATOM      2  C   UNL     1       2.323   7.907  17.925  0.00  0.00    +0.000 A 
ATOM      3  C   UNL     1       1.610   9.080  18.162  0.00  0.00    +0.000 A 
ATOM      4  C   UNL     1       1.139   9.312  19.443  0.00  0.00    +0.000 A 
ATOM      5  C   UNL     1       1.384   8.397  20.490  0.00  0.00    +0.000 A 
ATOM      6  C   UNL     1       2.096   7.231  20.274  0.00  0.00    +0.000 A 
ATOM      7  C   UNL     1       0.724   8.879  21.770  0.00  0.00    +0.000 C 
ATOM      8  C   UNL     1       0.043  10.157  21.313  0.00  0.00    +0.000 A 
ATOM      9  C   UNL     1      -0.738  11.037  22.047  0.00  0.00    +0.000 A 
ATOM     10  C   UNL     1      -1.235  12.167  21.375  0.00  0.00    +0.000 A 
ATOM     11  C   UNL     1      -0.978  12.389  20.007  0.00  0.00    +0.000 A 
ATOM     12  C   UNL     1      -0.183  11.500  19.287  0.00  0.00    +0.000 A 
ATOM     13  C   UNL     1       0.318  10.389  19.945  0.00  0.00    +0.000 A 
ENDROOT
BRANCH   1  14
ATOM     14  S   UNL     1       3.392   5.463  18.628  0.00  0.00    +0.000 S 
ATOM     15  O   UNL     1       4.797   5.770  18.401  0.00  0.00    +0.000 OA
ATOM     16  O   UNL     1       2.598   4.802  17.623  0.00  0.00    +0.000 OA
BRANCH  14  17
ATOM     17  N   UNL     1       3.216   4.586  20.060  0.00  0.00    +0.000 NA
ATOM     18  H   UNL     1       4.020   4.734  20.672  0.00  0.00    +0.000 HD
BRANCH  17  20
ATOM     19  C   UNL     1       1.298   3.187  19.449  0.00  0.00    +0.000 C 
ATOM     20  C   UNL     1       2.706   3.182  20.089  0.00  0.00    +0.000 C 
ATOM     21  C   UNL     1       2.553   2.710  21.536  0.00  0.00    +0.000 C 
BRANCH  20  22
ATOM     22  C   UNL     1       3.601   2.234  19.246  0.00  0.00    +0.000 C 
BRANCH  22  23
ATOM     23  O   UNL     1       4.956   2.253  19.694  0.00  0.00    +0.000 OA
ATOM     24  H   UNL     1       5.352   3.071  19.345  0.00  0.00    +0.000 HD
ENDBRANCH  22  23
ENDBRANCH  20  22
ENDBRANCH  17  20
ENDBRANCH  14  17
ENDBRANCH   1  14
BRANCH  10  25
ATOM     25  S   UNL     1      -2.078  13.446  22.264  0.00  0.00    +0.000 S 
ATOM     26  O   UNL     1      -1.548  13.452  23.610  0.00  0.00    +0.000 OA
ATOM     27  O   UNL     1      -2.078  14.653  21.471  0.00  0.00    +0.000 OA
BRANCH  25  28
ATOM     28  N   UNL     1      -3.696  12.915  22.396  0.00  0.00    +0.000 NA
ATOM     29  H   UNL     1      -3.627  11.893  22.354  0.00  0.00    +0.000 HD
BRANCH  28  30
ATOM     30  C   UNL     1      -4.619  13.338  23.516  0.00  0.00    +0.000 C 
ATOM     31  C   UNL     1      -4.488  12.398  24.712  0.00  0.00    +0.000 C 
ATOM     32  C   UNL     1      -4.376  14.791  23.924  0.00  0.00    +0.000 C 
BRANCH  30  33
ATOM     33  C   UNL     1      -6.084  13.306  22.988  0.00  0.00    +0.000 C 
BRANCH  33  34
ATOM     34  O   UNL     1      -6.467  12.015  22.524  0.00  0.00    +0.000 OA
ATOM     35  H   UNL     1      -6.734  12.106  21.596  0.00  0.00    +0.000 HD
ENDBRANCH  33  34
ENDBRANCH  30  33
ENDBRANCH  28  30
ENDBRANCH  25  28
ENDBRANCH  10  25
TORSDOF 10
ENDMDL
MODEL 7
REMARK VINA RESULT:      -7.6      0.631     10.338
REMARK  Name = 
REMARK  14 active torsions:
REMARK  status: ('A' for Active; 'I' for Inactive)
REMARK    1  A    between atoms: C_1  and  C_2
REMARK    2  A    between atoms: C_2  and  C_3
REMARK    3  A    between atoms: C_2  and  C_4
REMARK    4  A    between atoms: C_2  and  N_6
REMARK    5  A    between atoms: C_4  and  O_5
REMARK    6  A    between atoms: N_6  and  S_7
REMARK    7  A    between atoms: S_7  and  C_10
REMARK    8  A    between atoms: C_19  and  S_20
REMARK    9  A    between atoms: S_20  and  N_23
REMARK   10  A    between atoms: N_23  and  C_24
REMARK   11  A    between atoms: C_24  and  C_25
REMARK   12  A    between atoms: C_24  and  C_26
REMARK   13  A    between atoms: C_24  and  C_27
REMARK   14  A    between atoms: C_27  and  O_28
REMARK                            x       y       z     vdW  Elec       q    Type
REMARK                         _______ _______ _______ _____ _____    ______ ____
ROOT
ATOM      1  C   UNL     1      -1.271  12.170  21.312  0.00  0.00    +0.000 A 
ATOM      2  C   UNL     1      -0.957  12.425  19.962  0.00  0.00    +0.000 A 
ATOM      3  C   UNL     1      -0.207  11.507  19.231  0.00  0.00    +0.000 A 
ATOM      4  C   UNL     1       0.231  10.361  19.872  0.00  0.00    +0.000 A 
ATOM      5  C   UNL     1      -0.084  10.114  21.227  0.00  0.00    +0.000 A 
ATOM      6  C   UNL     1      -0.833  11.012  21.966  0.00  0.00    +0.000 A 
ATOM      7  C   UNL     1       0.552   8.813  21.683  0.00  0.00    +0.000 C 
ATOM      8  C   UNL     1       1.297   8.371  20.436  0.00  0.00    +0.000 A 
ATOM      9  C   UNL     1       2.088   7.248  20.246  0.00  0.00    +0.000 A 
ATOM     10  C   UNL     1       2.650   7.067  18.971  0.00  0.00    +0.000 A 
ATOM     11  C   UNL     1       2.447   7.997  17.931  0.00  0.00    +0.000 A 
ATOM     12  C   UNL     1       1.642   9.115  18.136  0.00  0.00    +0.000 A 
ATOM     13  C   UNL     1       1.076   9.296  19.387  0.00  0.00    +0.000 A 
ENDROOT
BRANCH   1  14
ATOM     14  S   UNL     1      -2.144  13.402  22.252  0.00  0.00    +0.000 S 
ATOM     15  O   UNL     1      -2.325  14.558  21.385  0.00  0.00    +0.000 OA
ATOM     16  O   UNL     1      -1.449  13.512  23.511  0.00  0.00    +0.000 OA
BRANCH  14  17
ATOM     17  N   UNL     1      -3.635  12.676  22.568  0.00  0.00    +0.000 NA
ATOM     18  H   UNL     1      -4.074  12.368  21.699  0.00  0.00    +0.000 HD
BRANCH  17  20
ATOM     19  C   UNL     1      -4.466  12.414  24.859  0.00  0.00    +0.000 C 
ATOM     20  C   UNL     1      -4.612  13.231  23.554  0.00  0.00    +0.000 C 
ATOM     21  C   UNL     1      -6.040  13.034  23.045  0.00  0.00    +0.000 C 
BRANCH  20  22
ATOM     22  C   UNL     1      -4.299  14.713  23.892  0.00  0.00    +0.000 C 
BRANCH  22  23
ATOM     23  O   UNL     1      -4.848  15.601  22.919  0.00  0.00    +0.000 OA
ATOM     24  H   UNL     1      -4.884  16.481  23.335  0.00  0.00    +0.000 HD
ENDBRANCH  22  23
ENDBRANCH  20  22
ENDBRANCH  17  20
ENDBRANCH  14  17
ENDBRANCH   1  14
BRANCH  10  25
ATOM     25  S   UNL     1       3.514   5.573  18.570  0.00  0.00    +0.000 S 
ATOM     26  O   UNL     1       3.915   5.670  17.184  0.00  0.00    +0.000 OA
ATOM     27  O   UNL     1       4.490   5.299  19.599  0.00  0.00    +0.000 OA
BRANCH  25  28
ATOM     28  N   UNL     1       2.334   4.338  18.636  0.00  0.00    +0.000 NA
ATOM     29  H   UNL     1       2.022   4.240  17.665  0.00  0.00    +0.000 HD
BRANCH  28  30
ATOM     30  C   UNL     1       2.590   2.980  19.250  0.00  0.00    +0.000 C 
ATOM     31  C   UNL     1       2.693   3.084  20.771  0.00  0.00    +0.000 C 
ATOM     32  C   UNL     1       1.524   1.967  18.836  0.00  0.00    +0.000 C 
BRANCH  30  33
ATOM     33  C   UNL     1       3.926   2.421  18.676  0.00  0.00    +0.000 C 
BRANCH  33  34
ATOM     34  O   UNL     1       4.961   2.378  19.651  0.00  0.00    +0.000 OA
ATOM     35  H   UNL     1       5.631   3.031  19.395  0.00  0.00    +0.000 HD
ENDBRANCH  33  34
ENDBRANCH  30  33
ENDBRANCH  28  30
ENDBRANCH  25  28
ENDBRANCH  10  25
TORSDOF 10
ENDMDL
MODEL 8
REMARK VINA RESULT:      -7.6      3.107     10.346
REMARK  Name = 
REMARK  14 active torsions:
REMARK  status: ('A' for Active; 'I' for Inactive)
REMARK    1  A    between atoms: C_1  and  C_2
REMARK    2  A    between atoms: C_2  and  C_3
REMARK    3  A    between atoms: C_2  and  C_4
REMARK    4  A    between atoms: C_2  and  N_6
REMARK    5  A    between atoms: C_4  and  O_5
REMARK    6  A    between atoms: N_6  and  S_7
REMARK    7  A    between atoms: S_7  and  C_10
REMARK    8  A    between atoms: C_19  and  S_20
REMARK    9  A    between atoms: S_20  and  N_23
REMARK   10  A    between atoms: N_23  and  C_24
REMARK   11  A    between atoms: C_24  and  C_25
REMARK   12  A    between atoms: C_24  and  C_26
REMARK   13  A    between atoms: C_24  and  C_27
REMARK   14  A    between atoms: C_27  and  O_28
REMARK                            x       y       z     vdW  Elec       q    Type
REMARK                         _______ _______ _______ _____ _____    ______ ____
ROOT
ATOM      1  C   UNL     1      -0.423  11.031  19.402  0.00  0.00    +0.000 A 
ATOM      2  C   UNL     1      -0.558  10.304  20.602  0.00  0.00    +0.000 A 
ATOM      3  C   UNL     1       0.189   9.147  20.810  0.00  0.00    +0.000 A 
ATOM      4  C   UNL     1       1.042   8.730  19.803  0.00  0.00    +0.000 A 
ATOM      5  C   UNL     1       1.170   9.461  18.601  0.00  0.00    +0.000 A 
ATOM      6  C   UNL     1       0.440  10.616  18.381  0.00  0.00    +0.000 A 
ATOM      7  C   UNL     1       2.138   8.762  17.664  0.00  0.00    +0.000 C 
ATOM      8  C   UNL     1       2.514   7.526  18.462  0.00  0.00    +0.000 A 
ATOM      9  C   UNL     1       3.363   6.487  18.110  0.00  0.00    +0.000 A 
ATOM     10  C   UNL     1       3.553   5.466  19.055  0.00  0.00    +0.000 A 
ATOM     11  C   UNL     1       2.891   5.474  20.300  0.00  0.00    +0.000 A 
ATOM     12  C   UNL     1       2.049   6.530  20.642  0.00  0.00    +0.000 A 
ATOM     13  C   UNL     1       1.864   7.546  19.718  0.00  0.00    +0.000 A 
ENDROOT
BRANCH   1  14
ATOM     14  S   UNL     1      -1.461  12.448  19.119  0.00  0.00    +0.000 S 
ATOM     15  O   UNL     1      -0.588  13.607  19.008  0.00  0.00    +0.000 OA
ATOM     16  O   UNL     1      -2.501  12.386  20.117  0.00  0.00    +0.000 OA
BRANCH  14  17
ATOM     17  N   UNL     1      -2.181  12.120  17.628  0.00  0.00    +0.000 NA
ATOM     18  H   UNL     1      -2.246  12.970  17.067  0.00  0.00    +0.000 HD
BRANCH  17  20
ATOM     19  C   UNL     1      -2.905   9.782  17.770  0.00  0.00    +0.000 C 
ATOM     20  C   UNL     1      -3.372  11.229  17.484  0.00  0.00    +0.000 C 
ATOM     21  C   UNL     1      -3.886  11.270  16.044  0.00  0.00    +0.000 C 
BRANCH  20  22
ATOM     22  C   UNL     1      -4.473  11.579  18.520  0.00  0.00    +0.000 C 
BRANCH  22  23
ATOM     23  O   UNL     1      -4.943  12.917  18.356  0.00  0.00    +0.000 OA
ATOM     24  H   UNL     1      -4.288  13.495  18.786  0.00  0.00    +0.000 HD
ENDBRANCH  22  23
ENDBRANCH  20  22
ENDBRANCH  17  20
ENDBRANCH  14  17
ENDBRANCH   1  14
BRANCH  10  25
ATOM     25  S   UNL     1       4.761   4.199  18.784  0.00  0.00    +0.000 S 
ATOM     26  O   UNL     1       5.924   4.541  19.573  0.00  0.00    +0.000 OA
ATOM     27  O   UNL     1       4.132   2.906  18.927  0.00  0.00    +0.000 OA
BRANCH  25  28
ATOM     28  N   UNL     1       5.232   4.366  17.150  0.00  0.00    +0.000 NA
ATOM     29  H   UNL     1       4.377   4.673  16.675  0.00  0.00    +0.000 HD
BRANCH  28  30
ATOM     30  C   UNL     1       6.413   5.200  16.709  0.00  0.00    +0.000 C 
ATOM     31  C   UNL     1       6.971   4.693  15.381  0.00  0.00    +0.000 C 
ATOM     32  C   UNL     1       6.053   6.684  16.628  0.00  0.00    +0.000 C 
BRANCH  30  33
ATOM     33  C   UNL     1       7.517   5.111  17.805  0.00  0.00    +0.000 C 
BRANCH  33  34
ATOM     34  O   UNL     1       8.325   3.947  17.668  0.00  0.00    +0.000 OA
ATOM     35  H   UNL     1       8.751   3.988  16.797  0.00  0.00    +0.000 HD
ENDBRANCH  33  34
ENDBRANCH  30  33
ENDBRANCH  28  30
ENDBRANCH  25  28
ENDBRANCH  10  25
TORSDOF 10
ENDMDL
MODEL 9
REMARK VINA RESULT:      -7.6      2.105      2.979
REMARK  Name = 
REMARK  14 active torsions:
REMARK  status: ('A' for Active; 'I' for Inactive)
REMARK    1  A    between atoms: C_1  and  C_2
REMARK    2  A    between atoms: C_2  and  C_3
REMARK    3  A    between atoms: C_2  and  C_4
REMARK    4  A    between atoms: C_2  and  N_6
REMARK    5  A    between atoms: C_4  and  O_5
REMARK    6  A    between atoms: N_6  and  S_7
REMARK    7  A    between atoms: S_7  and  C_10
REMARK    8  A    between atoms: C_19  and  S_20
REMARK    9  A    between atoms: S_20  and  N_23
REMARK   10  A    between atoms: N_23  and  C_24
REMARK   11  A    between atoms: C_24  and  C_25
REMARK   12  A    between atoms: C_24  and  C_26
REMARK   13  A    between atoms: C_24  and  C_27
REMARK   14  A    between atoms: C_27  and  O_28
REMARK                            x       y       z     vdW  Elec       q    Type
REMARK                         _______ _______ _______ _____ _____    ______ ____
ROOT
ATOM      1  C   UNL     1       2.792   5.647  19.055  0.00  0.00    +0.000 A 
ATOM      2  C   UNL     1       2.278   5.255  20.308  0.00  0.00    +0.000 A 
ATOM      3  C   UNL     1       1.542   6.155  21.077  0.00  0.00    +0.000 A 
ATOM      4  C   UNL     1       1.353   7.434  20.584  0.00  0.00    +0.000 A 
ATOM      5  C   UNL     1       1.874   7.821  19.329  0.00  0.00    +0.000 A 
ATOM      6  C   UNL     1       2.602   6.939  18.550  0.00  0.00    +0.000 A 
ATOM      7  C   UNL     1       1.553   9.279  19.057  0.00  0.00    +0.000 C 
ATOM      8  C   UNL     1       0.821   9.684  20.324  0.00  0.00    +0.000 A 
ATOM      9  C   UNL     1       0.294  10.920  20.667  0.00  0.00    +0.000 A 
ATOM     10  C   UNL     1      -0.360  11.017  21.907  0.00  0.00    +0.000 A 
ATOM     11  C   UNL     1      -0.456   9.916  22.783  0.00  0.00    +0.000 A 
ATOM     12  C   UNL     1       0.071   8.679  22.418  0.00  0.00    +0.000 A 
ATOM     13  C   UNL     1       0.709   8.574  21.193  0.00  0.00    +0.000 A 
ENDROOT
BRANCH   1  14
ATOM     14  S   UNL     1       3.812   4.514  18.139  0.00  0.00    +0.000 S 
ATOM     15  O   UNL     1       2.921   3.640  17.390  0.00  0.00    +0.000 OA
ATOM     16  O   UNL     1       4.765   3.982  19.082  0.00  0.00    +0.000 OA
BRANCH  14  17
ATOM     17  N   UNL     1       4.665   5.516  17.081  0.00  0.00    +0.000 NA
ATOM     18  H   UNL     1       4.020   6.055  16.501  0.00  0.00    +0.000 HD
BRANCH  17  20
ATOM     19  C   UNL     1       5.974   5.901  15.045  0.00  0.00    +0.000 C 
ATOM     20  C   UNL     1       5.880   5.061  16.341  0.00  0.00    +0.000 C 
ATOM     21  C   UNL     1       5.726   3.596  15.929  0.00  0.00    +0.000 C 
BRANCH  20  22
ATOM     22  C   UNL     1       7.174   5.317  17.159  0.00  0.00    +0.000 C 
BRANCH  22  23
ATOM     23  O   UNL     1       8.006   4.158  17.203  0.00  0.00    +0.000 OA
ATOM     24  H   UNL     1       8.848   4.405  16.781  0.00  0.00    +0.000 HD
ENDBRANCH  22  23
ENDBRANCH  20  22
ENDBRANCH  17  20
ENDBRANCH  14  17
ENDBRANCH   1  14
BRANCH  10  25
ATOM     25  S   UNL     1      -1.232  12.492  22.355  0.00  0.00    +0.000 S 
ATOM     26  O   UNL     1      -0.382  13.234  23.260  0.00  0.00    +0.000 OA
ATOM     27  O   UNL     1      -1.752  13.116  21.160  0.00  0.00    +0.000 OA
BRANCH  25  28
ATOM     28  N   UNL     1      -2.566  11.965  23.283  0.00  0.00    +0.000 NA
ATOM     29  H   UNL     1      -2.145  11.635  24.158  0.00  0.00    +0.000 HD
BRANCH  28  30
ATOM     30  C   UNL     1      -3.772  12.831  23.568  0.00  0.00    +0.000 C 
ATOM     31  C   UNL     1      -4.661  12.945  22.331  0.00  0.00    +0.000 C 
ATOM     32  C   UNL     1      -4.561  12.317  24.772  0.00  0.00    +0.000 C 
BRANCH  30  33
ATOM     33  C   UNL     1      -3.275  14.248  23.983  0.00  0.00    +0.000 C 
BRANCH  33  34
ATOM     34  O   UNL     1      -3.450  14.498  25.374  0.00  0.00    +0.000 OA
ATOM     35  H   UNL     1      -2.742  15.101  25.653  0.00  0.00    +0.000 HD
ENDBRANCH  33  34
ENDBRANCH  30  33
ENDBRANCH  28  30
ENDBRANCH  25  28
ENDBRANCH  10  25
TORSDOF 10
ENDMDL
