MODEL 1
REMARK VINA RESULT:      -7.0      0.000      0.000
REMARK  Name = 
REMARK  11 active torsions:
REMARK  status: ('A' for Active; 'I' for Inactive)
REMARK    1  A    between atoms: C_1  and  O_2
REMARK    2  A    between atoms: O_2  and  C_3
REMARK    3  A    between atoms: C_5  and  C_6
REMARK    4  A    between atoms: C_6  and  C_8
REMARK    5  A    between atoms: N_10  and  C_11
REMARK    6  A    between atoms: C_18  and  C_19
REMARK    7  A    between atoms: C_24  and  N_25
REMARK    8  A    between atoms: C_29  and  O_30
REMARK    9  A    between atoms: O_30  and  C_31
REMARK   10  A    between atoms: C_32  and  O_33
REMARK   11  A    between atoms: O_33  and  C_34
REMARK                            x       y       z     vdW  Elec       q    Type
REMARK                         _______ _______ _______ _____ _____    ______ ____
ROOT
ATOM      1  C   UNL     1       0.035  11.002  19.256  0.00  0.00    +0.000 A 
ATOM      2  C   UNL     1       0.700   9.860  18.815  0.00  0.00    +0.000 A 
ATOM      3  N   UNL     1       1.119   9.106  19.889  0.00  0.00    +0.000 N 
ATOM      4  C   UNL     1       0.788   9.817  21.028  0.00  0.00    +0.000 A 
ATOM      5  C   UNL     1       0.052  10.936  20.689  0.00  0.00    +0.000 A 
ENDROOT
BRANCH   3   6
ATOM      6  C   UNL     1       1.759   7.827  19.851  0.00  0.00    +0.000 A 
ATOM      7  C   UNL     1       2.678   7.507  18.838  0.00  0.00    +0.000 A 
ATOM      8  C   UNL     1       3.269   6.240  18.796  0.00  0.00    +0.000 A 
ATOM      9  C   UNL     1       2.953   5.281  19.755  0.00  0.00    +0.000 A 
ATOM     10  C   UNL     1       2.050   5.588  20.764  0.00  0.00    +0.000 A 
ATOM     11  C   UNL     1       1.456   6.854  20.817  0.00  0.00    +0.000 A 
ENDBRANCH   3   6
BRANCH   5  12
ATOM     12  C   UNL     1      -0.524  11.846  21.681  0.00  0.00    +0.000 A 
ATOM     13  C   UNL     1      -1.610  11.394  22.451  0.00  0.00    +0.000 A 
ATOM     14  C   UNL     1      -2.155  12.173  23.476  0.00  0.00    +0.000 A 
ATOM     15  C   UNL     1      -1.653  13.444  23.736  0.00  0.00    +0.000 A 
ATOM     16  C   UNL     1      -0.609  13.943  22.963  0.00  0.00    +0.000 A 
ATOM     17  C   UNL     1      -0.052  13.142  21.952  0.00  0.00    +0.000 A 
BRANCH  17  18
ATOM     18  N   UNL     1       1.031  13.741  21.191  0.00  0.00    +0.000 N 
ATOM     19  O   UNL     1       0.753  14.674  20.427  0.00  0.00    +0.000 OA
ATOM     20  O   UNL     1       2.156  13.250  21.348  0.00  0.00    +0.000 OA
ENDBRANCH  17  18
ENDBRANCH   5  12
BRANCH   1  21
ATOM     21  C   UNL     1      -0.622  12.008  18.404  0.00  0.00    +0.000 C 
ATOM     22  O   UNL     1      -0.008  12.951  17.913  0.00  0.00    +0.000 OA
BRANCH  21  25
ATOM     23  C   UNL     1      -3.937  11.210  16.728  0.00  0.00    +0.000 A 
ATOM     24  C   UNL     1      -2.574  11.502  16.894  0.00  0.00    +0.000 A 
ATOM     25  C   UNL     1      -2.081  11.909  18.130  0.00  0.00    +0.000 A 
ATOM     26  C   UNL     1      -2.980  12.212  19.148  0.00  0.00    +0.000 A 
ATOM     27  C   UNL     1      -4.360  12.035  18.973  0.00  0.00    +0.000 A 
ATOM     28  C   UNL     1      -4.858  11.512  17.757  0.00  0.00    +0.000 A 
BRANCH  23  30
ATOM     29  C   UNL     1      -3.326  10.214  14.666  0.00  0.00    +0.000 C 
ATOM     30  O   UNL     1      -4.366  10.632  15.559  0.00  0.00    +0.000 OA
ENDBRANCH  23  30
BRANCH  27  31
ATOM     31  O   UNL     1      -5.051  12.389  20.105  0.00  0.00    +0.000 OA
ATOM     32  C   UNL     1      -5.229  13.758  20.427  0.00  0.00    +0.000 C 
ENDBRANCH  27  31
BRANCH  28  33
ATOM     33  O   UNL     1      -6.213  11.347  17.698  0.00  0.00    +0.000 OA
ATOM     34  C   UNL     1      -7.084  12.428  17.424  0.00  0.00    +0.000 C 
ENDBRANCH  28  33
ENDBRANCH  21  25
ENDBRANCH   1  21
TORSDOF 8
ENDMDL
MODEL 2
REMARK VINA RESULT:      -6.9      3.267      7.164
REMARK  Name = 
REMARK  11 active torsions:
REMARK  status: ('A' for Active; 'I' for Inactive)
REMARK    1  A    between atoms: C_1  and  O_2
REMARK    2  A    between atoms: O_2  and  C_3
REMARK    3  A    between atoms: C_5  and  C_6
REMARK    4  A    between atoms: C_6  and  C_8
REMARK    5  A    between atoms: N_10  and  C_11
REMARK    6  A    between atoms: C_18  and  C_19
REMARK    7  A    between atoms: C_24  and  N_25
REMARK    8  A    between atoms: C_29  and  O_30
REMARK    9  A    between atoms: O_30  and  C_31
REMARK   10  A    between atoms: C_32  and  O_33
REMARK   11  A    between atoms: O_33  and  C_34
REMARK                            x       y       z     vdW  Elec       q    Type
REMARK                         _______ _______ _______ _____ _____    ______ ____
ROOT
ATOM      1  C   UNL     1      -0.272  12.093  19.665  0.00  0.00    +0.000 A 
ATOM      2  C   UNL     1      -1.534  12.671  19.549  0.00  0.00    +0.000 A 
ATOM      3  N   UNL     1      -2.443  11.746  19.084  0.00  0.00    +0.000 N 
ATOM      4  C   UNL     1      -1.734  10.588  18.823  0.00  0.00    +0.000 A 
ATOM      5  C   UNL     1      -0.425  10.730  19.243  0.00  0.00    +0.000 A 
ENDROOT
BRANCH   3   6
ATOM      6  C   UNL     1      -3.852  11.926  18.913  0.00  0.00    +0.000 A 
ATOM      7  C   UNL     1      -4.507  11.459  17.761  0.00  0.00    +0.000 A 
ATOM      8  C   UNL     1      -5.878  11.674  17.593  0.00  0.00    +0.000 A 
ATOM      9  C   UNL     1      -6.611  12.355  18.563  0.00  0.00    +0.000 A 
ATOM     10  C   UNL     1      -5.975  12.816  19.708  0.00  0.00    +0.000 A 
ATOM     11  C   UNL     1      -4.603  12.603  19.887  0.00  0.00    +0.000 A 
ENDBRANCH   3   6
BRANCH   5  12
ATOM     12  C   UNL     1       0.557   9.645  19.186  0.00  0.00    +0.000 A 
ATOM     13  C   UNL     1       1.225   9.413  17.971  0.00  0.00    +0.000 A 
ATOM     14  C   UNL     1       2.237   8.454  17.865  0.00  0.00    +0.000 A 
ATOM     15  C   UNL     1       2.584   7.672  18.962  0.00  0.00    +0.000 A 
ATOM     16  C   UNL     1       1.910   7.843  20.167  0.00  0.00    +0.000 A 
ATOM     17  C   UNL     1       0.913   8.826  20.271  0.00  0.00    +0.000 A 
BRANCH  17  18
ATOM     18  N   UNL     1       0.258   8.934  21.564  0.00  0.00    +0.000 N 
ATOM     19  O   UNL     1       0.786   9.655  22.420  0.00  0.00    +0.000 OA
ATOM     20  O   UNL     1      -0.774   8.269  21.720  0.00  0.00    +0.000 OA
ENDBRANCH  17  18
ENDBRANCH   5  12
BRANCH   1  21
ATOM     21  C   UNL     1       0.935  12.744  20.201  0.00  0.00    +0.000 C 
ATOM     22  O   UNL     1       1.575  12.266  21.134  0.00  0.00    +0.000 OA
BRANCH  21  25
ATOM     23  C   UNL     1       2.864  15.293  18.148  0.00  0.00    +0.000 A 
ATOM     24  C   UNL     1       2.562  14.120  18.858  0.00  0.00    +0.000 A 
ATOM     25  C   UNL     1       1.403  14.032  19.623  0.00  0.00    +0.000 A 
ATOM     26  C   UNL     1       0.647  15.181  19.837  0.00  0.00    +0.000 A 
ATOM     27  C   UNL     1       0.990  16.397  19.228  0.00  0.00    +0.000 A 
ATOM     28  C   UNL     1       2.101  16.465  18.356  0.00  0.00    +0.000 A 
BRANCH  23  30
ATOM     29  C   UNL     1       5.200  15.063  17.826  0.00  0.00    +0.000 C 
ATOM     30  O   UNL     1       3.907  15.292  17.255  0.00  0.00    +0.000 OA
ENDBRANCH  23  30
BRANCH  27  31
ATOM     31  O   UNL     1       0.103  17.388  19.572  0.00  0.00    +0.000 OA
ATOM     32  C   UNL     1      -1.197  17.402  19.006  0.00  0.00    +0.000 C 
ENDBRANCH  27  31
BRANCH  28  33
ATOM     33  O   UNL     1       2.331  17.686  17.789  0.00  0.00    +0.000 OA
ATOM     34  C   UNL     1       1.663  18.098  16.611  0.00  0.00    +0.000 C 
ENDBRANCH  28  33
ENDBRANCH  21  25
ENDBRANCH   1  21
TORSDOF 8
ENDMDL
MODEL 3
REMARK VINA RESULT:      -6.9      0.337      2.255
REMARK  Name = 
REMARK  11 active torsions:
REMARK  status: ('A' for Active; 'I' for Inactive)
REMARK    1  A    between atoms: C_1  and  O_2
REMARK    2  A    between atoms: O_2  and  C_3
REMARK    3  A    between atoms: C_5  and  C_6
REMARK    4  A    between atoms: C_6  and  C_8
REMARK    5  A    between atoms: N_10  and  C_11
REMARK    6  A    between atoms: C_18  and  C_19
REMARK    7  A    between atoms: C_24  and  N_25
REMARK    8  A    between atoms: C_29  and  O_30
REMARK    9  A    between atoms: O_30  and  C_31
REMARK   10  A    between atoms: C_32  and  O_33
REMARK   11  A    between atoms: O_33  and  C_34
REMARK                            x       y       z     vdW  Elec       q    Type
REMARK                         _______ _______ _______ _____ _____    ______ ____
ROOT
ATOM      1  C   UNL     1      -0.084  10.989  19.240  0.00  0.00    +0.000 A 
ATOM      2  C   UNL     1       0.590   9.856  18.789  0.00  0.00    +0.000 A 
ATOM      3  N   UNL     1       1.093   9.141  19.854  0.00  0.00    +0.000 N 
ATOM      4  C   UNL     1       0.806   9.870  20.993  0.00  0.00    +0.000 A 
ATOM      5  C   UNL     1       0.017  10.958  20.672  0.00  0.00    +0.000 A 
ENDROOT
BRANCH   3   6
ATOM      6  C   UNL     1       1.769   7.882  19.809  0.00  0.00    +0.000 A 
ATOM      7  C   UNL     1       2.645   7.568  18.757  0.00  0.00    +0.000 A 
ATOM      8  C   UNL     1       3.272   6.319  18.710  0.00  0.00    +0.000 A 
ATOM      9  C   UNL     1       3.034   5.371  19.702  0.00  0.00    +0.000 A 
ATOM     10  C   UNL     1       2.174   5.672  20.749  0.00  0.00    +0.000 A 
ATOM     11  C   UNL     1       1.544   6.921  20.807  0.00  0.00    +0.000 A 
ENDBRANCH   3   6
BRANCH   5  12
ATOM     12  C   UNL     1      -0.530  11.875  21.674  0.00  0.00    +0.000 A 
ATOM     13  C   UNL     1      -1.604  11.434  22.467  0.00  0.00    +0.000 A 
ATOM     14  C   UNL     1      -2.120  12.220  23.502  0.00  0.00    +0.000 A 
ATOM     15  C   UNL     1      -1.601  13.487  23.750  0.00  0.00    +0.000 A 
ATOM     16  C   UNL     1      -0.569  13.974  22.954  0.00  0.00    +0.000 A 
ATOM     17  C   UNL     1      -0.041  13.167  21.933  0.00  0.00    +0.000 A 
BRANCH  17  18
ATOM     18  N   UNL     1       1.031  13.755  21.148  0.00  0.00    +0.000 N 
ATOM     19  O   UNL     1       0.733  14.632  20.328  0.00  0.00    +0.000 OA
ATOM     20  O   UNL     1       2.170  13.310  21.344  0.00  0.00    +0.000 OA
ENDBRANCH  17  18
ENDBRANCH   5  12
BRANCH   1  21
ATOM     21  C   UNL     1      -0.819  11.952  18.406  0.00  0.00    +0.000 C 
ATOM     22  O   UNL     1      -0.259  12.884  17.833  0.00  0.00    +0.000 OA
BRANCH  21  25
ATOM     23  C   UNL     1      -4.558  12.320  18.974  0.00  0.00    +0.000 A 
ATOM     24  C   UNL     1      -3.180  12.251  19.234  0.00  0.00    +0.000 A 
ATOM     25  C   UNL     1      -2.293  11.826  18.249  0.00  0.00    +0.000 A 
ATOM     26  C   UNL     1      -2.802  11.284  17.072  0.00  0.00    +0.000 A 
ATOM     27  C   UNL     1      -4.183  11.239  16.832  0.00  0.00    +0.000 A 
ATOM     28  C   UNL     1      -5.085  11.775  17.781  0.00  0.00    +0.000 A 
BRANCH  23  30
ATOM     29  C   UNL     1      -5.109  12.609  21.261  0.00  0.00    +0.000 C 
ATOM     30  O   UNL     1      -5.388  12.918  19.890  0.00  0.00    +0.000 OA
ENDBRANCH  23  30
BRANCH  27  31
ATOM     31  O   UNL     1      -4.453  10.673  15.611  0.00  0.00    +0.000 OA
ATOM     32  C   UNL     1      -3.391  10.364  14.723  0.00  0.00    +0.000 C 
ENDBRANCH  27  31
BRANCH  28  33
ATOM     33  O   UNL     1      -6.405  11.712  17.439  0.00  0.00    +0.000 OA
ATOM     34  C   UNL     1      -7.156  12.875  17.146  0.00  0.00    +0.000 C 
ENDBRANCH  28  33
ENDBRANCH  21  25
ENDBRANCH   1  21
TORSDOF 8
ENDMDL
MODEL 4
REMARK VINA RESULT:      -6.8      2.371      3.532
REMARK  Name = 
REMARK  11 active torsions:
REMARK  status: ('A' for Active; 'I' for Inactive)
REMARK    1  A    between atoms: C_1  and  O_2
REMARK    2  A    between atoms: O_2  and  C_3
REMARK    3  A    between atoms: C_5  and  C_6
REMARK    4  A    between atoms: C_6  and  C_8
REMARK    5  A    between atoms: N_10  and  C_11
REMARK    6  A    between atoms: C_18  and  C_19
REMARK    7  A    between atoms: C_24  and  N_25
REMARK    8  A    between atoms: C_29  and  O_30
REMARK    9  A    between atoms: O_30  and  C_31
REMARK   10  A    between atoms: C_32  and  O_33
REMARK   11  A    between atoms: O_33  and  C_34
REMARK                            x       y       z     vdW  Elec       q    Type
REMARK                         _______ _______ _______ _____ _____    ______ ____
ROOT
ATOM      1  C   UNL     1      -0.574  12.277  20.717  0.00  0.00    +0.000 A 
ATOM      2  C   UNL     1      -0.318  10.913  20.599  0.00  0.00    +0.000 A 
ATOM      3  N   UNL     1       0.705  10.693  19.704  0.00  0.00    +0.000 N 
ATOM      4  C   UNL     1       1.050  11.927  19.184  0.00  0.00    +0.000 A 
ATOM      5  C   UNL     1       0.354  12.927  19.837  0.00  0.00    +0.000 A 
ENDROOT
BRANCH   3   6
ATOM      6  C   UNL     1       1.314   9.442  19.375  0.00  0.00    +0.000 A 
ATOM      7  C   UNL     1       1.430   8.419  20.332  0.00  0.00    +0.000 A 
ATOM      8  C   UNL     1       2.059   7.214  20.004  0.00  0.00    +0.000 A 
ATOM      9  C   UNL     1       2.579   7.013  18.728  0.00  0.00    +0.000 A 
ATOM     10  C   UNL     1       2.466   8.014  17.772  0.00  0.00    +0.000 A 
ATOM     11  C   UNL     1       1.834   9.223  18.090  0.00  0.00    +0.000 A 
ENDBRANCH   3   6
BRANCH   5  12
ATOM     12  C   UNL     1       0.566  14.352  19.576  0.00  0.00    +0.000 A 
ATOM     13  C   UNL     1      -0.285  14.996  18.661  0.00  0.00    +0.000 A 
ATOM     14  C   UNL     1      -0.200  16.372  18.427  0.00  0.00    +0.000 A 
ATOM     15  C   UNL     1       0.765  17.138  19.074  0.00  0.00    +0.000 A 
ATOM     16  C   UNL     1       1.655  16.524  19.950  0.00  0.00    +0.000 A 
ATOM     17  C   UNL     1       1.545  15.146  20.197  0.00  0.00    +0.000 A 
BRANCH  17  18
ATOM     18  N   UNL     1       2.516  14.586  21.122  0.00  0.00    +0.000 N 
ATOM     19  O   UNL     1       3.559  14.117  20.650  0.00  0.00    +0.000 OA
ATOM     20  O   UNL     1       2.210  14.598  22.321  0.00  0.00    +0.000 OA
ENDBRANCH  17  18
ENDBRANCH   5  12
BRANCH   1  21
ATOM     21  C   UNL     1      -1.540  12.903  21.635  0.00  0.00    +0.000 C 
ATOM     22  O   UNL     1      -1.188  13.492  22.653  0.00  0.00    +0.000 OA
BRANCH  21  25
ATOM     23  C   UNL     1      -4.846  12.510  19.803  0.00  0.00    +0.000 A 
ATOM     24  C   UNL     1      -3.496  12.807  20.050  0.00  0.00    +0.000 A 
ATOM     25  C   UNL     1      -2.998  12.818  21.349  0.00  0.00    +0.000 A 
ATOM     26  C   UNL     1      -3.889  12.725  22.414  0.00  0.00    +0.000 A 
ATOM     27  C   UNL     1      -5.262  12.540  22.196  0.00  0.00    +0.000 A 
ATOM     28  C   UNL     1      -5.759  12.412  20.878  0.00  0.00    +0.000 A 
BRANCH  23  30
ATOM     29  C   UNL     1      -4.410  11.513  17.698  0.00  0.00    +0.000 C 
ATOM     30  O   UNL     1      -5.270  12.320  18.511  0.00  0.00    +0.000 OA
ENDBRANCH  23  30
BRANCH  27  31
ATOM     31  O   UNL     1      -5.945  12.468  23.385  0.00  0.00    +0.000 OA
ATOM     32  C   UNL     1      -6.590  13.621  23.901  0.00  0.00    +0.000 C 
ENDBRANCH  27  31
BRANCH  28  33
ATOM     33  O   UNL     1      -7.104  12.201  20.774  0.00  0.00    +0.000 OA
ATOM     34  C   UNL     1      -7.651  10.897  20.705  0.00  0.00    +0.000 C 
ENDBRANCH  28  33
ENDBRANCH  21  25
ENDBRANCH   1  21
TORSDOF 8
ENDMDL
MODEL 5
REMARK VINA RESULT:      -6.8      3.848      7.440
REMARK  Name = 
REMARK  11 active torsions:
REMARK  status: ('A' for Active; 'I' for Inactive)
REMARK    1  A    between atoms: C_1  and  O_2
REMARK    2  A    between atoms: O_2  and  C_3
REMARK    3  A    between atoms: C_5  and  C_6
REMARK    4  A    between atoms: C_6  and  C_8
REMARK    5  A    between atoms: N_10  and  C_11
REMARK    6  A    between atoms: C_18  and  C_19
REMARK    7  A    between atoms: C_24  and  N_25
REMARK    8  A    between atoms: C_29  and  O_30
REMARK    9  A    between atoms: O_30  and  C_31
REMARK   10  A    between atoms: C_32  and  O_33
REMARK   11  A    between atoms: O_33  and  C_34
REMARK                            x       y       z     vdW  Elec       q    Type
REMARK                         _______ _______ _______ _____ _____    ______ ____
ROOT
ATOM      1  C   UNL     1       1.507  11.055  18.756  0.00  0.00    +0.000 A 
ATOM      2  C   UNL     1       2.330  11.976  18.111  0.00  0.00    +0.000 A 
ATOM      3  N   UNL     1       2.560  13.065  18.924  0.00  0.00    +0.000 N 
ATOM      4  C   UNL     1       1.809  12.872  20.068  0.00  0.00    +0.000 A 
ATOM      5  C   UNL     1       1.220  11.622  20.043  0.00  0.00    +0.000 A 
ENDROOT
BRANCH   3   6
ATOM      6  C   UNL     1       3.418  14.178  18.657  0.00  0.00    +0.000 A 
ATOM      7  C   UNL     1       4.694  13.991  18.099  0.00  0.00    +0.000 A 
ATOM      8  C   UNL     1       5.533  15.088  17.876  0.00  0.00    +0.000 A 
ATOM      9  C   UNL     1       5.117  16.375  18.206  0.00  0.00    +0.000 A 
ATOM     10  C   UNL     1       3.856  16.572  18.753  0.00  0.00    +0.000 A 
ATOM     11  C   UNL     1       3.006  15.481  18.976  0.00  0.00    +0.000 A 
ENDBRANCH   3   6
BRANCH   5  12
ATOM     12  C   UNL     1       0.433  11.085  21.155  0.00  0.00    +0.000 A 
ATOM     13  C   UNL     1       0.925   9.960  21.839  0.00  0.00    +0.000 A 
ATOM     14  C   UNL     1       0.274   9.445  22.964  0.00  0.00    +0.000 A 
ATOM     15  C   UNL     1      -0.911  10.019  23.415  0.00  0.00    +0.000 A 
ATOM     16  C   UNL     1      -1.451  11.105  22.734  0.00  0.00    +0.000 A 
ATOM     17  C   UNL     1      -0.776  11.630  21.620  0.00  0.00    +0.000 A 
BRANCH  17  18
ATOM     18  N   UNL     1      -1.412  12.761  20.967  0.00  0.00    +0.000 N 
ATOM     19  O   UNL     1      -1.240  13.884  21.458  0.00  0.00    +0.000 OA
ATOM     20  O   UNL     1      -2.106  12.509  19.973  0.00  0.00    +0.000 OA
ENDBRANCH  17  18
ENDBRANCH   5  12
BRANCH   1  21
ATOM     21  C   UNL     1       1.106   9.737  18.239  0.00  0.00    +0.000 C 
ATOM     22  O   UNL     1       0.070   9.572  17.601  0.00  0.00    +0.000 OA
BRANCH  21  25
ATOM     23  C   UNL     1       2.449   6.512  19.732  0.00  0.00    +0.000 A 
ATOM     24  C   UNL     1       1.782   7.742  19.621  0.00  0.00    +0.000 A 
ATOM     25  C   UNL     1       1.959   8.547  18.499  0.00  0.00    +0.000 A 
ATOM     26  C   UNL     1       2.952   8.215  17.582  0.00  0.00    +0.000 A 
ATOM     27  C   UNL     1       3.713   7.046  17.728  0.00  0.00    +0.000 A 
ATOM     28  C   UNL     1       3.457   6.164  18.804  0.00  0.00    +0.000 A 
BRANCH  23  30
ATOM     29  C   UNL     1       1.120   4.677  20.425  0.00  0.00    +0.000 C 
ATOM     30  O   UNL     1       2.116   5.653  20.750  0.00  0.00    +0.000 OA
ENDBRANCH  23  30
BRANCH  27  31
ATOM     31  O   UNL     1       4.622   6.918  16.707  0.00  0.00    +0.000 OA
ATOM     32  C   UNL     1       6.011   6.979  16.986  0.00  0.00    +0.000 C 
ENDBRANCH  27  31
BRANCH  28  33
ATOM     33  O   UNL     1       4.230   5.038  18.839  0.00  0.00    +0.000 OA
ATOM     34  C   UNL     1       3.848   3.851  18.170  0.00  0.00    +0.000 C 
ENDBRANCH  28  33
ENDBRANCH  21  25
ENDBRANCH   1  21
TORSDOF 8
ENDMDL
MODEL 6
REMARK VINA RESULT:      -6.8      2.877      5.285
REMARK  Name = 
REMARK  11 active torsions:
REMARK  status: ('A' for Active; 'I' for Inactive)
REMARK    1  A    between atoms: C_1  and  O_2
REMARK    2  A    between atoms: O_2  and  C_3
REMARK    3  A    between atoms: C_5  and  C_6
REMARK    4  A    between atoms: C_6  and  C_8
REMARK    5  A    between atoms: N_10  and  C_11
REMARK    6  A    between atoms: C_18  and  C_19
REMARK    7  A    between atoms: C_24  and  N_25
REMARK    8  A    between atoms: C_29  and  O_30
REMARK    9  A    between atoms: O_30  and  C_31
REMARK   10  A    between atoms: C_32  and  O_33
REMARK   11  A    between atoms: O_33  and  C_34
REMARK                            x       y       z     vdW  Elec       q    Type
REMARK                         _______ _______ _______ _____ _____    ______ ____
ROOT
ATOM      1  C   UNL     1      -1.316  13.828  20.695  0.00  0.00    +0.000 A 
ATOM      2  C   UNL     1      -0.781  14.911  20.000  0.00  0.00    +0.000 A 
ATOM      3  N   UNL     1       0.496  14.623  19.573  0.00  0.00    +0.000 N 
ATOM      4  C   UNL     1       0.810  13.372  20.072  0.00  0.00    +0.000 A 
ATOM      5  C   UNL     1      -0.296  12.818  20.688  0.00  0.00    +0.000 A 
ENDROOT
BRANCH   3   6
ATOM      6  C   UNL     1       1.342  15.440  18.759  0.00  0.00    +0.000 A 
ATOM      7  C   UNL     1       0.966  16.748  18.410  0.00  0.00    +0.000 A 
ATOM      8  C   UNL     1       1.789  17.523  17.586  0.00  0.00    +0.000 A 
ATOM      9  C   UNL     1       2.987  17.007  17.099  0.00  0.00    +0.000 A 
ATOM     10  C   UNL     1       3.371  15.717  17.441  0.00  0.00    +0.000 A 
ATOM     11  C   UNL     1       2.557  14.936  18.269  0.00  0.00    +0.000 A 
ENDBRANCH   3   6
BRANCH   5  12
ATOM     12  C   UNL     1      -0.310  11.461  21.239  0.00  0.00    +0.000 A 
ATOM     13  C   UNL     1      -0.570  11.300  22.611  0.00  0.00    +0.000 A 
ATOM     14  C   UNL     1      -0.686  10.033  23.190  0.00  0.00    +0.000 A 
ATOM     15  C   UNL     1      -0.508   8.888  22.419  0.00  0.00    +0.000 A 
ATOM     16  C   UNL     1      -0.203   9.011  21.067  0.00  0.00    +0.000 A 
ATOM     17  C   UNL     1      -0.114  10.288  20.490  0.00  0.00    +0.000 A 
BRANCH  17  18
ATOM     18  N   UNL     1       0.212  10.325  19.074  0.00  0.00    +0.000 N 
ATOM     19  O   UNL     1      -0.725  10.401  18.268  0.00  0.00    +0.000 OA
ATOM     20  O   UNL     1       1.411  10.250  18.779  0.00  0.00    +0.000 OA
ENDBRANCH  17  18
ENDBRANCH   5  12
BRANCH   1  21
ATOM     21  C   UNL     1      -2.682  13.730  21.233  0.00  0.00    +0.000 C 
ATOM     22  O   UNL     1      -2.991  14.205  22.323  0.00  0.00    +0.000 OA
BRANCH  21  25
ATOM     23  C   UNL     1      -4.414  11.464  18.723  0.00  0.00    +0.000 A 
ATOM     24  C   UNL     1      -3.445  12.295  19.309  0.00  0.00    +0.000 A 
ATOM     25  C   UNL     1      -3.737  13.023  20.459  0.00  0.00    +0.000 A 
ATOM     26  C   UNL     1      -5.052  13.073  20.910  0.00  0.00    +0.000 A 
ATOM     27  C   UNL     1      -6.065  12.338  20.275  0.00  0.00    +0.000 A 
ATOM     28  C   UNL     1      -5.752  11.505  19.175  0.00  0.00    +0.000 A 
BRANCH  23  30
ATOM     29  C   UNL     1      -4.082  11.185  16.393  0.00  0.00    +0.000 C 
ATOM     30  O   UNL     1      -4.049  10.615  17.707  0.00  0.00    +0.000 OA
ENDBRANCH  23  30
BRANCH  27  31
ATOM     31  O   UNL     1      -7.276  12.532  20.893  0.00  0.00    +0.000 OA
ATOM     32  C   UNL     1      -7.450  12.144  22.245  0.00  0.00    +0.000 C 
ENDBRANCH  27  31
BRANCH  28  33
ATOM     33  O   UNL     1      -6.802  10.808  18.649  0.00  0.00    +0.000 OA
ATOM     34  C   UNL     1      -7.171   9.533  19.140  0.00  0.00    +0.000 C 
ENDBRANCH  28  33
ENDBRANCH  21  25
ENDBRANCH   1  21
TORSDOF 8
ENDMDL
MODEL 7
REMARK VINA RESULT:      -6.7      2.723      5.619
REMARK  Name = 
REMARK  11 active torsions:
REMARK  status: ('A' for Active; 'I' for Inactive)
REMARK    1  A    between atoms: C_1  and  O_2
REMARK    2  A    between atoms: O_2  and  C_3
REMARK    3  A    between atoms: C_5  and  C_6
REMARK    4  A    between atoms: C_6  and  C_8
REMARK    5  A    between atoms: N_10  and  C_11
REMARK    6  A    between atoms: C_18  and  C_19
REMARK    7  A    between atoms: C_24  and  N_25
REMARK    8  A    between atoms: C_29  and  O_30
REMARK    9  A    between atoms: O_30  and  C_31
REMARK   10  A    between atoms: C_32  and  O_33
REMARK   11  A    between atoms: O_33  and  C_34
REMARK                            x       y       z     vdW  Elec       q    Type
REMARK                         _______ _______ _______ _____ _____    ______ ____
ROOT
ATOM      1  C   UNL     1      -0.322  11.715  18.581  0.00  0.00    +0.000 A 
ATOM      2  C   UNL     1      -0.104  13.083  18.440  0.00  0.00    +0.000 A 
ATOM      3  N   UNL     1       1.235  13.372  18.582  0.00  0.00    +0.000 N 
ATOM      4  C   UNL     1       1.867  12.184  18.898  0.00  0.00    +0.000 A 
ATOM      5  C   UNL     1       0.969  11.136  18.824  0.00  0.00    +0.000 A 
ENDROOT
BRANCH   3   6
ATOM      6  C   UNL     1       1.868  14.645  18.422  0.00  0.00    +0.000 A 
ATOM      7  C   UNL     1       1.198  15.834  18.758  0.00  0.00    +0.000 A 
ATOM      8  C   UNL     1       1.818  17.072  18.564  0.00  0.00    +0.000 A 
ATOM      9  C   UNL     1       3.104  17.143  18.034  0.00  0.00    +0.000 A 
ATOM     10  C   UNL     1       3.778  15.974  17.704  0.00  0.00    +0.000 A 
ATOM     11  C   UNL     1       3.167  14.730  17.898  0.00  0.00    +0.000 A 
ENDBRANCH   3   6
BRANCH   5  12
ATOM     12  C   UNL     1       1.353   9.736  19.016  0.00  0.00    +0.000 A 
ATOM     13  C   UNL     1       1.911   9.042  17.929  0.00  0.00    +0.000 A 
ATOM     14  C   UNL     1       2.381   7.732  18.061  0.00  0.00    +0.000 A 
ATOM     15  C   UNL     1       2.273   7.065  19.278  0.00  0.00    +0.000 A 
ATOM     16  C   UNL     1       1.683   7.706  20.363  0.00  0.00    +0.000 A 
ATOM     17  C   UNL     1       1.236   9.030  20.226  0.00  0.00    +0.000 A 
BRANCH  17  18
ATOM     18  N   UNL     1       0.630   9.622  21.407  0.00  0.00    +0.000 N 
ATOM     19  O   UNL     1       1.378  10.165  22.229  0.00  0.00    +0.000 OA
ATOM     20  O   UNL     1      -0.598   9.513  21.512  0.00  0.00    +0.000 OA
ENDBRANCH  17  18
ENDBRANCH   5  12
BRANCH   1  21
ATOM     21  C   UNL     1      -1.609  11.019  18.416  0.00  0.00    +0.000 C 
ATOM     22  O   UNL     1      -1.693   9.921  17.872  0.00  0.00    +0.000 OA
BRANCH  21  25
ATOM     23  C   UNL     1      -5.257  12.027  18.736  0.00  0.00    +0.000 A 
ATOM     24  C   UNL     1      -4.043  11.615  18.165  0.00  0.00    +0.000 A 
ATOM     25  C   UNL     1      -2.863  11.653  18.902  0.00  0.00    +0.000 A 
ATOM     26  C   UNL     1      -2.863  12.286  20.141  0.00  0.00    +0.000 A 
ATOM     27  C   UNL     1      -4.044  12.809  20.689  0.00  0.00    +0.000 A 
ATOM     28  C   UNL     1      -5.268  12.670  19.995  0.00  0.00    +0.000 A 
BRANCH  23  30
ATOM     29  C   UNL     1      -6.786  12.809  17.103  0.00  0.00    +0.000 C 
ATOM     30  O   UNL     1      -6.432  11.804  18.060  0.00  0.00    +0.000 OA
ENDBRANCH  23  30
BRANCH  27  31
ATOM     31  O   UNL     1      -3.808  13.378  21.916  0.00  0.00    +0.000 OA
ATOM     32  C   UNL     1      -2.629  14.135  22.130  0.00  0.00    +0.000 C 
ENDBRANCH  27  31
BRANCH  28  33
ATOM     33  O   UNL     1      -6.365  13.183  20.628  0.00  0.00    +0.000 OA
ATOM     34  C   UNL     1      -6.780  14.521  20.431  0.00  0.00    +0.000 C 
ENDBRANCH  28  33
ENDBRANCH  21  25
ENDBRANCH   1  21
TORSDOF 8
ENDMDL
MODEL 8
REMARK VINA RESULT:      -6.7      3.161      6.335
REMARK  Name = 
REMARK  11 active torsions:
REMARK  status: ('A' for Active; 'I' for Inactive)
REMARK    1  A    between atoms: C_1  and  O_2
REMARK    2  A    between atoms: O_2  and  C_3
REMARK    3  A    between atoms: C_5  and  C_6
REMARK    4  A    between atoms: C_6  and  C_8
REMARK    5  A    between atoms: N_10  and  C_11
REMARK    6  A    between atoms: C_18  and  C_19
REMARK    7  A    between atoms: C_24  and  N_25
REMARK    8  A    between atoms: C_29  and  O_30
REMARK    9  A    between atoms: O_30  and  C_31
REMARK   10  A    between atoms: C_32  and  O_33
REMARK   11  A    between atoms: O_33  and  C_34
REMARK                            x       y       z     vdW  Elec       q    Type
REMARK                         _______ _______ _______ _____ _____    ______ ____
ROOT
ATOM      1  C   UNL     1      -1.800  14.441  21.173  0.00  0.00    +0.000 A 
ATOM      2  C   UNL     1      -1.506  15.592  20.445  0.00  0.00    +0.000 A 
ATOM      3  N   UNL     1      -0.389  15.392  19.664  0.00  0.00    +0.000 N 
ATOM      4  C   UNL     1       0.082  14.126  19.960  0.00  0.00    +0.000 A 
ATOM      5  C   UNL     1      -0.796  13.482  20.811  0.00  0.00    +0.000 A 
ENDROOT
BRANCH   3   6
ATOM      6  C   UNL     1       0.178  16.301  18.716  0.00  0.00    +0.000 A 
ATOM      7  C   UNL     1       1.565  16.350  18.500  0.00  0.00    +0.000 A 
ATOM      8  C   UNL     1       2.106  17.268  17.594  0.00  0.00    +0.000 A 
ATOM      9  C   UNL     1       1.279  18.145  16.898  0.00  0.00    +0.000 A 
ATOM     10  C   UNL     1      -0.095  18.101  17.099  0.00  0.00    +0.000 A 
ATOM     11  C   UNL     1      -0.646  17.183  18.001  0.00  0.00    +0.000 A 
ENDBRANCH   3   6
BRANCH   5  12
ATOM     12  C   UNL     1      -0.622  12.092  21.238  0.00  0.00    +0.000 A 
ATOM     13  C   UNL     1      -0.787  11.787  22.600  0.00  0.00    +0.000 A 
ATOM     14  C   UNL     1      -0.724  10.471  23.067  0.00  0.00    +0.000 A 
ATOM     15  C   UNL     1      -0.456   9.424  22.190  0.00  0.00    +0.000 A 
ATOM     16  C   UNL     1      -0.240   9.696  20.843  0.00  0.00    +0.000 A 
ATOM     17  C   UNL     1      -0.331  11.018  20.379  0.00  0.00    +0.000 A 
BRANCH  17  18
ATOM     18  N   UNL     1      -0.089  11.212  18.959  0.00  0.00    +0.000 N 
ATOM     19  O   UNL     1      -1.072  11.322  18.216  0.00  0.00    +0.000 OA
ATOM     20  O   UNL     1       1.094  11.227  18.596  0.00  0.00    +0.000 OA
ENDBRANCH  17  18
ENDBRANCH   5  12
BRANCH   1  21
ATOM     21  C   UNL     1      -2.962  14.244  22.056  0.00  0.00    +0.000 C 
ATOM     22  O   UNL     1      -3.037  14.768  23.164  0.00  0.00    +0.000 OA
BRANCH  21  25
ATOM     23  C   UNL     1      -6.200  12.258  22.050  0.00  0.00    +0.000 A 
ATOM     24  C   UNL     1      -5.038  12.893  22.515  0.00  0.00    +0.000 A 
ATOM     25  C   UNL     1      -4.086  13.373  21.620  0.00  0.00    +0.000 A 
ATOM     26  C   UNL     1      -4.201  13.045  20.273  0.00  0.00    +0.000 A 
ATOM     27  C   UNL     1      -5.299  12.314  19.796  0.00  0.00    +0.000 A 
ATOM     28  C   UNL     1      -6.329  11.923  20.683  0.00  0.00    +0.000 A 
BRANCH  23  30
ATOM     29  C   UNL     1      -7.496  12.988  23.896  0.00  0.00    +0.000 C 
ATOM     30  O   UNL     1      -7.208  11.965  22.935  0.00  0.00    +0.000 OA
ENDBRANCH  23  30
BRANCH  27  31
ATOM     31  O   UNL     1      -5.207  12.114  18.441  0.00  0.00    +0.000 OA
ATOM     32  C   UNL     1      -4.555  10.960  17.938  0.00  0.00    +0.000 C 
ENDBRANCH  27  31
BRANCH  28  33
ATOM     33  O   UNL     1      -7.369  11.243  20.115  0.00  0.00    +0.000 OA
ATOM     34  C   UNL     1      -7.424   9.829  20.116  0.00  0.00    +0.000 C 
ENDBRANCH  28  33
ENDBRANCH  21  25
ENDBRANCH   1  21
TORSDOF 8
ENDMDL
MODEL 9
REMARK VINA RESULT:      -6.7      2.723      5.899
REMARK  Name = 
REMARK  11 active torsions:
REMARK  status: ('A' for Active; 'I' for Inactive)
REMARK    1  A    between atoms: C_1  and  O_2
REMARK    2  A    between atoms: O_2  and  C_3
REMARK    3  A    between atoms: C_5  and  C_6
REMARK    4  A    between atoms: C_6  and  C_8
REMARK    5  A    between atoms: N_10  and  C_11
REMARK    6  A    between atoms: C_18  and  C_19
REMARK    7  A    between atoms: C_24  and  N_25
REMARK    8  A    between atoms: C_29  and  O_30
REMARK    9  A    between atoms: O_30  and  C_31
REMARK   10  A    between atoms: C_32  and  O_33
REMARK   11  A    between atoms: O_33  and  C_34
REMARK                            x       y       z     vdW  Elec       q    Type
REMARK                         _______ _______ _______ _____ _____    ______ ____
ROOT
ATOM      1  C   UNL     1      -0.297  11.720  18.568  0.00  0.00    +0.000 A 
ATOM      2  C   UNL     1      -0.071  13.088  18.429  0.00  0.00    +0.000 A 
ATOM      3  N   UNL     1       1.269  13.370  18.580  0.00  0.00    +0.000 N 
ATOM      4  C   UNL     1       1.892  12.178  18.900  0.00  0.00    +0.000 A 
ATOM      5  C   UNL     1       0.989  11.135  18.819  0.00  0.00    +0.000 A 
ENDROOT
BRANCH   3   6
ATOM      6  C   UNL     1       1.909  14.640  18.426  0.00  0.00    +0.000 A 
ATOM      7  C   UNL     1       1.246  15.831  18.768  0.00  0.00    +0.000 A 
ATOM      8  C   UNL     1       1.874  17.066  18.579  0.00  0.00    +0.000 A 
ATOM      9  C   UNL     1       3.159  17.132  18.047  0.00  0.00    +0.000 A 
ATOM     10  C   UNL     1       3.825  15.961  17.710  0.00  0.00    +0.000 A 
ATOM     11  C   UNL     1       3.207  14.719  17.899  0.00  0.00    +0.000 A 
ENDBRANCH   3   6
BRANCH   5  12
ATOM     12  C   UNL     1       1.365   9.733  19.013  0.00  0.00    +0.000 A 
ATOM     13  C   UNL     1       1.933   9.039  17.931  0.00  0.00    +0.000 A 
ATOM     14  C   UNL     1       2.396   7.726  18.067  0.00  0.00    +0.000 A 
ATOM     15  C   UNL     1       2.270   7.057  19.280  0.00  0.00    +0.000 A 
ATOM     16  C   UNL     1       1.671   7.699  20.360  0.00  0.00    +0.000 A 
ATOM     17  C   UNL     1       1.231   9.025  20.220  0.00  0.00    +0.000 A 
BRANCH  17  18
ATOM     18  N   UNL     1       0.614   9.617  21.395  0.00  0.00    +0.000 N 
ATOM     19  O   UNL     1      -0.614   9.517  21.515  0.00  0.00    +0.000 OA
ATOM     20  O   UNL     1       1.368  10.205  22.180  0.00  0.00    +0.000 OA
ENDBRANCH  17  18
ENDBRANCH   5  12
BRANCH   1  21
ATOM     21  C   UNL     1      -1.586  11.030  18.394  0.00  0.00    +0.000 C 
ATOM     22  O   UNL     1      -1.698  10.015  17.713  0.00  0.00    +0.000 OA
BRANCH  21  25
ATOM     23  C   UNL     1      -3.901  12.829  20.811  0.00  0.00    +0.000 A 
ATOM     24  C   UNL     1      -2.787  12.134  20.314  0.00  0.00    +0.000 A 
ATOM     25  C   UNL     1      -2.811  11.572  19.041  0.00  0.00    +0.000 A 
ATOM     26  C   UNL     1      -4.014  11.536  18.342  0.00  0.00    +0.000 A 
ATOM     27  C   UNL     1      -5.174  12.127  18.865  0.00  0.00    +0.000 A 
ATOM     28  C   UNL     1      -5.127  12.800  20.108  0.00  0.00    +0.000 A 
BRANCH  23  30
ATOM     29  C   UNL     1      -3.390  12.761  23.123  0.00  0.00    +0.000 C 
ATOM     30  O   UNL     1      -3.789  13.533  21.985  0.00  0.00    +0.000 OA
ENDBRANCH  23  30
BRANCH  27  31
ATOM     31  O   UNL     1      -6.234  11.977  18.005  0.00  0.00    +0.000 OA
ATOM     32  C   UNL     1      -6.481  12.955  17.009  0.00  0.00    +0.000 C 
ENDBRANCH  27  31
BRANCH  28  33
ATOM     33  O   UNL     1      -6.301  13.369  20.513  0.00  0.00    +0.000 OA
ATOM     34  C   UNL     1      -6.600  14.728  20.252  0.00  0.00    +0.000 C 
ENDBRANCH  28  33
ENDBRANCH  21  25
ENDBRANCH   1  21
TORSDOF 8
ENDMDL
