MODEL 1
REMARK VINA RESULT:      -6.9      0.000      0.000
REMARK  Name = 
REMARK  1 active torsions:
REMARK  status: ('A' for Active; 'I' for Inactive)
REMARK    1  A    between atoms: C_4  and  N_5
REMARK                            x       y       z     vdW  Elec       q    Type
REMARK                         _______ _______ _______ _____ _____    ______ ____
ROOT
ATOM      1  N   UNL     1       3.323   4.918  17.427  0.00  0.00    +0.000 N 
ATOM      2  C   UNL     1       4.633   5.335  17.700  0.00  0.00    +0.000 A 
ATOM      3  N   UNL     1       5.372   4.687  18.631  0.00  0.00    +0.000 NA
ATOM      4  C   UNL     1       6.585   5.165  18.998  0.00  0.00    +0.000 A 
ATOM      5  C   UNL     1       7.056   6.320  18.402  0.00  0.00    +0.000 A 
ATOM      6  N   UNL     1       8.193   7.070  18.573  0.00  0.00    +0.000 NA
ATOM      7  C   UNL     1       8.063   8.070  17.728  0.00  0.00    +0.000 A 
ATOM      8  N   UNL     1       6.903   7.982  17.004  0.00  0.00    +0.000 N 
ATOM      9  C   UNL     1       6.235   6.873  17.437  0.00  0.00    +0.000 A 
ATOM     10  N   UNL     1       5.035   6.435  17.026  0.00  0.00    +0.000 NA
ATOM     11  H   UNL     1       2.910   5.605  16.810  0.00  0.00    +0.000 HD
ATOM     12  H   UNL     1       6.577   8.623  16.298  0.00  0.00    +0.000 HD
ENDROOT
BRANCH   1  16
ATOM     13  C   UNL     1       0.672   2.992  20.104  0.00  0.00    +0.000 A 
ATOM     14  C   UNL     1       1.146   4.274  20.367  0.00  0.00    +0.000 A 
ATOM     15  C   UNL     1       1.999   4.911  19.458  0.00  0.00    +0.000 A 
ATOM     16  C   UNL     1       2.414   4.267  18.283  0.00  0.00    +0.000 A 
ATOM     17  C   UNL     1       1.870   3.005  18.011  0.00  0.00    +0.000 A 
ATOM     18  C   UNL     1       1.025   2.362  18.917  0.00  0.00    +0.000 A 
ENDBRANCH   1  16
TORSDOF 1
ENDMDL
MODEL 2
REMARK VINA RESULT:      -6.9      0.091      1.202
REMARK  Name = 
REMARK  1 active torsions:
REMARK  status: ('A' for Active; 'I' for Inactive)
REMARK    1  A    between atoms: C_4  and  N_5
REMARK                            x       y       z     vdW  Elec       q    Type
REMARK                         _______ _______ _______ _____ _____    ______ ____
ROOT
ATOM      1  N   UNL     1       3.343   4.921  17.466  0.00  0.00    +0.000 N 
ATOM      2  C   UNL     1       4.653   5.351  17.721  0.00  0.00    +0.000 A 
ATOM      3  N   UNL     1       5.411   4.710  18.641  0.00  0.00    +0.000 NA
ATOM      4  C   UNL     1       6.624   5.200  18.992  0.00  0.00    +0.000 A 
ATOM      5  C   UNL     1       7.075   6.360  18.391  0.00  0.00    +0.000 A 
ATOM      6  N   UNL     1       8.207   7.121  18.546  0.00  0.00    +0.000 NA
ATOM      7  C   UNL     1       8.055   8.120  17.703  0.00  0.00    +0.000 A 
ATOM      8  N   UNL     1       6.886   8.020  16.995  0.00  0.00    +0.000 N 
ATOM      9  C   UNL     1       6.236   6.905  17.436  0.00  0.00    +0.000 A 
ATOM     10  N   UNL     1       5.034   6.455  17.042  0.00  0.00    +0.000 NA
ATOM     11  H   UNL     1       2.916   5.604  16.854  0.00  0.00    +0.000 HD
ATOM     12  H   UNL     1       6.545   8.659  16.294  0.00  0.00    +0.000 HD
ENDROOT
BRANCH   1  16
ATOM     13  C   UNL     1       0.589   2.905  19.964  0.00  0.00    +0.000 A 
ATOM     14  C   UNL     1       1.061   2.311  18.797  0.00  0.00    +0.000 A 
ATOM     15  C   UNL     1       1.994   2.978  17.995  0.00  0.00    +0.000 A 
ATOM     16  C   UNL     1       2.453   4.260  18.333  0.00  0.00    +0.000 A 
ATOM     17  C   UNL     1       2.013   4.805  19.545  0.00  0.00    +0.000 A 
ATOM     18  C   UNL     1       1.076   4.148  20.346  0.00  0.00    +0.000 A 
ENDBRANCH   1  16
TORSDOF 1
ENDMDL
MODEL 3
REMARK VINA RESULT:      -6.8      2.383      2.783
REMARK  Name = 
REMARK  1 active torsions:
REMARK  status: ('A' for Active; 'I' for Inactive)
REMARK    1  A    between atoms: C_4  and  N_5
REMARK                            x       y       z     vdW  Elec       q    Type
REMARK                         _______ _______ _______ _____ _____    ______ ____
ROOT
ATOM      1  N   UNL     1       3.899   2.578  17.989  0.00  0.00    +0.000 N 
ATOM      2  C   UNL     1       4.917   3.349  17.412  0.00  0.00    +0.000 A 
ATOM      3  N   UNL     1       5.562   4.282  18.150  0.00  0.00    +0.000 NA
ATOM      4  C   UNL     1       6.450   5.123  17.568  0.00  0.00    +0.000 A 
ATOM      5  C   UNL     1       6.689   5.008  16.211  0.00  0.00    +0.000 A 
ATOM      6  N   UNL     1       7.475   5.710  15.331  0.00  0.00    +0.000 NA
ATOM      7  C   UNL     1       7.266   5.135  14.167  0.00  0.00    +0.000 A 
ATOM      8  N   UNL     1       6.399   4.078  14.264  0.00  0.00    +0.000 N 
ATOM      9  C   UNL     1       6.005   3.993  15.568  0.00  0.00    +0.000 A 
ATOM     10  N   UNL     1       5.128   3.126  16.097  0.00  0.00    +0.000 NA
ATOM     11  H   UNL     1       3.466   2.045  17.246  0.00  0.00    +0.000 HD
ATOM     12  H   UNL     1       6.082   3.482  13.516  0.00  0.00    +0.000 HD
ENDROOT
BRANCH   1  16
ATOM     13  C   UNL     1       1.337   3.454  21.239  0.00  0.00    +0.000 A 
ATOM     14  C   UNL     1       2.545   2.794  21.441  0.00  0.00    +0.000 A 
ATOM     15  C   UNL     1       3.396   2.537  20.360  0.00  0.00    +0.000 A 
ATOM     16  C   UNL     1       3.043   2.912  19.055  0.00  0.00    +0.000 A 
ATOM     17  C   UNL     1       1.854   3.633  18.891  0.00  0.00    +0.000 A 
ATOM     18  C   UNL     1       0.997   3.886  19.964  0.00  0.00    +0.000 A 
ENDBRANCH   1  16
TORSDOF 1
ENDMDL
MODEL 4
REMARK VINA RESULT:      -6.8      1.680      6.241
REMARK  Name = 
REMARK  1 active torsions:
REMARK  status: ('A' for Active; 'I' for Inactive)
REMARK    1  A    between atoms: C_4  and  N_5
REMARK                            x       y       z     vdW  Elec       q    Type
REMARK                         _______ _______ _______ _____ _____    ______ ____
ROOT
ATOM      1  N   UNL     1       5.331   4.780  17.043  0.00  0.00    +0.000 N 
ATOM      2  C   UNL     1       4.072   4.515  17.599  0.00  0.00    +0.000 A 
ATOM      3  N   UNL     1       3.432   5.468  18.315  0.00  0.00    +0.000 NA
ATOM      4  C   UNL     1       2.282   5.178  18.968  0.00  0.00    +0.000 A 
ATOM      5  C   UNL     1       1.771   3.896  18.886  0.00  0.00    +0.000 A 
ATOM      6  N   UNL     1       0.680   3.280  19.446  0.00  0.00    +0.000 NA
ATOM      7  C   UNL     1       0.734   2.041  19.007  0.00  0.00    +0.000 A 
ATOM      8  N   UNL     1       1.799   1.841  18.169  0.00  0.00    +0.000 N 
ATOM      9  C   UNL     1       2.487   3.017  18.093  0.00  0.00    +0.000 A 
ATOM     10  N   UNL     1       3.621   3.255  17.416  0.00  0.00    +0.000 NA
ATOM     11  H   UNL     1       5.685   3.909  16.668  0.00  0.00    +0.000 HD
ATOM     12  H   UNL     1       2.055   0.982  17.706  0.00  0.00    +0.000 HD
ENDROOT
BRANCH   1  16
ATOM     13  C   UNL     1       8.256   7.450  18.530  0.00  0.00    +0.000 A 
ATOM     14  C   UNL     1       8.107   6.179  19.077  0.00  0.00    +0.000 A 
ATOM     15  C   UNL     1       7.155   5.295  18.555  0.00  0.00    +0.000 A 
ATOM     16  C   UNL     1       6.318   5.676  17.495  0.00  0.00    +0.000 A 
ATOM     17  C   UNL     1       6.535   6.935  16.922  0.00  0.00    +0.000 A 
ATOM     18  C   UNL     1       7.478   7.824  17.442  0.00  0.00    +0.000 A 
ENDBRANCH   1  16
TORSDOF 1
ENDMDL
MODEL 5
REMARK VINA RESULT:      -6.7      2.345      2.781
REMARK  Name = 
REMARK  1 active torsions:
REMARK  status: ('A' for Active; 'I' for Inactive)
REMARK    1  A    between atoms: C_4  and  N_5
REMARK                            x       y       z     vdW  Elec       q    Type
REMARK                         _______ _______ _______ _____ _____    ______ ____
ROOT
ATOM      1  N   UNL     1       3.882   2.538  17.982  0.00  0.00    +0.000 N 
ATOM      2  C   UNL     1       4.900   3.322  17.421  0.00  0.00    +0.000 A 
ATOM      3  N   UNL     1       5.549   4.235  18.180  0.00  0.00    +0.000 NA
ATOM      4  C   UNL     1       6.437   5.088  17.617  0.00  0.00    +0.000 A 
ATOM      5  C   UNL     1       6.672   5.007  16.257  0.00  0.00    +0.000 A 
ATOM      6  N   UNL     1       7.456   5.729  15.393  0.00  0.00    +0.000 NA
ATOM      7  C   UNL     1       7.242   5.185  14.215  0.00  0.00    +0.000 A 
ATOM      8  N   UNL     1       6.374   4.127  14.288  0.00  0.00    +0.000 N 
ATOM      9  C   UNL     1       5.984   4.009  15.591  0.00  0.00    +0.000 A 
ATOM     10  N   UNL     1       5.106   3.131  16.100  0.00  0.00    +0.000 NA
ATOM     11  H   UNL     1       3.446   2.025  17.227  0.00  0.00    +0.000 HD
ATOM     12  H   UNL     1       6.054   3.550  13.526  0.00  0.00    +0.000 HD
ENDROOT
BRANCH   1  16
ATOM     13  C   UNL     1       1.307   3.593  21.168  0.00  0.00    +0.000 A 
ATOM     14  C   UNL     1       0.960   3.870  19.849  0.00  0.00    +0.000 A 
ATOM     15  C   UNL     1       1.808   3.489  18.803  0.00  0.00    +0.000 A 
ATOM     16  C   UNL     1       3.030   2.847  19.059  0.00  0.00    +0.000 A 
ATOM     17  C   UNL     1       3.322   2.522  20.389  0.00  0.00    +0.000 A 
ATOM     18  C   UNL     1       2.483   2.906  21.437  0.00  0.00    +0.000 A 
ENDBRANCH   1  16
TORSDOF 1
ENDMDL
MODEL 6
REMARK VINA RESULT:      -6.7      1.655      6.245
REMARK  Name = 
REMARK  1 active torsions:
REMARK  status: ('A' for Active; 'I' for Inactive)
REMARK    1  A    between atoms: C_4  and  N_5
REMARK                            x       y       z     vdW  Elec       q    Type
REMARK                         _______ _______ _______ _____ _____    ______ ____
ROOT
ATOM      1  N   UNL     1       5.286   4.842  17.135  0.00  0.00    +0.000 N 
ATOM      2  C   UNL     1       4.031   4.549  17.687  0.00  0.00    +0.000 A 
ATOM      3  N   UNL     1       3.387   5.473  18.438  0.00  0.00    +0.000 NA
ATOM      4  C   UNL     1       2.242   5.153  19.086  0.00  0.00    +0.000 A 
ATOM      5  C   UNL     1       1.740   3.871  18.961  0.00  0.00    +0.000 A 
ATOM      6  N   UNL     1       0.655   3.229  19.504  0.00  0.00    +0.000 NA
ATOM      7  C   UNL     1       0.715   2.006  19.022  0.00  0.00    +0.000 A 
ATOM      8  N   UNL     1       1.779   1.842  18.173  0.00  0.00    +0.000 N 
ATOM      9  C   UNL     1       2.458   3.025  18.136  0.00  0.00    +0.000 A 
ATOM     10  N   UNL     1       3.587   3.294  17.463  0.00  0.00    +0.000 NA
ATOM     11  H   UNL     1       5.644   3.987  16.730  0.00  0.00    +0.000 HD
ATOM     12  H   UNL     1       2.038   1.002  17.680  0.00  0.00    +0.000 HD
ENDROOT
BRANCH   1  16
ATOM     13  C   UNL     1       8.279   7.530  18.446  0.00  0.00    +0.000 A 
ATOM     14  C   UNL     1       7.413   7.875  17.412  0.00  0.00    +0.000 A 
ATOM     15  C   UNL     1       6.409   6.987  17.009  0.00  0.00    +0.000 A 
ATOM     16  C   UNL     1       6.269   5.729  17.615  0.00  0.00    +0.000 A 
ATOM     17  C   UNL     1       7.109   5.435  18.695  0.00  0.00    +0.000 A 
ATOM     18  C   UNL     1       8.118   6.313  19.097  0.00  0.00    +0.000 A 
ENDBRANCH   1  16
TORSDOF 1
ENDMDL
MODEL 7
REMARK VINA RESULT:      -6.6      2.093      6.328
REMARK  Name = 
REMARK  1 active torsions:
REMARK  status: ('A' for Active; 'I' for Inactive)
REMARK    1  A    between atoms: C_4  and  N_5
REMARK                            x       y       z     vdW  Elec       q    Type
REMARK                         _______ _______ _______ _____ _____    ______ ____
ROOT
ATOM      1  N   UNL     1       6.013   4.118  18.724  0.00  0.00    +0.000 N 
ATOM      2  C   UNL     1       4.685   3.942  19.135  0.00  0.00    +0.000 A 
ATOM      3  N   UNL     1       3.713   4.755  18.658  0.00  0.00    +0.000 NA
ATOM      4  C   UNL     1       2.454   4.680  19.151  0.00  0.00    +0.000 A 
ATOM      5  C   UNL     1       2.178   3.758  20.143  0.00  0.00    +0.000 A 
ATOM      6  N   UNL     1       1.049   3.463  20.865  0.00  0.00    +0.000 NA
ATOM      7  C   UNL     1       1.417   2.497  21.678  0.00  0.00    +0.000 A 
ATOM      8  N   UNL     1       2.727   2.141  21.493  0.00  0.00    +0.000 N 
ATOM      9  C   UNL     1       3.237   2.953  20.522  0.00  0.00    +0.000 A 
ATOM     10  N   UNL     1       4.496   2.975  20.059  0.00  0.00    +0.000 NA
ATOM     11  H   UNL     1       6.587   3.506  19.288  0.00  0.00    +0.000 HD
ATOM     12  H   UNL     1       3.240   1.431  21.991  0.00  0.00    +0.000 HD
ENDROOT
BRANCH   1  16
ATOM     13  C   UNL     1       7.902   7.720  17.560  0.00  0.00    +0.000 A 
ATOM     14  C   UNL     1       8.245   7.087  18.751  0.00  0.00    +0.000 A 
ATOM     15  C   UNL     1       7.633   5.881  19.109  0.00  0.00    +0.000 A 
ATOM     16  C   UNL     1       6.649   5.299  18.295  0.00  0.00    +0.000 A 
ATOM     17  C   UNL     1       6.372   5.921  17.072  0.00  0.00    +0.000 A 
ATOM     18  C   UNL     1       6.974   7.129  16.712  0.00  0.00    +0.000 A 
ENDBRANCH   1  16
TORSDOF 1
ENDMDL
MODEL 8
REMARK VINA RESULT:      -6.6      1.023      1.212
REMARK  Name = 
REMARK  1 active torsions:
REMARK  status: ('A' for Active; 'I' for Inactive)
REMARK    1  A    between atoms: C_4  and  N_5
REMARK                            x       y       z     vdW  Elec       q    Type
REMARK                         _______ _______ _______ _____ _____    ______ ____
ROOT
ATOM      1  N   UNL     1       4.289   4.465  16.764  0.00  0.00    +0.000 N 
ATOM      2  C   UNL     1       5.425   5.097  17.291  0.00  0.00    +0.000 A 
ATOM      3  N   UNL     1       6.035   4.592  18.388  0.00  0.00    +0.000 NA
ATOM      4  C   UNL     1       7.047   5.268  18.982  0.00  0.00    +0.000 A 
ATOM      5  C   UNL     1       7.448   6.477  18.446  0.00  0.00    +0.000 A 
ATOM      6  N   UNL     1       8.386   7.407  18.819  0.00  0.00    +0.000 NA
ATOM      7  C   UNL     1       8.287   8.360  17.918  0.00  0.00    +0.000 A 
ATOM      8  N   UNL     1       7.343   8.073  16.968  0.00  0.00    +0.000 N 
ATOM      9  C   UNL     1       6.781   6.874  17.301  0.00  0.00    +0.000 A 
ATOM     10  N   UNL     1       5.785   6.239  16.666  0.00  0.00    +0.000 NA
ATOM     11  H   UNL     1       3.918   5.066  16.040  0.00  0.00    +0.000 HD
ATOM     12  H   UNL     1       7.083   8.642  16.178  0.00  0.00    +0.000 HD
ENDROOT
BRANCH   1  16
ATOM     13  C   UNL     1       1.387   2.220  18.870  0.00  0.00    +0.000 A 
ATOM     14  C   UNL     1       1.125   3.526  18.467  0.00  0.00    +0.000 A 
ATOM     15  C   UNL     1       2.083   4.247  17.746  0.00  0.00    +0.000 A 
ATOM     16  C   UNL     1       3.330   3.683  17.436  0.00  0.00    +0.000 A 
ATOM     17  C   UNL     1       3.542   2.347  17.795  0.00  0.00    +0.000 A 
ATOM     18  C   UNL     1       2.592   1.625  18.521  0.00  0.00    +0.000 A 
ENDBRANCH   1  16
TORSDOF 1
ENDMDL
MODEL 9
REMARK VINA RESULT:      -6.4      2.658      6.150
REMARK  Name = 
REMARK  1 active torsions:
REMARK  status: ('A' for Active; 'I' for Inactive)
REMARK    1  A    between atoms: C_4  and  N_5
REMARK                            x       y       z     vdW  Elec       q    Type
REMARK                         _______ _______ _______ _____ _____    ______ ____
ROOT
ATOM      1  N   UNL     1       5.171   3.342  17.829  0.00  0.00    +0.000 N 
ATOM      2  C   UNL     1       3.965   3.114  18.506  0.00  0.00    +0.000 A 
ATOM      3  N   UNL     1       2.788   3.202  17.844  0.00  0.00    +0.000 NA
ATOM      4  C   UNL     1       1.615   3.118  18.517  0.00  0.00    +0.000 A 
ATOM      5  C   UNL     1       1.642   2.934  19.886  0.00  0.00    +0.000 A 
ATOM      6  N   UNL     1       0.662   2.851  20.844  0.00  0.00    +0.000 NA
ATOM      7  C   UNL     1       1.314   2.693  21.975  0.00  0.00    +0.000 A 
ATOM      8  N   UNL     1       2.670   2.645  21.783  0.00  0.00    +0.000 N 
ATOM      9  C   UNL     1       2.900   2.816  20.449  0.00  0.00    +0.000 A 
ATOM     10  N   UNL     1       4.089   2.878  19.830  0.00  0.00    +0.000 NA
ATOM     11  H   UNL     1       5.908   3.357  18.522  0.00  0.00    +0.000 HD
ATOM     12  H   UNL     1       3.380   2.531  22.490  0.00  0.00    +0.000 HD
ENDROOT
BRANCH   1  16
ATOM     13  C   UNL     1       5.742   5.820  14.448  0.00  0.00    +0.000 A 
ATOM     14  C   UNL     1       5.258   6.344  15.643  0.00  0.00    +0.000 A 
ATOM     15  C   UNL     1       5.101   5.518  16.762  0.00  0.00    +0.000 A 
ATOM     16  C   UNL     1       5.403   4.149  16.699  0.00  0.00    +0.000 A 
ATOM     17  C   UNL     1       5.951   3.663  15.506  0.00  0.00    +0.000 A 
ATOM     18  C   UNL     1       6.102   4.480  14.383  0.00  0.00    +0.000 A 
ENDBRANCH   1  16
TORSDOF 1
ENDMDL
