MODEL 1
REMARK VINA RESULT:      -7.4      0.000      0.000
REMARK  Name = 
REMARK  6 active torsions:
REMARK  status: ('A' for Active; 'I' for Inactive)
REMARK    1  A    between atoms: C_1  and  O_2
REMARK    2  A    between atoms: O_2  and  C_3
REMARK    3  A    between atoms: C_6  and  N_7
REMARK    4  A    between atoms: C_11  and  C_13
REMARK    5  A    between atoms: C_13  and  C_14
REMARK    6  A    between atoms: C_13  and  N_15
REMARK                            x       y       z     vdW  Elec       q    Type
REMARK                         _______ _______ _______ _____ _____    ______ ____
ROOT
ATOM      1  N   UNL     1       1.816   7.181  20.560  0.00  0.00    +0.000 N 
ATOM      2  C   UNL     1       1.285   5.932  21.138  0.00  0.00    +0.000 C 
ATOM      3  C   UNL     1       0.880   4.927  20.043  0.00  0.00    +0.000 C 
ATOM      4  N   UNL     1       1.959   4.718  19.057  0.00  0.00    +0.000 N 
ATOM      5  C   UNL     1       2.546   3.472  18.971  0.00  0.00    +0.000 C 
ATOM      6  O   UNL     1       2.233   2.599  19.797  0.00  0.00    +0.000 OA
ATOM      7  C   UNL     1       2.428   5.969  18.457  0.00  0.00    +0.000 C 
ATOM      8  C   UNL     1       2.867   6.994  19.535  0.00  0.00    +0.000 C 
ENDROOT
BRANCH   1  12
ATOM      9  C   UNL     1      -0.394  10.789  20.451  0.00  0.00    +0.000 A 
ATOM     10  C   UNL     1       0.422  10.416  19.389  0.00  0.00    +0.000 A 
ATOM     11  C   UNL     1       1.138   9.211  19.437  0.00  0.00    +0.000 A 
ATOM     12  C   UNL     1       1.080   8.357  20.549  0.00  0.00    +0.000 A 
ATOM     13  C   UNL     1       0.287   8.779  21.624  0.00  0.00    +0.000 A 
ATOM     14  C   UNL     1      -0.447   9.973  21.579  0.00  0.00    +0.000 A 
BRANCH   9  16
ATOM     15  C   UNL     1      -2.136  11.968  19.385  0.00  0.00    +0.000 C 
ATOM     16  O   UNL     1      -1.050  11.980  20.304  0.00  0.00    +0.000 OA
ENDBRANCH   9  16
ENDBRANCH   1  12
BRANCH   5  17
ATOM     17  C   UNL     1       3.688   3.120  17.982  0.00  0.00    +0.000 C 
ATOM     18  C   UNL     1       4.019   1.623  18.010  0.00  0.00    +0.000 C 
BRANCH  17  19
ATOM     19  N   UNL     1       4.864   3.985  17.834  0.00  0.00    +0.000 N 
ATOM     20  C   UNL     1       5.736   4.335  18.818  0.00  0.00    +0.000 C 
ATOM     21  O   UNL     1       5.538   4.298  20.025  0.00  0.00    +0.000 OA
ATOM     22  C   UNL     1       7.083   4.641  18.205  0.00  0.00    +0.000 C 
ATOM     23  C   UNL     1       7.832   5.775  18.892  0.00  0.00    +0.000 C 
ATOM     24  C   UNL     1       7.917   7.048  18.120  0.00  0.00    +0.000 C 
ATOM     25  C   UNL     1       7.589   7.166  16.831  0.00  0.00    +0.000 C 
ATOM     26  C   UNL     1       7.093   6.041  15.982  0.00  0.00    +0.000 C 
ATOM     27  C   UNL     1       6.804   4.730  16.709  0.00  0.00    +0.000 C 
ATOM     28  C   UNL     1       5.361   4.295  16.590  0.00  0.00    +0.000 C 
ATOM     29  O   UNL     1       4.768   4.176  15.530  0.00  0.00    +0.000 OA
ENDBRANCH  17  19
ENDBRANCH   5  17
TORSDOF 4
ENDMDL
MODEL 2
REMARK VINA RESULT:      -7.3      0.484      1.054
REMARK  Name = 
REMARK  6 active torsions:
REMARK  status: ('A' for Active; 'I' for Inactive)
REMARK    1  A    between atoms: C_1  and  O_2
REMARK    2  A    between atoms: O_2  and  C_3
REMARK    3  A    between atoms: C_6  and  N_7
REMARK    4  A    between atoms: C_11  and  C_13
REMARK    5  A    between atoms: C_13  and  C_14
REMARK    6  A    between atoms: C_13  and  N_15
REMARK                            x       y       z     vdW  Elec       q    Type
REMARK                         _______ _______ _______ _____ _____    ______ ____
ROOT
ATOM      1  N   UNL     1       1.817   7.167  20.600  0.00  0.00    +0.000 N 
ATOM      2  C   UNL     1       1.285   5.909  21.156  0.00  0.00    +0.000 C 
ATOM      3  C   UNL     1       0.874   4.925  20.043  0.00  0.00    +0.000 C 
ATOM      4  N   UNL     1       1.950   4.732  19.051  0.00  0.00    +0.000 N 
ATOM      5  C   UNL     1       2.534   3.486  18.940  0.00  0.00    +0.000 C 
ATOM      6  O   UNL     1       2.221   2.599  19.751  0.00  0.00    +0.000 OA
ATOM      7  C   UNL     1       2.420   5.993  18.472  0.00  0.00    +0.000 C 
ATOM      8  C   UNL     1       2.865   6.996  19.568  0.00  0.00    +0.000 C 
ENDROOT
BRANCH   1  12
ATOM      9  C   UNL     1      -0.451  10.738  20.713  0.00  0.00    +0.000 A 
ATOM     10  C   UNL     1      -0.466   9.845  21.779  0.00  0.00    +0.000 A 
ATOM     11  C   UNL     1       0.301   8.673  21.729  0.00  0.00    +0.000 A 
ATOM     12  C   UNL     1       1.084   8.345  20.612  0.00  0.00    +0.000 A 
ATOM     13  C   UNL     1       1.045   9.238  19.534  0.00  0.00    +0.000 A 
ATOM     14  C   UNL     1       0.296  10.423  19.580  0.00  0.00    +0.000 A 
BRANCH   9  16
ATOM     15  C   UNL     1      -0.944  12.649  22.005  0.00  0.00    +0.000 C 
ATOM     16  O   UNL     1      -1.231  11.851  20.862  0.00  0.00    +0.000 OA
ENDBRANCH   9  16
ENDBRANCH   1  12
BRANCH   5  17
ATOM     17  C   UNL     1       3.673   3.150  17.942  0.00  0.00    +0.000 C 
ATOM     18  C   UNL     1       3.993   1.650  17.934  0.00  0.00    +0.000 C 
BRANCH  17  19
ATOM     19  N   UNL     1       4.854   4.010  17.813  0.00  0.00    +0.000 N 
ATOM     20  C   UNL     1       5.725   4.336  18.806  0.00  0.00    +0.000 C 
ATOM     21  O   UNL     1       5.523   4.279  20.012  0.00  0.00    +0.000 OA
ATOM     22  C   UNL     1       7.077   4.645  18.203  0.00  0.00    +0.000 C 
ATOM     23  C   UNL     1       7.830   5.762  18.913  0.00  0.00    +0.000 C 
ATOM     24  C   UNL     1       7.925   7.048  18.164  0.00  0.00    +0.000 C 
ATOM     25  C   UNL     1       7.603   7.190  16.876  0.00  0.00    +0.000 C 
ATOM     26  C   UNL     1       7.103   6.084  16.006  0.00  0.00    +0.000 C 
ATOM     27  C   UNL     1       6.803   4.763  16.708  0.00  0.00    +0.000 C 
ATOM     28  C   UNL     1       5.358   4.339  16.577  0.00  0.00    +0.000 C 
ATOM     29  O   UNL     1       4.767   4.242  15.513  0.00  0.00    +0.000 OA
ENDBRANCH  17  19
ENDBRANCH   5  17
TORSDOF 4
ENDMDL
MODEL 3
REMARK VINA RESULT:      -7.3      2.929     10.241
REMARK  Name = 
REMARK  6 active torsions:
REMARK  status: ('A' for Active; 'I' for Inactive)
REMARK    1  A    between atoms: C_1  and  O_2
REMARK    2  A    between atoms: O_2  and  C_3
REMARK    3  A    between atoms: C_6  and  N_7
REMARK    4  A    between atoms: C_11  and  C_13
REMARK    5  A    between atoms: C_13  and  C_14
REMARK    6  A    between atoms: C_13  and  N_15
REMARK                            x       y       z     vdW  Elec       q    Type
REMARK                         _______ _______ _______ _____ _____    ______ ____
ROOT
ATOM      1  N   UNL     1       0.983   8.274  19.879  0.00  0.00    +0.000 N 
ATOM      2  C   UNL     1       0.761   8.069  21.323  0.00  0.00    +0.000 C 
ATOM      3  C   UNL     1       1.140   9.319  22.139  0.00  0.00    +0.000 C 
ATOM      4  N   UNL     1       0.508  10.542  21.605  0.00  0.00    +0.000 N 
ATOM      5  C   UNL     1      -0.420  11.202  22.384  0.00  0.00    +0.000 C 
ATOM      6  O   UNL     1      -0.782  10.691  23.457  0.00  0.00    +0.000 OA
ATOM      7  C   UNL     1       0.793  10.752  20.184  0.00  0.00    +0.000 C 
ATOM      8  C   UNL     1       0.398   9.518  19.331  0.00  0.00    +0.000 C 
ENDROOT
BRANCH   1  12
ATOM      9  C   UNL     1       4.240   6.437  17.897  0.00  0.00    +0.000 A 
ATOM     10  C   UNL     1       3.719   5.901  19.069  0.00  0.00    +0.000 A 
ATOM     11  C   UNL     1       2.633   6.516  19.706  0.00  0.00    +0.000 A 
ATOM     12  C   UNL     1       2.049   7.691  19.209  0.00  0.00    +0.000 A 
ATOM     13  C   UNL     1       2.621   8.236  18.053  0.00  0.00    +0.000 A 
ATOM     14  C   UNL     1       3.697   7.619  17.397  0.00  0.00    +0.000 A 
BRANCH   9  16
ATOM     15  C   UNL     1       5.636   4.539  18.002  0.00  0.00    +0.000 C 
ATOM     16  O   UNL     1       5.297   5.760  17.354  0.00  0.00    +0.000 OA
ENDBRANCH   9  16
ENDBRANCH   1  12
BRANCH   5  17
ATOM     17  C   UNL     1      -1.158  12.494  21.942  0.00  0.00    +0.000 C 
ATOM     18  C   UNL     1      -0.837  13.672  22.870  0.00  0.00    +0.000 C 
BRANCH  17  19
ATOM     19  N   UNL     1      -2.552  12.460  21.486  0.00  0.00    +0.000 N 
ATOM     20  C   UNL     1      -3.659  12.527  22.273  0.00  0.00    +0.000 C 
ATOM     21  O   UNL     1      -3.727  12.285  23.471  0.00  0.00    +0.000 OA
ATOM     22  C   UNL     1      -4.804  13.108  21.476  0.00  0.00    +0.000 C 
ATOM     23  C   UNL     1      -6.161  12.504  21.810  0.00  0.00    +0.000 C 
ATOM     24  C   UNL     1      -6.740  11.611  20.766  0.00  0.00    +0.000 C 
ATOM     25  C   UNL     1      -6.264  11.505  19.523  0.00  0.00    +0.000 C 
ATOM     26  C   UNL     1      -5.087  12.265  19.004  0.00  0.00    +0.000 C 
ATOM     27  C   UNL     1      -4.310  13.080  20.034  0.00  0.00    +0.000 C 
ATOM     28  C   UNL     1      -2.866  12.650  20.161  0.00  0.00    +0.000 C 
ATOM     29  O   UNL     1      -2.094  12.558  19.220  0.00  0.00    +0.000 OA
ENDBRANCH  17  19
ENDBRANCH   5  17
TORSDOF 4
ENDMDL
MODEL 4
REMARK VINA RESULT:      -7.1      2.080      4.395
REMARK  Name = 
REMARK  6 active torsions:
REMARK  status: ('A' for Active; 'I' for Inactive)
REMARK    1  A    between atoms: C_1  and  O_2
REMARK    2  A    between atoms: O_2  and  C_3
REMARK    3  A    between atoms: C_6  and  N_7
REMARK    4  A    between atoms: C_11  and  C_13
REMARK    5  A    between atoms: C_13  and  C_14
REMARK    6  A    between atoms: C_13  and  N_15
REMARK                            x       y       z     vdW  Elec       q    Type
REMARK                         _______ _______ _______ _____ _____    ______ ____
ROOT
ATOM      1  N   UNL     1       1.423   8.496  18.700  0.00  0.00    +0.000 N 
ATOM      2  C   UNL     1       2.116   8.979  17.491  0.00  0.00    +0.000 C 
ATOM      3  C   UNL     1       3.624   8.666  17.538  0.00  0.00    +0.000 C 
ATOM      4  N   UNL     1       3.886   7.247  17.851  0.00  0.00    +0.000 N 
ATOM      5  C   UNL     1       4.488   6.458  16.892  0.00  0.00    +0.000 C 
ATOM      6  O   UNL     1       4.686   6.928  15.760  0.00  0.00    +0.000 OA
ATOM      7  C   UNL     1       3.233   6.810  19.087  0.00  0.00    +0.000 C 
ATOM      8  C   UNL     1       1.707   7.088  19.059  0.00  0.00    +0.000 C 
ENDROOT
BRANCH   1  12
ATOM      9  C   UNL     1       0.087  11.067  21.784  0.00  0.00    +0.000 A 
ATOM     10  C   UNL     1       0.049   9.686  21.936  0.00  0.00    +0.000 A 
ATOM     11  C   UNL     1       0.507   8.849  20.909  0.00  0.00    +0.000 A 
ATOM     12  C   UNL     1       0.993   9.361  19.696  0.00  0.00    +0.000 A 
ATOM     13  C   UNL     1       0.977  10.754  19.550  0.00  0.00    +0.000 A 
ATOM     14  C   UNL     1       0.538  11.601  20.579  0.00  0.00    +0.000 A 
BRANCH   9  16
ATOM     15  C   UNL     1      -1.726  11.525  23.221  0.00  0.00    +0.000 C 
ATOM     16  O   UNL     1      -0.380  11.793  22.845  0.00  0.00    +0.000 OA
ENDBRANCH   9  16
ENDBRANCH   1  12
BRANCH   5  17
ATOM     17  C   UNL     1       4.816   4.954  17.091  0.00  0.00    +0.000 C 
ATOM     18  C   UNL     1       5.131   4.264  15.759  0.00  0.00    +0.000 C 
BRANCH  17  19
ATOM     19  N   UNL     1       4.049   4.122  18.025  0.00  0.00    +0.000 N 
ATOM     20  C   UNL     1       2.814   3.596  17.807  0.00  0.00    +0.000 C 
ATOM     21  O   UNL     1       1.985   3.975  16.989  0.00  0.00    +0.000 OA
ATOM     22  C   UNL     1       2.652   2.341  18.633  0.00  0.00    +0.000 C 
ATOM     23  C   UNL     1       1.246   2.137  19.181  0.00  0.00    +0.000 C 
ATOM     24  C   UNL     1       1.093   2.345  20.649  0.00  0.00    +0.000 C 
ATOM     25  C   UNL     1       2.116   2.466  21.499  0.00  0.00    +0.000 C 
ATOM     26  C   UNL     1       3.554   2.411  21.099  0.00  0.00    +0.000 C 
ATOM     27  C   UNL     1       3.832   2.373  19.599  0.00  0.00    +0.000 C 
ATOM     28  C   UNL     1       4.651   3.549  19.119  0.00  0.00    +0.000 C 
ATOM     29  O   UNL     1       5.722   3.879  19.604  0.00  0.00    +0.000 OA
ENDBRANCH  17  19
ENDBRANCH   5  17
TORSDOF 4
ENDMDL
MODEL 5
REMARK VINA RESULT:      -7.0      1.366      2.471
REMARK  Name = 
REMARK  6 active torsions:
REMARK  status: ('A' for Active; 'I' for Inactive)
REMARK    1  A    between atoms: C_1  and  O_2
REMARK    2  A    between atoms: O_2  and  C_3
REMARK    3  A    between atoms: C_6  and  N_7
REMARK    4  A    between atoms: C_11  and  C_13
REMARK    5  A    between atoms: C_13  and  C_14
REMARK    6  A    between atoms: C_13  and  N_15
REMARK                            x       y       z     vdW  Elec       q    Type
REMARK                         _______ _______ _______ _____ _____    ______ ____
ROOT
ATOM      1  N   UNL     1       1.877   8.174  19.817  0.00  0.00    +0.000 N 
ATOM      2  C   UNL     1       1.763   7.500  21.124  0.00  0.00    +0.000 C 
ATOM      3  C   UNL     1       1.230   6.062  20.977  0.00  0.00    +0.000 C 
ATOM      4  N   UNL     1       1.988   5.291  19.972  0.00  0.00    +0.000 N 
ATOM      5  C   UNL     1       2.728   4.203  20.391  0.00  0.00    +0.000 C 
ATOM      6  O   UNL     1       2.827   3.973  21.607  0.00  0.00    +0.000 OA
ATOM      7  C   UNL     1       2.037   5.955  18.667  0.00  0.00    +0.000 C 
ATOM      8  C   UNL     1       2.594   7.399  18.779  0.00  0.00    +0.000 C 
ENDROOT
BRANCH   1  12
ATOM      9  C   UNL     1      -0.883  11.168  18.665  0.00  0.00    +0.000 A 
ATOM     10  C   UNL     1      -0.741  10.799  19.998  0.00  0.00    +0.000 A 
ATOM     11  C   UNL     1       0.187   9.813  20.363  0.00  0.00    +0.000 A 
ATOM     12  C   UNL     1       0.981   9.153  19.413  0.00  0.00    +0.000 A 
ATOM     13  C   UNL     1       0.785   9.510  18.073  0.00  0.00    +0.000 A 
ATOM     14  C   UNL     1      -0.128  10.508  17.699  0.00  0.00    +0.000 A 
BRANCH   9  16
ATOM     15  C   UNL     1      -3.147  11.817  18.793  0.00  0.00    +0.000 C 
ATOM     16  O   UNL     1      -1.814  12.139  18.416  0.00  0.00    +0.000 OA
ENDBRANCH   9  16
ENDBRANCH   1  12
BRANCH   5  17
ATOM     17  C   UNL     1       3.569   3.311  19.440  0.00  0.00    +0.000 C 
ATOM     18  C   UNL     1       4.262   2.174  20.198  0.00  0.00    +0.000 C 
BRANCH  17  19
ATOM     19  N   UNL     1       4.385   3.894  18.369  0.00  0.00    +0.000 N 
ATOM     20  C   UNL     1       4.065   3.941  17.047  0.00  0.00    +0.000 C 
ATOM     21  O   UNL     1       3.253   3.238  16.460  0.00  0.00    +0.000 OA
ATOM     22  C   UNL     1       4.759   5.121  16.407  0.00  0.00    +0.000 C 
ATOM     23  C   UNL     1       5.225   4.866  14.979  0.00  0.00    +0.000 C 
ATOM     24  C   UNL     1       6.699   4.729  14.800  0.00  0.00    +0.000 C 
ATOM     25  C   UNL     1       7.599   5.034  15.738  0.00  0.00    +0.000 C 
ATOM     26  C   UNL     1       7.257   5.554  17.096  0.00  0.00    +0.000 C 
ATOM     27  C   UNL     1       5.773   5.573  17.452  0.00  0.00    +0.000 C 
ATOM     28  C   UNL     1       5.444   4.721  18.657  0.00  0.00    +0.000 C 
ATOM     29  O   UNL     1       6.003   4.820  19.738  0.00  0.00    +0.000 OA
ENDBRANCH  17  19
ENDBRANCH   5  17
TORSDOF 4
ENDMDL
MODEL 6
REMARK VINA RESULT:      -6.9      2.596      9.772
REMARK  Name = 
REMARK  6 active torsions:
REMARK  status: ('A' for Active; 'I' for Inactive)
REMARK    1  A    between atoms: C_1  and  O_2
REMARK    2  A    between atoms: O_2  and  C_3
REMARK    3  A    between atoms: C_6  and  N_7
REMARK    4  A    between atoms: C_11  and  C_13
REMARK    5  A    between atoms: C_13  and  C_14
REMARK    6  A    between atoms: C_13  and  N_15
REMARK                            x       y       z     vdW  Elec       q    Type
REMARK                         _______ _______ _______ _____ _____    ______ ____
ROOT
ATOM      1  N   UNL     1       2.198   7.176  18.815  0.00  0.00    +0.000 N 
ATOM      2  C   UNL     1       1.635   7.259  20.176  0.00  0.00    +0.000 C 
ATOM      3  C   UNL     1       1.674   8.700  20.720  0.00  0.00    +0.000 C 
ATOM      4  N   UNL     1       1.088   9.667  19.770  0.00  0.00    +0.000 N 
ATOM      5  C   UNL     1      -0.067  10.332  20.130  0.00  0.00    +0.000 C 
ATOM      6  O   UNL     1      -0.640  10.018  21.186  0.00  0.00    +0.000 OA
ATOM      7  C   UNL     1       1.705   9.602  18.443  0.00  0.00    +0.000 C 
ATOM      8  C   UNL     1       1.658   8.167  17.858  0.00  0.00    +0.000 C 
ENDROOT
BRANCH   1  12
ATOM      9  C   UNL     1       6.018   5.552  17.992  0.00  0.00    +0.000 A 
ATOM     10  C   UNL     1       5.432   6.475  17.134  0.00  0.00    +0.000 A 
ATOM     11  C   UNL     1       4.171   7.013  17.428  0.00  0.00    +0.000 A 
ATOM     12  C   UNL     1       3.450   6.630  18.569  0.00  0.00    +0.000 A 
ATOM     13  C   UNL     1       4.042   5.664  19.393  0.00  0.00    +0.000 A 
ATOM     14  C   UNL     1       5.311   5.134  19.117  0.00  0.00    +0.000 A 
BRANCH   9  16
ATOM     15  C   UNL     1       7.308   4.496  16.323  0.00  0.00    +0.000 C 
ATOM     16  O   UNL     1       7.249   5.091  17.614  0.00  0.00    +0.000 OA
ENDBRANCH   9  16
ENDBRANCH   1  12
BRANCH   5  17
ATOM     17  C   UNL     1      -0.785  11.369  19.227  0.00  0.00    +0.000 C 
ATOM     18  C   UNL     1      -0.048  12.713  19.213  0.00  0.00    +0.000 C 
BRANCH  17  19
ATOM     19  N   UNL     1      -2.247  11.494  19.220  0.00  0.00    +0.000 N 
ATOM     20  C   UNL     1      -2.996  12.236  20.080  0.00  0.00    +0.000 C 
ATOM     21  O   UNL     1      -2.662  12.642  21.186  0.00  0.00    +0.000 OA
ATOM     22  C   UNL     1      -4.286  12.636  19.402  0.00  0.00    +0.000 C 
ATOM     23  C   UNL     1      -5.491  12.667  20.332  0.00  0.00    +0.000 C 
ATOM     24  C   UNL     1      -6.483  11.571  20.133  0.00  0.00    +0.000 C 
ATOM     25  C   UNL     1      -6.486  10.745  19.085  0.00  0.00    +0.000 C 
ATOM     26  C   UNL     1      -5.498  10.800  17.966  0.00  0.00    +0.000 C 
ATOM     27  C   UNL     1      -4.334  11.770  18.147  0.00  0.00    +0.000 C 
ATOM     28  C   UNL     1      -2.987  11.086  18.136  0.00  0.00    +0.000 C 
ATOM     29  O   UNL     1      -2.606  10.339  17.248  0.00  0.00    +0.000 OA
ENDBRANCH  17  19
ENDBRANCH   5  17
TORSDOF 4
ENDMDL
MODEL 7
REMARK VINA RESULT:      -6.8      1.321      1.859
REMARK  Name = 
REMARK  6 active torsions:
REMARK  status: ('A' for Active; 'I' for Inactive)
REMARK    1  A    between atoms: C_1  and  O_2
REMARK    2  A    between atoms: O_2  and  C_3
REMARK    3  A    between atoms: C_6  and  N_7
REMARK    4  A    between atoms: C_11  and  C_13
REMARK    5  A    between atoms: C_13  and  C_14
REMARK    6  A    between atoms: C_13  and  N_15
REMARK                            x       y       z     vdW  Elec       q    Type
REMARK                         _______ _______ _______ _____ _____    ______ ____
ROOT
ATOM      1  N   UNL     1       1.854   8.064  19.939  0.00  0.00    +0.000 N 
ATOM      2  C   UNL     1       1.618   7.350  21.208  0.00  0.00    +0.000 C 
ATOM      3  C   UNL     1       1.109   5.916  20.966  0.00  0.00    +0.000 C 
ATOM      4  N   UNL     1       1.964   5.178  20.014  0.00  0.00    +0.000 N 
ATOM      5  C   UNL     1       2.665   4.079  20.468  0.00  0.00    +0.000 C 
ATOM      6  O   UNL     1       2.649   3.811  21.681  0.00  0.00    +0.000 OA
ATOM      7  C   UNL     1       2.134   5.884  18.742  0.00  0.00    +0.000 C 
ATOM      8  C   UNL     1       2.670   7.324  18.951  0.00  0.00    +0.000 C 
ENDROOT
BRANCH   1  12
ATOM      9  C   UNL     1      -0.795  11.091  18.624  0.00  0.00    +0.000 A 
ATOM     10  C   UNL     1      -0.736  10.722  19.963  0.00  0.00    +0.000 A 
ATOM     11  C   UNL     1       0.156   9.726  20.383  0.00  0.00    +0.000 A 
ATOM     12  C   UNL     1       0.995   9.054  19.482  0.00  0.00    +0.000 A 
ATOM     13  C   UNL     1       0.883   9.412  18.133  0.00  0.00    +0.000 A 
ATOM     14  C   UNL     1       0.007  10.420  17.704  0.00  0.00    +0.000 A 
BRANCH   9  16
ATOM     15  C   UNL     1      -2.982  11.617  17.911  0.00  0.00    +0.000 C 
ATOM     16  O   UNL     1      -1.697  12.073  18.319  0.00  0.00    +0.000 OA
ENDBRANCH   9  16
ENDBRANCH   1  12
BRANCH   5  17
ATOM     17  C   UNL     1       3.598   3.219  19.575  0.00  0.00    +0.000 C 
ATOM     18  C   UNL     1       4.286   2.111  20.379  0.00  0.00    +0.000 C 
BRANCH  17  19
ATOM     19  N   UNL     1       4.456   3.832  18.554  0.00  0.00    +0.000 N 
ATOM     20  C   UNL     1       5.638   4.470  18.773  0.00  0.00    +0.000 C 
ATOM     21  O   UNL     1       6.032   4.950  19.827  0.00  0.00    +0.000 OA
ATOM     22  C   UNL     1       6.496   4.369  17.533  0.00  0.00    +0.000 C 
ATOM     23  C   UNL     1       7.338   5.609  17.260  0.00  0.00    +0.000 C 
ATOM     24  C   UNL     1       6.900   6.439  16.101  0.00  0.00    +0.000 C 
ATOM     25  C   UNL     1       5.997   6.048  15.198  0.00  0.00    +0.000 C 
ATOM     26  C   UNL     1       5.301   4.727  15.221  0.00  0.00    +0.000 C 
ATOM     27  C   UNL     1       5.542   3.863  16.456  0.00  0.00    +0.000 C 
ATOM     28  C   UNL     1       4.275   3.556  17.220  0.00  0.00    +0.000 C 
ATOM     29  O   UNL     1       3.274   3.070  16.717  0.00  0.00    +0.000 OA
ENDBRANCH  17  19
ENDBRANCH   5  17
TORSDOF 4
ENDMDL
MODEL 8
REMARK VINA RESULT:      -6.7      2.614      9.845
REMARK  Name = 
REMARK  6 active torsions:
REMARK  status: ('A' for Active; 'I' for Inactive)
REMARK    1  A    between atoms: C_1  and  O_2
REMARK    2  A    between atoms: O_2  and  C_3
REMARK    3  A    between atoms: C_6  and  N_7
REMARK    4  A    between atoms: C_11  and  C_13
REMARK    5  A    between atoms: C_13  and  C_14
REMARK    6  A    between atoms: C_13  and  N_15
REMARK                            x       y       z     vdW  Elec       q    Type
REMARK                         _______ _______ _______ _____ _____    ______ ____
ROOT
ATOM      1  N   UNL     1       2.171   7.198  18.750  0.00  0.00    +0.000 N 
ATOM      2  C   UNL     1       1.617   7.282  20.115  0.00  0.00    +0.000 C 
ATOM      3  C   UNL     1       1.640   8.727  20.649  0.00  0.00    +0.000 C 
ATOM      4  N   UNL     1       1.032   9.678  19.697  0.00  0.00    +0.000 N 
ATOM      5  C   UNL     1      -0.129  10.329  20.062  0.00  0.00    +0.000 C 
ATOM      6  O   UNL     1      -0.690  10.014  21.125  0.00  0.00    +0.000 OA
ATOM      7  C   UNL     1       1.639   9.614  18.366  0.00  0.00    +0.000 C 
ATOM      8  C   UNL     1       1.609   8.175  17.790  0.00  0.00    +0.000 C 
ENDROOT
BRANCH   1  12
ATOM      9  C   UNL     1       6.002   5.540  18.055  0.00  0.00    +0.000 A 
ATOM     10  C   UNL     1       5.266   5.195  19.183  0.00  0.00    +0.000 A 
ATOM     11  C   UNL     1       3.993   5.745  19.391  0.00  0.00    +0.000 A 
ATOM     12  C   UNL     1       3.428   6.668  18.498  0.00  0.00    +0.000 A 
ATOM     13  C   UNL     1       4.210   7.034  17.395  0.00  0.00    +0.000 A 
ATOM     14  C   UNL     1       5.477   6.477  17.168  0.00  0.00    +0.000 A 
BRANCH   9  16
ATOM     15  C   UNL     1       8.169   5.299  18.955  0.00  0.00    +0.000 C 
ATOM     16  O   UNL     1       7.230   4.947  17.945  0.00  0.00    +0.000 OA
ENDBRANCH   9  16
ENDBRANCH   1  12
BRANCH   5  17
ATOM     17  C   UNL     1      -0.870  11.350  19.158  0.00  0.00    +0.000 C 
ATOM     18  C   UNL     1      -0.112  12.679  19.068  0.00  0.00    +0.000 C 
BRANCH  17  19
ATOM     19  N   UNL     1      -2.328  11.500  19.211  0.00  0.00    +0.000 N 
ATOM     20  C   UNL     1      -3.029  12.248  20.106  0.00  0.00    +0.000 C 
ATOM     21  O   UNL     1      -2.645  12.640  21.200  0.00  0.00    +0.000 OA
ATOM     22  C   UNL     1      -4.338  12.676  19.482  0.00  0.00    +0.000 C 
ATOM     23  C   UNL     1      -5.504  12.720  20.460  0.00  0.00    +0.000 C 
ATOM     24  C   UNL     1      -6.523  11.644  20.293  0.00  0.00    +0.000 C 
ATOM     25  C   UNL     1      -6.582  10.826  19.240  0.00  0.00    +0.000 C 
ATOM     26  C   UNL     1      -5.639  10.873  18.083  0.00  0.00    +0.000 C 
ATOM     27  C   UNL     1      -4.452  11.821  18.224  0.00  0.00    +0.000 C 
ATOM     28  C   UNL     1      -3.118  11.114  18.154  0.00  0.00    +0.000 C 
ATOM     29  O   UNL     1      -2.787  10.368  17.246  0.00  0.00    +0.000 OA
ENDBRANCH  17  19
ENDBRANCH   5  17
TORSDOF 4
ENDMDL
MODEL 9
REMARK VINA RESULT:      -6.6      2.623      9.914
REMARK  Name = 
REMARK  6 active torsions:
REMARK  status: ('A' for Active; 'I' for Inactive)
REMARK    1  A    between atoms: C_1  and  O_2
REMARK    2  A    between atoms: O_2  and  C_3
REMARK    3  A    between atoms: C_6  and  N_7
REMARK    4  A    between atoms: C_11  and  C_13
REMARK    5  A    between atoms: C_13  and  C_14
REMARK    6  A    between atoms: C_13  and  N_15
REMARK                            x       y       z     vdW  Elec       q    Type
REMARK                         _______ _______ _______ _____ _____    ______ ____
ROOT
ATOM      1  N   UNL     1       2.032   7.449  18.761  0.00  0.00    +0.000 N 
ATOM      2  C   UNL     1       1.409   7.601  20.090  0.00  0.00    +0.000 C 
ATOM      3  C   UNL     1       1.535   9.045  20.613  0.00  0.00    +0.000 C 
ATOM      4  N   UNL     1       1.073  10.036  19.619  0.00  0.00    +0.000 N 
ATOM      5  C   UNL     1      -0.042  10.795  19.910  0.00  0.00    +0.000 C 
ATOM      6  O   UNL     1      -0.690  10.547  20.940  0.00  0.00    +0.000 OA
ATOM      7  C   UNL     1       1.748   9.898  18.327  0.00  0.00    +0.000 C 
ATOM      8  C   UNL     1       1.618   8.460  17.761  0.00  0.00    +0.000 C 
ENDROOT
BRANCH   1  12
ATOM      9  C   UNL     1       5.749   5.519  18.158  0.00  0.00    +0.000 A 
ATOM     10  C   UNL     1       5.285   6.476  17.263  0.00  0.00    +0.000 A 
ATOM     11  C   UNL     1       4.057   7.114  17.485  0.00  0.00    +0.000 A 
ATOM     12  C   UNL     1       3.247   6.803  18.587  0.00  0.00    +0.000 A 
ATOM     13  C   UNL     1       3.715   5.802  19.448  0.00  0.00    +0.000 A 
ATOM     14  C   UNL     1       4.951   5.170  19.246  0.00  0.00    +0.000 A 
BRANCH   9  16
ATOM     15  C   UNL     1       7.121   4.564  16.494  0.00  0.00    +0.000 C 
ATOM     16  O   UNL     1       6.958   4.958  17.852  0.00  0.00    +0.000 OA
ENDBRANCH   9  16
ENDBRANCH   1  12
BRANCH   5  17
ATOM     17  C   UNL     1      -0.632  11.867  18.955  0.00  0.00    +0.000 C 
ATOM     18  C   UNL     1       0.088  13.212  19.103  0.00  0.00    +0.000 C 
BRANCH  17  19
ATOM     19  N   UNL     1      -2.078  11.988  18.743  0.00  0.00    +0.000 N 
ATOM     20  C   UNL     1      -2.791  11.439  17.722  0.00  0.00    +0.000 C 
ATOM     21  O   UNL     1      -2.358  11.056  16.643  0.00  0.00    +0.000 OA
ATOM     22  C   UNL     1      -4.217  11.216  18.171  0.00  0.00    +0.000 C 
ATOM     23  C   UNL     1      -5.254  11.448  17.080  0.00  0.00    +0.000 C 
ATOM     24  C   UNL     1      -6.083  12.678  17.234  0.00  0.00    +0.000 C 
ATOM     25  C   UNL     1      -6.119  13.423  18.342  0.00  0.00    +0.000 C 
ATOM     26  C   UNL     1      -5.337  13.130  19.580  0.00  0.00    +0.000 C 
ATOM     27  C   UNL     1      -4.324  11.993  19.479  0.00  0.00    +0.000 C 
ATOM     28  C   UNL     1      -2.904  12.441  19.743  0.00  0.00    +0.000 C 
ATOM     29  O   UNL     1      -2.555  13.054  20.740  0.00  0.00    +0.000 OA
ENDBRANCH  17  19
ENDBRANCH   5  17
TORSDOF 4
ENDMDL
