MODEL 1
REMARK VINA RESULT:      -8.1      0.000      0.000
REMARK  Name = 
REMARK  3 active torsions:
REMARK  status: ('A' for Active; 'I' for Inactive)
REMARK    1  A    between atoms: C_2  and  C_3
REMARK    2  A    between atoms: C_3  and  N_4
REMARK    3  A    between atoms: N_13  and  C_14
REMARK                            x       y       z     vdW  Elec       q    Type
REMARK                         _______ _______ _______ _____ _____    ______ ____
ROOT
ATOM      1  O   UNL     1       1.842   5.281  17.938  0.00  0.00    +0.000 OA
ATOM      2  C   UNL     1       2.717   5.415  18.789  0.00  0.00    +0.000 C 
ATOM      3  N   UNL     1       2.958   6.573  19.511  0.00  0.00    +0.000 N 
ATOM      4  H   UNL     1       3.922   6.714  19.794  0.00  0.00    +0.000 HD
ENDROOT
BRANCH   3   5
ATOM      5  C   UNL     1       2.200   7.753  19.343  0.00  0.00    +0.000 A 
ATOM      6  C   UNL     1       2.143   8.461  18.140  0.00  0.00    +0.000 A 
ATOM      7  C   UNL     1       1.309   9.589  18.041  0.00  0.00    +0.000 A 
ATOM      8  C   UNL     1       0.626  10.066  19.167  0.00  0.00    +0.000 A 
ATOM      9  C   UNL     1       0.858   9.453  20.400  0.00  0.00    +0.000 A 
ATOM     10  C   UNL     1       1.526   8.231  20.458  0.00  0.00    +0.000 A 
ATOM     11  O   UNL     1       0.852  10.123  21.601  0.00  0.00    +0.000 OA
ATOM     12  C   UNL     1      -0.363  10.672  22.059  0.00  0.00    +0.000 C 
ATOM     13  C   UNL     1      -0.970  11.748  21.178  0.00  0.00    +0.000 C 
ATOM     14  C   UNL     1      -1.322  11.190  19.815  0.00  0.00    +0.000 C 
ATOM     15  O   UNL     1      -0.166  11.163  18.971  0.00  0.00    +0.000 OA
ENDBRANCH   3   5
BRANCH   2  16
ATOM     16  C   UNL     1       3.642   4.272  19.147  0.00  0.00    +0.000 C 
BRANCH  16  17
ATOM     17  N   UNL     1       4.993   4.434  18.647  0.00  0.00    +0.000 N 
ATOM     18  C   UNL     1       6.075   4.796  19.405  0.00  0.00    +0.000 A 
ATOM     19  N   UNL     1       7.153   4.956  18.663  0.00  0.00    +0.000 NA
ATOM     20  C   UNL     1       6.745   4.736  17.375  0.00  0.00    +0.000 A 
ATOM     21  C   UNL     1       7.482   4.813  16.182  0.00  0.00    +0.000 A 
ATOM     22  C   UNL     1       6.836   4.531  14.971  0.00  0.00    +0.000 A 
ATOM     23  C   UNL     1       5.486   4.179  14.949  0.00  0.00    +0.000 A 
ATOM     24  C   UNL     1       4.736   4.100  16.129  0.00  0.00    +0.000 A 
ATOM     25  C   UNL     1       5.395   4.385  17.331  0.00  0.00    +0.000 A 
ENDBRANCH  16  17
ENDBRANCH   2  16
TORSDOF 3
ENDMDL
MODEL 2
REMARK VINA RESULT:      -7.7      1.303      1.923
REMARK  Name = 
REMARK  3 active torsions:
REMARK  status: ('A' for Active; 'I' for Inactive)
REMARK    1  A    between atoms: C_2  and  C_3
REMARK    2  A    between atoms: C_3  and  N_4
REMARK    3  A    between atoms: N_13  and  C_14
REMARK                            x       y       z     vdW  Elec       q    Type
REMARK                         _______ _______ _______ _____ _____    ______ ____
ROOT
ATOM      1  O   UNL     1       1.080   5.308  20.656  0.00  0.00    +0.000 OA
ATOM      2  C   UNL     1       2.205   5.459  20.190  0.00  0.00    +0.000 C 
ATOM      3  N   UNL     1       2.720   6.656  19.717  0.00  0.00    +0.000 N 
ATOM      4  H   UNL     1       3.403   6.570  18.973  0.00  0.00    +0.000 HD
ENDROOT
BRANCH   3   5
ATOM      5  C   UNL     1       1.986   7.862  19.726  0.00  0.00    +0.000 A 
ATOM      6  C   UNL     1       1.898   8.712  18.620  0.00  0.00    +0.000 A 
ATOM      7  C   UNL     1       1.089   9.860  18.694  0.00  0.00    +0.000 A 
ATOM      8  C   UNL     1       0.465  10.212  19.897  0.00  0.00    +0.000 A 
ATOM      9  C   UNL     1       0.733   9.450  21.037  0.00  0.00    +0.000 A 
ATOM     10  C   UNL     1       1.370   8.216  20.919  0.00  0.00    +0.000 A 
ATOM     11  O   UNL     1       0.793   9.970  22.308  0.00  0.00    +0.000 OA
ATOM     12  C   UNL     1      -0.388  10.484  22.882  0.00  0.00    +0.000 C 
ATOM     13  C   UNL     1      -1.003  11.671  22.164  0.00  0.00    +0.000 C 
ATOM     14  C   UNL     1      -1.425  11.290  20.760  0.00  0.00    +0.000 C 
ATOM     15  O   UNL     1      -0.305  11.341  19.869  0.00  0.00    +0.000 OA
ENDBRANCH   3   5
BRANCH   2  16
ATOM     16  C   UNL     1       3.176   4.302  20.098  0.00  0.00    +0.000 C 
BRANCH  16  17
ATOM     17  N   UNL     1       3.853   4.206  18.820  0.00  0.00    +0.000 N 
ATOM     18  C   UNL     1       3.355   3.580  17.709  0.00  0.00    +0.000 A 
ATOM     19  N   UNL     1       4.231   3.572  16.724  0.00  0.00    +0.000 NA
ATOM     20  C   UNL     1       5.352   4.173  17.230  0.00  0.00    +0.000 A 
ATOM     21  C   UNL     1       6.597   4.392  16.617  0.00  0.00    +0.000 A 
ATOM     22  C   UNL     1       7.601   5.045  17.346  0.00  0.00    +0.000 A 
ATOM     23  C   UNL     1       7.369   5.470  18.654  0.00  0.00    +0.000 A 
ATOM     24  C   UNL     1       6.135   5.257  19.281  0.00  0.00    +0.000 A 
ATOM     25  C   UNL     1       5.142   4.603  18.540  0.00  0.00    +0.000 A 
ENDBRANCH  16  17
ENDBRANCH   2  16
TORSDOF 3
ENDMDL
MODEL 3
REMARK VINA RESULT:      -7.4      1.845      2.989
REMARK  Name = 
REMARK  3 active torsions:
REMARK  status: ('A' for Active; 'I' for Inactive)
REMARK    1  A    between atoms: C_2  and  C_3
REMARK    2  A    between atoms: C_3  and  N_4
REMARK    3  A    between atoms: N_13  and  C_14
REMARK                            x       y       z     vdW  Elec       q    Type
REMARK                         _______ _______ _______ _____ _____    ______ ____
ROOT
ATOM      1  O   UNL     1       4.620   3.915  18.898  0.00  0.00    +0.000 OA
ATOM      2  C   UNL     1       4.215   4.225  17.781  0.00  0.00    +0.000 C 
ATOM      3  N   UNL     1       3.270   5.204  17.518  0.00  0.00    +0.000 N 
ATOM      4  H   UNL     1       2.702   5.047  16.693  0.00  0.00    +0.000 HD
ENDROOT
BRANCH   3   5
ATOM      5  C   UNL     1       2.660   5.973  18.533  0.00  0.00    +0.000 A 
ATOM      6  C   UNL     1       2.189   5.424  19.729  0.00  0.00    +0.000 A 
ATOM      7  C   UNL     1       1.656   6.274  20.715  0.00  0.00    +0.000 A 
ATOM      8  C   UNL     1       1.495   7.641  20.462  0.00  0.00    +0.000 A 
ATOM      9  C   UNL     1       1.791   8.125  19.185  0.00  0.00    +0.000 A 
ATOM     10  C   UNL     1       2.494   7.328  18.283  0.00  0.00    +0.000 A 
ATOM     11  O   UNL     1       1.114   9.157  18.581  0.00  0.00    +0.000 OA
ATOM     12  C   UNL     1       1.221  10.449  19.137  0.00  0.00    +0.000 C 
ATOM     13  C   UNL     1       0.686  10.601  20.549  0.00  0.00    +0.000 C 
ATOM     14  C   UNL     1       1.464   9.732  21.515  0.00  0.00    +0.000 C 
ATOM     15  O   UNL     1       0.975   8.387  21.483  0.00  0.00    +0.000 OA
ENDBRANCH   3   5
BRANCH   2  16
ATOM     16  C   UNL     1       4.745   3.542  16.539  0.00  0.00    +0.000 C 
BRANCH  16  17
ATOM     17  N   UNL     1       5.850   4.241  15.912  0.00  0.00    +0.000 N 
ATOM     18  C   UNL     1       6.646   5.169  16.529  0.00  0.00    +0.000 A 
ATOM     19  N   UNL     1       7.506   5.704  15.686  0.00  0.00    +0.000 NA
ATOM     20  C   UNL     1       7.227   5.137  14.472  0.00  0.00    +0.000 A 
ATOM     21  C   UNL     1       7.818   5.378  13.220  0.00  0.00    +0.000 A 
ATOM     22  C   UNL     1       7.360   4.657  12.109  0.00  0.00    +0.000 A 
ATOM     23  C   UNL     1       6.337   3.718  12.241  0.00  0.00    +0.000 A 
ATOM     24  C   UNL     1       5.735   3.469  13.481  0.00  0.00    +0.000 A 
ATOM     25  C   UNL     1       6.203   4.197  14.582  0.00  0.00    +0.000 A 
ENDBRANCH  16  17
ENDBRANCH   2  16
TORSDOF 3
ENDMDL
MODEL 4
REMARK VINA RESULT:      -7.4      6.276      7.550
REMARK  Name = 
REMARK  3 active torsions:
REMARK  status: ('A' for Active; 'I' for Inactive)
REMARK    1  A    between atoms: C_2  and  C_3
REMARK    2  A    between atoms: C_3  and  N_4
REMARK    3  A    between atoms: N_13  and  C_14
REMARK                            x       y       z     vdW  Elec       q    Type
REMARK                         _______ _______ _______ _____ _____    ______ ____
ROOT
ATOM      1  O   UNL     1       7.573   7.892  17.057  0.00  0.00    +0.000 OA
ATOM      2  C   UNL     1       8.010   7.606  18.167  0.00  0.00    +0.000 C 
ATOM      3  N   UNL     1       8.673   8.479  19.014  0.00  0.00    +0.000 N 
ATOM      4  H   UNL     1       9.359   8.052  19.628  0.00  0.00    +0.000 HD
ENDROOT
BRANCH   3   5
ATOM      5  C   UNL     1       8.919   9.830  18.683  0.00  0.00    +0.000 A 
ATOM      6  C   UNL     1       8.118  10.558  17.799  0.00  0.00    +0.000 A 
ATOM      7  C   UNL     1       8.396  11.919  17.578  0.00  0.00    +0.000 A 
ATOM      8  C   UNL     1       9.527  12.514  18.149  0.00  0.00    +0.000 A 
ATOM      9  C   UNL     1      10.416  11.710  18.867  0.00  0.00    +0.000 A 
ATOM     10  C   UNL     1      10.042  10.421  19.244  0.00  0.00    +0.000 A 
ATOM     11  O   UNL     1      11.776  11.910  18.898  0.00  0.00    +0.000 OA
ATOM     12  C   UNL     1      12.271  13.076  19.516  0.00  0.00    +0.000 C 
ATOM     13  C   UNL     1      11.848  14.386  18.878  0.00  0.00    +0.000 C 
ATOM     14  C   UNL     1      10.345  14.557  18.948  0.00  0.00    +0.000 C 
ATOM     15  O   UNL     1       9.710  13.843  17.882  0.00  0.00    +0.000 OA
ENDBRANCH   3   5
BRANCH   2  16
ATOM     16  C   UNL     1       7.845   6.214  18.738  0.00  0.00    +0.000 C 
BRANCH  16  17
ATOM     17  N   UNL     1       6.988   5.354  17.945  0.00  0.00    +0.000 N 
ATOM     18  C   UNL     1       7.360   4.721  16.790  0.00  0.00    +0.000 A 
ATOM     19  N   UNL     1       6.346   4.084  16.238  0.00  0.00    +0.000 NA
ATOM     20  C   UNL     1       5.269   4.352  17.040  0.00  0.00    +0.000 A 
ATOM     21  C   UNL     1       3.930   3.954  16.894  0.00  0.00    +0.000 A 
ATOM     22  C   UNL     1       2.999   4.353  17.863  0.00  0.00    +0.000 A 
ATOM     23  C   UNL     1       3.394   5.130  18.953  0.00  0.00    +0.000 A 
ATOM     24  C   UNL     1       4.724   5.539  19.111  0.00  0.00    +0.000 A 
ATOM     25  C   UNL     1       5.642   5.133  18.135  0.00  0.00    +0.000 A 
ENDBRANCH  16  17
ENDBRANCH   2  16
TORSDOF 3
ENDMDL
MODEL 5
REMARK VINA RESULT:      -7.4      1.512      2.470
REMARK  Name = 
REMARK  3 active torsions:
REMARK  status: ('A' for Active; 'I' for Inactive)
REMARK    1  A    between atoms: C_2  and  C_3
REMARK    2  A    between atoms: C_3  and  N_4
REMARK    3  A    between atoms: N_13  and  C_14
REMARK                            x       y       z     vdW  Elec       q    Type
REMARK                         _______ _______ _______ _____ _____    ______ ____
ROOT
ATOM      1  O   UNL     1       1.361   5.337  18.081  0.00  0.00    +0.000 OA
ATOM      2  C   UNL     1       2.497   5.801  18.052  0.00  0.00    +0.000 C 
ATOM      3  N   UNL     1       2.889   6.991  18.644  0.00  0.00    +0.000 N 
ATOM      4  H   UNL     1       3.650   7.477  18.181  0.00  0.00    +0.000 HD
ENDROOT
BRANCH   3   5
ATOM      5  C   UNL     1       2.000   7.815  19.368  0.00  0.00    +0.000 A 
ATOM      6  C   UNL     1       1.578   7.528  20.669  0.00  0.00    +0.000 A 
ATOM      7  C   UNL     1       0.744   8.440  21.342  0.00  0.00    +0.000 A 
ATOM      8  C   UNL     1       0.250   9.570  20.680  0.00  0.00    +0.000 A 
ATOM      9  C   UNL     1       0.529   9.725  19.320  0.00  0.00    +0.000 A 
ATOM     10  C   UNL     1       1.504   8.934  18.713  0.00  0.00    +0.000 A 
ATOM     11  O   UNL     1      -0.336  10.301  18.421  0.00  0.00    +0.000 OA
ATOM     12  C   UNL     1      -0.632  11.673  18.556  0.00  0.00    +0.000 C 
ATOM     13  C   UNL     1      -1.324  12.071  19.847  0.00  0.00    +0.000 C 
ATOM     14  C   UNL     1      -0.440  11.777  21.042  0.00  0.00    +0.000 C 
ATOM     15  O   UNL     1      -0.548  10.400  21.418  0.00  0.00    +0.000 OA
ENDBRANCH   3   5
BRANCH   2  16
ATOM     16  C   UNL     1       3.621   5.077  17.343  0.00  0.00    +0.000 C 
BRANCH  16  17
ATOM     17  N   UNL     1       4.858   5.034  18.099  0.00  0.00    +0.000 N 
ATOM     18  C   UNL     1       5.115   4.184  19.141  0.00  0.00    +0.000 A 
ATOM     19  N   UNL     1       6.284   4.438  19.695  0.00  0.00    +0.000 NA
ATOM     20  C   UNL     1       6.780   5.519  19.018  0.00  0.00    +0.000 A 
ATOM     21  C   UNL     1       7.977   6.225  19.224  0.00  0.00    +0.000 A 
ATOM     22  C   UNL     1       8.274   7.307  18.384  0.00  0.00    +0.000 A 
ATOM     23  C   UNL     1       7.399   7.677  17.362  0.00  0.00    +0.000 A 
ATOM     24  C   UNL     1       6.200   6.986  17.146  0.00  0.00    +0.000 A 
ATOM     25  C   UNL     1       5.917   5.907  17.993  0.00  0.00    +0.000 A 
ENDBRANCH  16  17
ENDBRANCH   2  16
TORSDOF 3
ENDMDL
MODEL 6
REMARK VINA RESULT:      -7.4      2.367      3.440
REMARK  Name = 
REMARK  3 active torsions:
REMARK  status: ('A' for Active; 'I' for Inactive)
REMARK    1  A    between atoms: C_2  and  C_3
REMARK    2  A    between atoms: C_3  and  N_4
REMARK    3  A    between atoms: N_13  and  C_14
REMARK                            x       y       z     vdW  Elec       q    Type
REMARK                         _______ _______ _______ _____ _____    ______ ____
ROOT
ATOM      1  O   UNL     1       2.350   7.532  19.505  0.00  0.00    +0.000 OA
ATOM      2  C   UNL     1       2.689   7.745  18.344  0.00  0.00    +0.000 C 
ATOM      3  N   UNL     1       2.227   8.786  17.555  0.00  0.00    +0.000 N 
ATOM      4  H   UNL     1       2.194   8.594  16.560  0.00  0.00    +0.000 HD
ENDROOT
BRANCH   3   5
ATOM      5  C   UNL     1       1.297   9.743  18.016  0.00  0.00    +0.000 A 
ATOM      6  C   UNL     1      -0.085   9.536  17.998  0.00  0.00    +0.000 A 
ATOM      7  C   UNL     1      -0.937  10.515  18.541  0.00  0.00    +0.000 A 
ATOM      8  C   UNL     1      -0.418  11.734  18.994  0.00  0.00    +0.000 A 
ATOM      9  C   UNL     1       0.943  11.989  18.816  0.00  0.00    +0.000 A 
ATOM     10  C   UNL     1       1.808  10.954  18.462  0.00  0.00    +0.000 A 
ATOM     11  O   UNL     1       1.462  13.237  18.562  0.00  0.00    +0.000 OA
ATOM     12  C   UNL     1       1.369  14.222  19.567  0.00  0.00    +0.000 C 
ATOM     13  C   UNL     1      -0.039  14.621  19.965  0.00  0.00    +0.000 C 
ATOM     14  C   UNL     1      -0.786  13.442  20.552  0.00  0.00    +0.000 C 
ATOM     15  O   UNL     1      -1.323  12.620  19.510  0.00  0.00    +0.000 OA
ENDBRANCH   3   5
BRANCH   2  16
ATOM     16  C   UNL     1       3.694   6.853  17.647  0.00  0.00    +0.000 C 
BRANCH  16  17
ATOM     17  N   UNL     1       3.978   5.623  18.359  0.00  0.00    +0.000 N 
ATOM     18  C   UNL     1       5.180   5.304  18.932  0.00  0.00    +0.000 A 
ATOM     19  N   UNL     1       5.171   4.083  19.427  0.00  0.00    +0.000 NA
ATOM     20  C   UNL     1       3.936   3.576  19.124  0.00  0.00    +0.000 A 
ATOM     21  C   UNL     1       3.410   2.300  19.384  0.00  0.00    +0.000 A 
ATOM     22  C   UNL     1       2.098   2.017  18.977  0.00  0.00    +0.000 A 
ATOM     23  C   UNL     1       1.329   2.982  18.327  0.00  0.00    +0.000 A 
ATOM     24  C   UNL     1       1.841   4.258  18.057  0.00  0.00    +0.000 A 
ATOM     25  C   UNL     1       3.152   4.526  18.469  0.00  0.00    +0.000 A 
ENDBRANCH  16  17
ENDBRANCH   2  16
TORSDOF 3
ENDMDL
MODEL 7
REMARK VINA RESULT:      -7.4      2.163      3.377
REMARK  Name = 
REMARK  3 active torsions:
REMARK  status: ('A' for Active; 'I' for Inactive)
REMARK    1  A    between atoms: C_2  and  C_3
REMARK    2  A    between atoms: C_3  and  N_4
REMARK    3  A    between atoms: N_13  and  C_14
REMARK                            x       y       z     vdW  Elec       q    Type
REMARK                         _______ _______ _______ _____ _____    ______ ____
ROOT
ATOM      1  O   UNL     1       2.153   7.169  19.679  0.00  0.00    +0.000 OA
ATOM      2  C   UNL     1       2.522   7.643  18.609  0.00  0.00    +0.000 C 
ATOM      3  N   UNL     1       2.011   8.792  18.026  0.00  0.00    +0.000 N 
ATOM      4  H   UNL     1       2.034   8.811  17.012  0.00  0.00    +0.000 HD
ENDROOT
BRANCH   3   5
ATOM      5  C   UNL     1       0.989   9.563  18.621  0.00  0.00    +0.000 A 
ATOM      6  C   UNL     1       1.099  10.128  19.894  0.00  0.00    +0.000 A 
ATOM      7  C   UNL     1       0.059  10.939  20.382  0.00  0.00    +0.000 A 
ATOM      8  C   UNL     1      -1.124  11.092  19.649  0.00  0.00    +0.000 A 
ATOM      9  C   UNL     1      -1.282  10.357  18.473  0.00  0.00    +0.000 A 
ATOM     10  C   UNL     1      -0.187   9.713  17.899  0.00  0.00    +0.000 A 
ATOM     11  O   UNL     1      -2.489   9.866  18.033  0.00  0.00    +0.000 OA
ATOM     12  C   UNL     1      -3.485  10.783  17.640  0.00  0.00    +0.000 C 
ATOM     13  C   UNL     1      -3.985  11.715  18.727  0.00  0.00    +0.000 C 
ATOM     14  C   UNL     1      -2.864  12.601  19.232  0.00  0.00    +0.000 C 
ATOM     15  O   UNL     1      -2.075  11.905  20.202  0.00  0.00    +0.000 OA
ENDBRANCH   3   5
BRANCH   2  16
ATOM     16  C   UNL     1       3.623   6.990  17.801  0.00  0.00    +0.000 C 
BRANCH  16  17
ATOM     17  N   UNL     1       4.091   5.735  18.357  0.00  0.00    +0.000 N 
ATOM     18  C   UNL     1       5.341   5.520  18.872  0.00  0.00    +0.000 A 
ATOM     19  N   UNL     1       5.512   4.259  19.217  0.00  0.00    +0.000 NA
ATOM     20  C   UNL     1       4.348   3.626  18.872  0.00  0.00    +0.000 A 
ATOM     21  C   UNL     1       4.005   2.269  18.984  0.00  0.00    +0.000 A 
ATOM     22  C   UNL     1       2.733   1.858  18.564  0.00  0.00    +0.000 A 
ATOM     23  C   UNL     1       1.822   2.778  18.044  0.00  0.00    +0.000 A 
ATOM     24  C   UNL     1       2.149   4.135  17.922  0.00  0.00    +0.000 A 
ATOM     25  C   UNL     1       3.424   4.530  18.346  0.00  0.00    +0.000 A 
ENDBRANCH  16  17
ENDBRANCH   2  16
TORSDOF 3
ENDMDL
MODEL 8
REMARK VINA RESULT:      -7.4      1.124      1.874
REMARK  Name = 
REMARK  3 active torsions:
REMARK  status: ('A' for Active; 'I' for Inactive)
REMARK    1  A    between atoms: C_2  and  C_3
REMARK    2  A    between atoms: C_3  and  N_4
REMARK    3  A    between atoms: N_13  and  C_14
REMARK                            x       y       z     vdW  Elec       q    Type
REMARK                         _______ _______ _______ _____ _____    ______ ____
ROOT
ATOM      1  O   UNL     1       1.368   5.010  20.198  0.00  0.00    +0.000 OA
ATOM      2  C   UNL     1       2.073   5.361  19.255  0.00  0.00    +0.000 C 
ATOM      3  N   UNL     1       2.360   6.675  18.919  0.00  0.00    +0.000 N 
ATOM      4  H   UNL     1       2.522   6.844  17.932  0.00  0.00    +0.000 HD
ENDROOT
BRANCH   3   5
ATOM      5  C   UNL     1       1.863   7.778  19.647  0.00  0.00    +0.000 A 
ATOM      6  C   UNL     1       1.691   7.765  21.034  0.00  0.00    +0.000 A 
ATOM      7  C   UNL     1       1.255   8.932  21.686  0.00  0.00    +0.000 A 
ATOM      8  C   UNL     1       0.890  10.063  20.947  0.00  0.00    +0.000 A 
ATOM      9  C   UNL     1       0.885   9.979  19.553  0.00  0.00    +0.000 A 
ATOM     10  C   UNL     1       1.496   8.900  18.916  0.00  0.00    +0.000 A 
ATOM     11  O   UNL     1      -0.010  10.645  18.749  0.00  0.00    +0.000 OA
ATOM     12  C   UNL     1       0.046  12.053  18.702  0.00  0.00    +0.000 C 
ATOM     13  C   UNL     1      -0.231  12.764  20.013  0.00  0.00    +0.000 C 
ATOM     14  C   UNL     1       0.810  12.400  21.052  0.00  0.00    +0.000 C 
ATOM     15  O   UNL     1       0.485  11.151  21.670  0.00  0.00    +0.000 OA
ENDBRANCH   3   5
BRANCH   2  16
ATOM     16  C   UNL     1       2.727   4.344  18.345  0.00  0.00    +0.000 C 
BRANCH  16  17
ATOM     17  N   UNL     1       4.176   4.397  18.354  0.00  0.00    +0.000 N 
ATOM     18  C   UNL     1       4.951   4.549  19.472  0.00  0.00    +0.000 A 
ATOM     19  N   UNL     1       6.228   4.656  19.164  0.00  0.00    +0.000 NA
ATOM     20  C   UNL     1       6.277   4.619  17.796  0.00  0.00    +0.000 A 
ATOM     21  C   UNL     1       7.386   4.732  16.941  0.00  0.00    +0.000 A 
ATOM     22  C   UNL     1       7.181   4.654  15.557  0.00  0.00    +0.000 A 
ATOM     23  C   UNL     1       5.900   4.467  15.036  0.00  0.00    +0.000 A 
ATOM     24  C   UNL     1       4.783   4.356  15.874  0.00  0.00    +0.000 A 
ATOM     25  C   UNL     1       5.004   4.436  17.255  0.00  0.00    +0.000 A 
ENDBRANCH  16  17
ENDBRANCH   2  16
TORSDOF 3
ENDMDL
MODEL 9
REMARK VINA RESULT:      -7.3      3.162      8.398
REMARK  Name = 
REMARK  3 active torsions:
REMARK  status: ('A' for Active; 'I' for Inactive)
REMARK    1  A    between atoms: C_2  and  C_3
REMARK    2  A    between atoms: C_3  and  N_4
REMARK    3  A    between atoms: N_13  and  C_14
REMARK                            x       y       z     vdW  Elec       q    Type
REMARK                         _______ _______ _______ _____ _____    ______ ____
ROOT
ATOM      1  O   UNL     1      -0.516   8.176  21.143  0.00  0.00    +0.000 OA
ATOM      2  C   UNL     1       0.539   8.536  21.656  0.00  0.00    +0.000 C 
ATOM      3  N   UNL     1       1.798   8.080  21.299  0.00  0.00    +0.000 N 
ATOM      4  H   UNL     1       2.484   8.068  22.047  0.00  0.00    +0.000 HD
ENDROOT
BRANCH   3   5
ATOM      5  C   UNL     1       2.006   7.130  20.275  0.00  0.00    +0.000 A 
ATOM      6  C   UNL     1       2.342   7.481  18.964  0.00  0.00    +0.000 A 
ATOM      7  C   UNL     1       2.598   6.467  18.023  0.00  0.00    +0.000 A 
ATOM      8  C   UNL     1       2.412   5.121  18.361  0.00  0.00    +0.000 A 
ATOM      9  C   UNL     1       1.886   4.814  19.618  0.00  0.00    +0.000 A 
ATOM     10  C   UNL     1       1.818   5.795  20.606  0.00  0.00    +0.000 A 
ATOM     11  O   UNL     1       1.055   3.745  19.860  0.00  0.00    +0.000 OA
ATOM     12  C   UNL     1       1.576   2.443  19.716  0.00  0.00    +0.000 C 
ATOM     13  C   UNL     1       2.045   2.074  18.321  0.00  0.00    +0.000 C 
ATOM     14  C   UNL     1       3.190   2.965  17.887  0.00  0.00    +0.000 C 
ATOM     15  O   UNL     1       2.692   4.209  17.382  0.00  0.00    +0.000 OA
ENDBRANCH   3   5
BRANCH   2  16
ATOM     16  C   UNL     1       0.559   9.563  22.768  0.00  0.00    +0.000 C 
BRANCH  16  17
ATOM     17  N   UNL     1      -0.276  10.721  22.509  0.00  0.00    +0.000 N 
ATOM     18  C   UNL     1      -1.446  11.009  23.159  0.00  0.00    +0.000 A 
ATOM     19  N   UNL     1      -2.033  12.073  22.649  0.00  0.00    +0.000 NA
ATOM     20  C   UNL     1      -1.240  12.460  21.602  0.00  0.00    +0.000 A 
ATOM     21  C   UNL     1      -1.419  13.515  20.692  0.00  0.00    +0.000 A 
ATOM     22  C   UNL     1      -0.451  13.719  19.699  0.00  0.00    +0.000 A 
ATOM     23  C   UNL     1       0.669  12.893  19.615  0.00  0.00    +0.000 A 
ATOM     24  C   UNL     1       0.862  11.835  20.512  0.00  0.00    +0.000 A 
ATOM     25  C   UNL     1      -0.114  11.643  21.499  0.00  0.00    +0.000 A 
ENDBRANCH  16  17
ENDBRANCH   2  16
TORSDOF 3
ENDMDL
