MODEL 1
REMARK VINA RESULT:      -7.5      0.000      0.000
REMARK  Name = 
REMARK  4 active torsions:
REMARK  status: ('A' for Active; 'I' for Inactive)
REMARK    1  A    between atoms: C_2  and  S_14
REMARK    2  A    between atoms: N_3  and  C_4
REMARK    3  A    between atoms: C_8  and  C_9
REMARK    4  A    between atoms: S_14  and  O_17
REMARK                            x       y       z     vdW  Elec       q    Type
REMARK                         _______ _______ _______ _____ _____    ______ ____
ROOT
ATOM      1  C   UNL     1       3.569   3.644  18.070  0.00  0.00    +0.000 A 
ATOM      2  C   UNL     1       2.376   3.793  17.358  0.00  0.00    +0.000 A 
ATOM      3  C   UNL     1       1.141   3.656  17.989  0.00  0.00    +0.000 A 
ATOM      4  C   UNL     1       1.080   3.382  19.350  0.00  0.00    +0.000 A 
ATOM      5  C   UNL     1       2.259   3.226  20.093  0.00  0.00    +0.000 A 
ATOM      6  C   UNL     1       3.502   3.341  19.437  0.00  0.00    +0.000 A 
ENDROOT
BRANCH   1   9
ATOM      7  O   UNL     1       5.536   5.919  18.208  0.00  0.00    +0.000 OA
ATOM      8  C   UNL     1       5.673   4.885  17.568  0.00  0.00    +0.000 C 
ATOM      9  N   UNL     1       4.835   3.781  17.469  0.00  0.00    +0.000 N 
ATOM     10  H   UNL     1       5.199   2.995  16.928  0.00  0.00    +0.000 HD
BRANCH   8  11
ATOM     11  S   UNL     1       7.156   4.676  16.537  0.00  0.00    +0.000 S 
ATOM     12  O   UNL     1       8.232   4.182  17.369  0.00  0.00    +0.000 OA
ATOM     13  O   UNL     1       6.722   4.026  15.319  0.00  0.00    +0.000 OA
BRANCH  11  14
ATOM     14  O   UNL     1       7.475   6.230  16.220  0.00  0.00    +0.000 OA
ATOM     15  H   UNL     1       8.378   6.428  16.550  0.00  0.00    +0.000 HD
ENDBRANCH  11  14
ENDBRANCH   8  11
ENDBRANCH   1   9
BRANCH   5  16
ATOM     16  C   UNL     1       2.193   2.962  21.578  0.00  0.00    +0.000 C 
ATOM     17  F   UNL     1       3.092   2.031  22.006  0.00  0.00    +0.000 F 
ATOM     18  F   UNL     1       2.432   4.078  22.320  0.00  0.00    +0.000 F 
ATOM     19  F   UNL     1       0.972   2.505  21.970  0.00  0.00    +0.000 F 
ENDBRANCH   5  16
TORSDOF 4
ENDMDL
MODEL 2
REMARK VINA RESULT:      -7.5      1.232      1.842
REMARK  Name = 
REMARK  4 active torsions:
REMARK  status: ('A' for Active; 'I' for Inactive)
REMARK    1  A    between atoms: C_2  and  S_14
REMARK    2  A    between atoms: N_3  and  C_4
REMARK    3  A    between atoms: C_8  and  C_9
REMARK    4  A    between atoms: S_14  and  O_17
REMARK                            x       y       z     vdW  Elec       q    Type
REMARK                         _______ _______ _______ _____ _____    ______ ____
ROOT
ATOM      1  C   UNL     1       4.257   3.439  18.412  0.00  0.00    +0.000 A 
ATOM      2  C   UNL     1       3.701   2.510  17.530  0.00  0.00    +0.000 A 
ATOM      3  C   UNL     1       2.466   1.918  17.792  0.00  0.00    +0.000 A 
ATOM      4  C   UNL     1       1.759   2.262  18.938  0.00  0.00    +0.000 A 
ATOM      5  C   UNL     1       2.289   3.191  19.844  0.00  0.00    +0.000 A 
ATOM      6  C   UNL     1       3.552   3.761  19.580  0.00  0.00    +0.000 A 
ENDROOT
BRANCH   1   9
ATOM      7  O   UNL     1       4.874   6.268  17.586  0.00  0.00    +0.000 OA
ATOM      8  C   UNL     1       5.691   5.377  17.774  0.00  0.00    +0.000 C 
ATOM      9  N   UNL     1       5.498   4.061  18.178  0.00  0.00    +0.000 N 
ATOM     10  H   UNL     1       6.347   3.518  18.343  0.00  0.00    +0.000 HD
BRANCH   8  11
ATOM     11  S   UNL     1       7.453   5.720  17.481  0.00  0.00    +0.000 S 
ATOM     12  O   UNL     1       7.591   6.364  16.193  0.00  0.00    +0.000 OA
ATOM     13  O   UNL     1       7.975   6.271  18.713  0.00  0.00    +0.000 OA
BRANCH  11  14
ATOM     14  O   UNL     1       7.990   4.203  17.313  0.00  0.00    +0.000 OA
ATOM     15  H   UNL     1       7.223   3.597  17.403  0.00  0.00    +0.000 HD
ENDBRANCH  11  14
ENDBRANCH   8  11
ENDBRANCH   1   9
BRANCH   5  16
ATOM     16  C   UNL     1       1.506   3.589  21.072  0.00  0.00    +0.000 C 
ATOM     17  F   UNL     1       0.873   2.544  21.678  0.00  0.00    +0.000 F 
ATOM     18  F   UNL     1       2.288   4.156  22.032  0.00  0.00    +0.000 F 
ATOM     19  F   UNL     1       0.534   4.500  20.794  0.00  0.00    +0.000 F 
ENDBRANCH   5  16
TORSDOF 4
ENDMDL
MODEL 3
REMARK VINA RESULT:      -7.4      1.230      1.631
REMARK  Name = 
REMARK  4 active torsions:
REMARK  status: ('A' for Active; 'I' for Inactive)
REMARK    1  A    between atoms: C_2  and  S_14
REMARK    2  A    between atoms: N_3  and  C_4
REMARK    3  A    between atoms: C_8  and  C_9
REMARK    4  A    between atoms: S_14  and  O_17
REMARK                            x       y       z     vdW  Elec       q    Type
REMARK                         _______ _______ _______ _____ _____    ______ ____
ROOT
ATOM      1  C   UNL     1       4.183   3.429  18.173  0.00  0.00    +0.000 A 
ATOM      2  C   UNL     1       3.546   2.436  17.425  0.00  0.00    +0.000 A 
ATOM      3  C   UNL     1       2.325   1.901  17.832  0.00  0.00    +0.000 A 
ATOM      4  C   UNL     1       1.712   2.366  18.990  0.00  0.00    +0.000 A 
ATOM      5  C   UNL     1       2.325   3.361  19.763  0.00  0.00    +0.000 A 
ATOM      6  C   UNL     1       3.574   3.875  19.354  0.00  0.00    +0.000 A 
ENDROOT
BRANCH   1   9
ATOM      7  O   UNL     1       4.768   5.603  16.175  0.00  0.00    +0.000 OA
ATOM      8  C   UNL     1       5.595   4.989  16.834  0.00  0.00    +0.000 C 
ATOM      9  N   UNL     1       5.413   3.996  17.791  0.00  0.00    +0.000 N 
ATOM     10  H   UNL     1       6.259   3.681  18.269  0.00  0.00    +0.000 HD
BRANCH   8  11
ATOM     11  S   UNL     1       7.362   5.336  16.580  0.00  0.00    +0.000 S 
ATOM     12  O   UNL     1       7.602   6.736  16.860  0.00  0.00    +0.000 OA
ATOM     13  O   UNL     1       8.089   4.256  17.211  0.00  0.00    +0.000 OA
BRANCH  11  14
ATOM     14  O   UNL     1       7.436   5.154  14.974  0.00  0.00    +0.000 OA
ATOM     15  H   UNL     1       7.039   5.950  14.559  0.00  0.00    +0.000 HD
ENDBRANCH  11  14
ENDBRANCH   8  11
ENDBRANCH   1   9
BRANCH   5  16
ATOM     16  C   UNL     1       1.644   3.890  21.003  0.00  0.00    +0.000 C 
ATOM     17  F   UNL     1       1.132   2.912  21.803  0.00  0.00    +0.000 F 
ATOM     18  F   UNL     1       2.483   4.615  21.793  0.00  0.00    +0.000 F 
ATOM     19  F   UNL     1       0.601   4.714  20.710  0.00  0.00    +0.000 F 
ENDBRANCH   5  16
TORSDOF 4
ENDMDL
MODEL 4
REMARK VINA RESULT:      -7.3      1.220      1.489
REMARK  Name = 
REMARK  4 active torsions:
REMARK  status: ('A' for Active; 'I' for Inactive)
REMARK    1  A    between atoms: C_2  and  S_14
REMARK    2  A    between atoms: N_3  and  C_4
REMARK    3  A    between atoms: C_8  and  C_9
REMARK    4  A    between atoms: S_14  and  O_17
REMARK                            x       y       z     vdW  Elec       q    Type
REMARK                         _______ _______ _______ _____ _____    ______ ____
ROOT
ATOM      1  C   UNL     1       4.193   3.349  18.333  0.00  0.00    +0.000 A 
ATOM      2  C   UNL     1       3.589   2.397  17.509  0.00  0.00    +0.000 A 
ATOM      3  C   UNL     1       2.352   1.842  17.837  0.00  0.00    +0.000 A 
ATOM      4  C   UNL     1       1.693   2.247  18.992  0.00  0.00    +0.000 A 
ATOM      5  C   UNL     1       2.272   3.200  19.840  0.00  0.00    +0.000 A 
ATOM      6  C   UNL     1       3.536   3.733  19.510  0.00  0.00    +0.000 A 
ENDROOT
BRANCH   1   9
ATOM      7  O   UNL     1       4.823   5.863  16.800  0.00  0.00    +0.000 OA
ATOM      8  C   UNL     1       5.639   5.094  17.292  0.00  0.00    +0.000 C 
ATOM      9  N   UNL     1       5.437   3.935  18.032  0.00  0.00    +0.000 N 
ATOM     10  H   UNL     1       6.280   3.495  18.406  0.00  0.00    +0.000 HD
BRANCH   8  11
ATOM     11  S   UNL     1       7.412   5.418  17.052  0.00  0.00    +0.000 S 
ATOM     12  O   UNL     1       8.148   4.213  17.366  0.00  0.00    +0.000 OA
ATOM     13  O   UNL     1       7.535   6.130  15.799  0.00  0.00    +0.000 OA
BRANCH  11  14
ATOM     14  O   UNL     1       7.655   6.454  18.272  0.00  0.00    +0.000 OA
ATOM     15  H   UNL     1       8.594   6.740  18.245  0.00  0.00    +0.000 HD
ENDBRANCH  11  14
ENDBRANCH   8  11
ENDBRANCH   1   9
BRANCH   5  16
ATOM     16  C   UNL     1       1.540   3.664  21.077  0.00  0.00    +0.000 C 
ATOM     17  F   UNL     1       0.816   2.680  21.682  0.00  0.00    +0.000 F 
ATOM     18  F   UNL     1       2.380   4.148  22.033  0.00  0.00    +0.000 F 
ATOM     19  F   UNL     1       0.657   4.665  20.812  0.00  0.00    +0.000 F 
ENDBRANCH   5  16
TORSDOF 4
ENDMDL
MODEL 5
REMARK VINA RESULT:      -7.3      1.878      2.211
REMARK  Name = 
REMARK  4 active torsions:
REMARK  status: ('A' for Active; 'I' for Inactive)
REMARK    1  A    between atoms: C_2  and  S_14
REMARK    2  A    between atoms: N_3  and  C_4
REMARK    3  A    between atoms: C_8  and  C_9
REMARK    4  A    between atoms: S_14  and  O_17
REMARK                            x       y       z     vdW  Elec       q    Type
REMARK                         _______ _______ _______ _____ _____    ______ ____
ROOT
ATOM      1  C   UNL     1       3.505   5.447  18.504  0.00  0.00    +0.000 A 
ATOM      2  C   UNL     1       3.099   6.551  19.256  0.00  0.00    +0.000 A 
ATOM      3  C   UNL     1       2.092   6.438  20.213  0.00  0.00    +0.000 A 
ATOM      4  C   UNL     1       1.485   5.209  20.444  0.00  0.00    +0.000 A 
ATOM      5  C   UNL     1       1.870   4.082  19.706  0.00  0.00    +0.000 A 
ATOM      6  C   UNL     1       2.871   4.216  18.721  0.00  0.00    +0.000 A 
ENDROOT
BRANCH   1   9
ATOM      7  O   UNL     1       6.364   4.512  18.626  0.00  0.00    +0.000 OA
ATOM      8  C   UNL     1       5.832   5.082  17.683  0.00  0.00    +0.000 C 
ATOM      9  N   UNL     1       4.521   5.521  17.532  0.00  0.00    +0.000 N 
ATOM     10  H   UNL     1       4.285   5.906  16.616  0.00  0.00    +0.000 HD
BRANCH   8  11
ATOM     11  S   UNL     1       6.829   5.482  16.216  0.00  0.00    +0.000 S 
ATOM     12  O   UNL     1       7.850   4.469  16.061  0.00  0.00    +0.000 OA
ATOM     13  O   UNL     1       5.897   5.848  15.172  0.00  0.00    +0.000 OA
BRANCH  11  14
ATOM     14  O   UNL     1       7.565   6.818  16.758  0.00  0.00    +0.000 OA
ATOM     15  H   UNL     1       8.466   6.848  16.368  0.00  0.00    +0.000 HD
ENDBRANCH  11  14
ENDBRANCH   8  11
ENDBRANCH   1   9
BRANCH   5  16
ATOM     16  C   UNL     1       1.234   2.739  19.980  0.00  0.00    +0.000 C 
ATOM     17  F   UNL     1       0.102   2.514  19.255  0.00  0.00    +0.000 F 
ATOM     18  F   UNL     1       2.067   1.698  19.701  0.00  0.00    +0.000 F 
ATOM     19  F   UNL     1       0.875   2.592  21.285  0.00  0.00    +0.000 F 
ENDBRANCH   5  16
TORSDOF 4
ENDMDL
MODEL 6
REMARK VINA RESULT:      -7.2      1.290      1.576
REMARK  Name = 
REMARK  4 active torsions:
REMARK  status: ('A' for Active; 'I' for Inactive)
REMARK    1  A    between atoms: C_2  and  S_14
REMARK    2  A    between atoms: N_3  and  C_4
REMARK    3  A    between atoms: C_8  and  C_9
REMARK    4  A    between atoms: S_14  and  O_17
REMARK                            x       y       z     vdW  Elec       q    Type
REMARK                         _______ _______ _______ _____ _____    ______ ____
ROOT
ATOM      1  C   UNL     1       4.178   3.297  18.135  0.00  0.00    +0.000 A 
ATOM      2  C   UNL     1       3.496   2.229  17.546  0.00  0.00    +0.000 A 
ATOM      3  C   UNL     1       2.269   1.796  18.046  0.00  0.00    +0.000 A 
ATOM      4  C   UNL     1       1.696   2.438  19.138  0.00  0.00    +0.000 A 
ATOM      5  C   UNL     1       2.355   3.512  19.751  0.00  0.00    +0.000 A 
ATOM      6  C   UNL     1       3.608   3.923  19.251  0.00  0.00    +0.000 A 
ENDROOT
BRANCH   1   9
ATOM      7  O   UNL     1       4.784   5.571  16.257  0.00  0.00    +0.000 OA
ATOM      8  C   UNL     1       5.603   4.817  16.764  0.00  0.00    +0.000 C 
ATOM      9  N   UNL     1       5.415   3.766  17.654  0.00  0.00    +0.000 N 
ATOM     10  H   UNL     1       6.267   3.322  18.003  0.00  0.00    +0.000 HD
BRANCH   8  11
ATOM     11  S   UNL     1       7.359   5.001  16.329  0.00  0.00    +0.000 S 
ATOM     12  O   UNL     1       8.151   4.241  17.272  0.00  0.00    +0.000 OA
ATOM     13  O   UNL     1       7.447   4.838  14.894  0.00  0.00    +0.000 OA
BRANCH  11  14
ATOM     14  O   UNL     1       7.556   6.564  16.695  0.00  0.00    +0.000 OA
ATOM     15  H   UNL     1       8.490   6.698  16.967  0.00  0.00    +0.000 HD
ENDBRANCH  11  14
ENDBRANCH   8  11
ENDBRANCH   1   9
BRANCH   5  16
ATOM     16  C   UNL     1       1.716   4.232  20.916  0.00  0.00    +0.000 C 
ATOM     17  F   UNL     1       2.275   5.447  21.178  0.00  0.00    +0.000 F 
ATOM     18  F   UNL     1       0.389   4.467  20.723  0.00  0.00    +0.000 F 
ATOM     19  F   UNL     1       1.807   3.524  22.075  0.00  0.00    +0.000 F 
ENDBRANCH   5  16
TORSDOF 4
ENDMDL
MODEL 7
REMARK VINA RESULT:      -7.2      0.699      1.146
REMARK  Name = 
REMARK  4 active torsions:
REMARK  status: ('A' for Active; 'I' for Inactive)
REMARK    1  A    between atoms: C_2  and  S_14
REMARK    2  A    between atoms: N_3  and  C_4
REMARK    3  A    between atoms: C_8  and  C_9
REMARK    4  A    between atoms: S_14  and  O_17
REMARK                            x       y       z     vdW  Elec       q    Type
REMARK                         _______ _______ _______ _____ _____    ______ ____
ROOT
ATOM      1  C   UNL     1       3.736   3.954  18.011  0.00  0.00    +0.000 A 
ATOM      2  C   UNL     1       2.573   3.958  17.237  0.00  0.00    +0.000 A 
ATOM      3  C   UNL     1       1.332   3.669  17.803  0.00  0.00    +0.000 A 
ATOM      4  C   UNL     1       1.235   3.386  19.160  0.00  0.00    +0.000 A 
ATOM      5  C   UNL     1       2.383   3.373  19.964  0.00  0.00    +0.000 A 
ATOM      6  C   UNL     1       3.635   3.641  19.373  0.00  0.00    +0.000 A 
ENDROOT
BRANCH   1   9
ATOM      7  O   UNL     1       4.747   6.468  16.700  0.00  0.00    +0.000 OA
ATOM      8  C   UNL     1       5.382   5.435  16.863  0.00  0.00    +0.000 C 
ATOM      9  N   UNL     1       5.005   4.245  17.476  0.00  0.00    +0.000 N 
ATOM     10  H   UNL     1       5.738   3.539  17.562  0.00  0.00    +0.000 HD
BRANCH   8  11
ATOM     11  S   UNL     1       7.078   5.331  16.218  0.00  0.00    +0.000 S 
ATOM     12  O   UNL     1       7.813   4.364  17.004  0.00  0.00    +0.000 OA
ATOM     13  O   UNL     1       6.968   5.274  14.776  0.00  0.00    +0.000 OA
BRANCH  11  14
ATOM     14  O   UNL     1       7.612   6.796  16.648  0.00  0.00    +0.000 OA
ATOM     15  H   UNL     1       7.876   7.275  15.833  0.00  0.00    +0.000 HD
ENDBRANCH  11  14
ENDBRANCH   8  11
ENDBRANCH   1   9
BRANCH   5  16
ATOM     16  C   UNL     1       2.273   3.099  21.445  0.00  0.00    +0.000 C 
ATOM     17  F   UNL     1       1.054   2.617  21.821  0.00  0.00    +0.000 F 
ATOM     18  F   UNL     1       3.183   2.184  21.878  0.00  0.00    +0.000 F 
ATOM     19  F   UNL     1       2.477   4.215  22.196  0.00  0.00    +0.000 F 
ENDBRANCH   5  16
TORSDOF 4
ENDMDL
MODEL 8
REMARK VINA RESULT:      -7.2      0.827      1.756
REMARK  Name = 
REMARK  4 active torsions:
REMARK  status: ('A' for Active; 'I' for Inactive)
REMARK    1  A    between atoms: C_2  and  S_14
REMARK    2  A    between atoms: N_3  and  C_4
REMARK    3  A    between atoms: C_8  and  C_9
REMARK    4  A    between atoms: S_14  and  O_17
REMARK                            x       y       z     vdW  Elec       q    Type
REMARK                         _______ _______ _______ _____ _____    ______ ____
ROOT
ATOM      1  C   UNL     1       3.617   4.417  18.311  0.00  0.00    +0.000 A 
ATOM      2  C   UNL     1       2.493   4.361  17.484  0.00  0.00    +0.000 A 
ATOM      3  C   UNL     1       1.277   3.867  17.955  0.00  0.00    +0.000 A 
ATOM      4  C   UNL     1       1.164   3.435  19.271  0.00  0.00    +0.000 A 
ATOM      5  C   UNL     1       2.274   3.478  20.126  0.00  0.00    +0.000 A 
ATOM      6  C   UNL     1       3.504   3.955  19.629  0.00  0.00    +0.000 A 
ENDROOT
BRANCH   1   9
ATOM      7  O   UNL     1       5.356   3.519  16.024  0.00  0.00    +0.000 OA
ATOM      8  C   UNL     1       5.610   4.420  16.812  0.00  0.00    +0.000 C 
ATOM      9  N   UNL     1       4.859   4.914  17.872  0.00  0.00    +0.000 N 
ATOM     10  H   UNL     1       5.247   5.730  18.348  0.00  0.00    +0.000 HD
BRANCH   8  11
ATOM     11  S   UNL     1       7.201   5.290  16.675  0.00  0.00    +0.000 S 
ATOM     12  O   UNL     1       7.528   5.436  15.273  0.00  0.00    +0.000 OA
ATOM     13  O   UNL     1       7.145   6.398  17.604  0.00  0.00    +0.000 OA
BRANCH  11  14
ATOM     14  O   UNL     1       8.177   4.148  17.274  0.00  0.00    +0.000 OA
ATOM     15  H   UNL     1       7.670   3.308  17.320  0.00  0.00    +0.000 HD
ENDBRANCH  11  14
ENDBRANCH   8  11
ENDBRANCH   1   9
BRANCH   5  16
ATOM     16  C   UNL     1       2.142   3.040  21.566  0.00  0.00    +0.000 C 
ATOM     17  F   UNL     1       0.910   2.547  21.875  0.00  0.00    +0.000 F 
ATOM     18  F   UNL     1       3.028   2.061  21.899  0.00  0.00    +0.000 F 
ATOM     19  F   UNL     1       2.363   4.060  22.440  0.00  0.00    +0.000 F 
ENDBRANCH   5  16
TORSDOF 4
ENDMDL
MODEL 9
REMARK VINA RESULT:      -7.2      1.888      2.303
REMARK  Name = 
REMARK  4 active torsions:
REMARK  status: ('A' for Active; 'I' for Inactive)
REMARK    1  A    between atoms: C_2  and  S_14
REMARK    2  A    between atoms: N_3  and  C_4
REMARK    3  A    between atoms: C_8  and  C_9
REMARK    4  A    between atoms: S_14  and  O_17
REMARK                            x       y       z     vdW  Elec       q    Type
REMARK                         _______ _______ _______ _____ _____    ______ ____
ROOT
ATOM      1  C   UNL     1       3.592   5.464  18.617  0.00  0.00    +0.000 A 
ATOM      2  C   UNL     1       3.092   6.543  19.350  0.00  0.00    +0.000 A 
ATOM      3  C   UNL     1       2.032   6.378  20.240  0.00  0.00    +0.000 A 
ATOM      4  C   UNL     1       1.466   5.122  20.423  0.00  0.00    +0.000 A 
ATOM      5  C   UNL     1       1.944   4.019  19.703  0.00  0.00    +0.000 A 
ATOM      6  C   UNL     1       2.999   4.206  18.786  0.00  0.00    +0.000 A 
ENDROOT
BRANCH   1   9
ATOM      7  O   UNL     1       6.500   4.768  18.961  0.00  0.00    +0.000 OA
ATOM      8  C   UNL     1       5.991   5.264  17.965  0.00  0.00    +0.000 C 
ATOM      9  N   UNL     1       4.663   5.592  17.713  0.00  0.00    +0.000 N 
ATOM     10  H   UNL     1       4.461   5.929  16.770  0.00  0.00    +0.000 HD
BRANCH   8  11
ATOM     11  S   UNL     1       7.052   5.700  16.554  0.00  0.00    +0.000 S 
ATOM     12  O   UNL     1       7.658   6.988  16.812  0.00  0.00    +0.000 OA
ATOM     13  O   UNL     1       7.807   4.511  16.225  0.00  0.00    +0.000 OA
BRANCH  11  14
ATOM     14  O   UNL     1       5.911   5.929  15.430  0.00  0.00    +0.000 OA
ATOM     15  H   UNL     1       5.881   5.130  14.861  0.00  0.00    +0.000 HD
ENDBRANCH  11  14
ENDBRANCH   8  11
ENDBRANCH   1   9
BRANCH   5  16
ATOM     16  C   UNL     1       1.351   2.648  19.927  0.00  0.00    +0.000 C 
ATOM     17  F   UNL     1       1.183   2.335  21.243  0.00  0.00    +0.000 F 
ATOM     18  F   UNL     1       0.125   2.507  19.352  0.00  0.00    +0.000 F 
ATOM     19  F   UNL     1       2.126   1.657  19.406  0.00  0.00    +0.000 F 
ENDBRANCH   5  16
TORSDOF 4
ENDMDL
