MODEL 1
REMARK VINA RESULT:      -7.9      0.000      0.000
REMARK  Name = 
REMARK  7 active torsions:
REMARK  status: ('A' for Active; 'I' for Inactive)
REMARK    1  A    between atoms: C_1  and  O_2
REMARK    2  A    between atoms: O_2  and  C_3
REMARK    3  A    between atoms: C_6  and  C_7
REMARK    4  A    between atoms: C_7  and  N_8
REMARK    5  A    between atoms: C_9  and  C_11
REMARK    6  A    between atoms: N_15  and  S_16
REMARK    7  A    between atoms: S_16  and  C_19
REMARK                            x       y       z     vdW  Elec       q    Type
REMARK                         _______ _______ _______ _____ _____    ______ ____
ROOT
ATOM      1  C   UNL     1       1.877   4.504  18.765  0.00  0.00    +0.000 C 
ATOM      2  C   UNL     1       1.161   4.185  20.080  0.00  0.00    +0.000 C 
ATOM      3  C   UNL     1       1.233   2.679  20.150  0.00  0.00    +0.000 C 
ATOM      4  C   UNL     1       2.587   2.344  19.548  0.00  0.00    +0.000 C 
ATOM      5  N   UNL     1       3.028   3.536  18.745  0.00  0.00    +0.000 NA
ENDROOT
BRANCH   1   7
ATOM      6  N   UNL     1       1.813   6.758  19.737  0.00  0.00    +0.000 N 
ATOM      7  C   UNL     1       2.059   6.009  18.608  0.00  0.00    +0.000 C 
ATOM      8  O   UNL     1       2.521   6.513  17.585  0.00  0.00    +0.000 OA
ATOM      9  H   UNL     1       1.412   6.321  20.559  0.00  0.00    +0.000 HD
BRANCH   6  10
ATOM     10  C   UNL     1       2.093   8.179  19.769  0.00  0.00    +0.000 C 
BRANCH  10  14
ATOM     11  C   UNL     1      -0.556  10.397  22.366  0.00  0.00    +0.000 A 
ATOM     12  C   UNL     1       0.275   9.404  22.889  0.00  0.00    +0.000 A 
ATOM     13  C   UNL     1       1.133   8.680  22.056  0.00  0.00    +0.000 A 
ATOM     14  C   UNL     1       1.157   8.930  20.678  0.00  0.00    +0.000 A 
ATOM     15  C   UNL     1       0.321   9.927  20.164  0.00  0.00    +0.000 A 
ATOM     16  C   UNL     1      -0.540  10.650  20.995  0.00  0.00    +0.000 A 
BRANCH  11  18
ATOM     17  C   UNL     1      -2.097  12.139  22.784  0.00  0.00    +0.000 C 
ATOM     18  O   UNL     1      -1.355  11.029  23.279  0.00  0.00    +0.000 OA
ENDBRANCH  11  18
ENDBRANCH  10  14
ENDBRANCH   6  10
ENDBRANCH   1   7
BRANCH   5  19
ATOM     19  S   UNL     1       4.561   4.165  19.182  0.00  0.00    +0.000 S 
ATOM     20  O   UNL     1       4.362   5.412  19.874  0.00  0.00    +0.000 OA
ATOM     21  O   UNL     1       5.330   3.079  19.753  0.00  0.00    +0.000 OA
BRANCH  19  22
ATOM     22  C   UNL     1       5.278   4.567  17.594  0.00  0.00    +0.000 A 
ATOM     23  C   UNL     1       4.755   3.974  16.442  0.00  0.00    +0.000 A 
ATOM     24  C   UNL     1       5.404   4.162  15.220  0.00  0.00    +0.000 A 
ATOM     25  C   UNL     1       6.560   4.940  15.158  0.00  0.00    +0.000 A 
ATOM     26 CL   UNL     1       7.414   5.084  13.671  0.00  0.00    +0.000 Cl
ATOM     27  C   UNL     1       7.048   5.578  16.300  0.00  0.00    +0.000 A 
ATOM     28  C   UNL     1       6.399   5.401  17.524  0.00  0.00    +0.000 A 
ENDBRANCH  19  22
ENDBRANCH   5  19
TORSDOF 6
ENDMDL
MODEL 2
REMARK VINA RESULT:      -7.8      1.461      2.057
REMARK  Name = 
REMARK  7 active torsions:
REMARK  status: ('A' for Active; 'I' for Inactive)
REMARK    1  A    between atoms: C_1  and  O_2
REMARK    2  A    between atoms: O_2  and  C_3
REMARK    3  A    between atoms: C_6  and  C_7
REMARK    4  A    between atoms: C_7  and  N_8
REMARK    5  A    between atoms: C_9  and  C_11
REMARK    6  A    between atoms: N_15  and  S_16
REMARK    7  A    between atoms: S_16  and  C_19
REMARK                            x       y       z     vdW  Elec       q    Type
REMARK                         _______ _______ _______ _____ _____    ______ ____
ROOT
ATOM      1  C   UNL     1       1.791   4.314  19.218  0.00  0.00    +0.000 C 
ATOM      2  C   UNL     1       1.336   2.984  19.825  0.00  0.00    +0.000 C 
ATOM      3  C   UNL     1       1.390   2.037  18.651  0.00  0.00    +0.000 C 
ATOM      4  C   UNL     1       2.595   2.504  17.853  0.00  0.00    +0.000 C 
ATOM      5  N   UNL     1       2.897   3.914  18.280  0.00  0.00    +0.000 NA
ENDROOT
BRANCH   1   7
ATOM      6  N   UNL     1       1.832   6.673  19.898  0.00  0.00    +0.000 N 
ATOM      7  C   UNL     1       1.970   5.365  20.307  0.00  0.00    +0.000 C 
ATOM      8  O   UNL     1       2.097   5.068  21.494  0.00  0.00    +0.000 OA
ATOM      9  H   UNL     1       1.750   6.891  18.913  0.00  0.00    +0.000 HD
BRANCH   6  10
ATOM     10  C   UNL     1       1.827   7.760  20.856  0.00  0.00    +0.000 C 
BRANCH  10  14
ATOM     11  C   UNL     1      -0.492  11.157  19.527  0.00  0.00    +0.000 A 
ATOM     12  C   UNL     1      -0.611  10.692  20.838  0.00  0.00    +0.000 A 
ATOM     13  C   UNL     1       0.133   9.592  21.275  0.00  0.00    +0.000 A 
ATOM     14  C   UNL     1       0.999   8.929  20.396  0.00  0.00    +0.000 A 
ATOM     15  C   UNL     1       1.111   9.403  19.084  0.00  0.00    +0.000 A 
ATOM     16  C   UNL     1       0.365  10.500  18.644  0.00  0.00    +0.000 A 
BRANCH  11  18
ATOM     17  C   UNL     1      -2.620  11.931  18.851  0.00  0.00    +0.000 C 
ATOM     18  O   UNL     1      -1.277  12.233  19.217  0.00  0.00    +0.000 OA
ENDBRANCH  11  18
ENDBRANCH  10  14
ENDBRANCH   6  10
ENDBRANCH   1   7
BRANCH   5  19
ATOM     19  S   UNL     1       4.497   4.166  18.836  0.00  0.00    +0.000 S 
ATOM     20  O   UNL     1       4.565   5.462  19.459  0.00  0.00    +0.000 OA
ATOM     21  O   UNL     1       4.915   2.958  19.518  0.00  0.00    +0.000 OA
BRANCH  19  22
ATOM     22  C   UNL     1       5.422   4.279  17.310  0.00  0.00    +0.000 A 
ATOM     23  C   UNL     1       6.788   4.569  17.364  0.00  0.00    +0.000 A 
ATOM     24  C   UNL     1       7.484   4.810  16.177  0.00  0.00    +0.000 A 
ATOM     25  C   UNL     1       6.814   4.756  14.954  0.00  0.00    +0.000 A 
ATOM     26 CL   UNL     1       7.650   5.155  13.504  0.00  0.00    +0.000 Cl
ATOM     27  C   UNL     1       5.463   4.410  14.900  0.00  0.00    +0.000 A 
ATOM     28  C   UNL     1       4.763   4.159  16.082  0.00  0.00    +0.000 A 
ENDBRANCH  19  22
ENDBRANCH   5  19
TORSDOF 6
ENDMDL
MODEL 3
REMARK VINA RESULT:      -7.7      1.622      2.341
REMARK  Name = 
REMARK  7 active torsions:
REMARK  status: ('A' for Active; 'I' for Inactive)
REMARK    1  A    between atoms: C_1  and  O_2
REMARK    2  A    between atoms: O_2  and  C_3
REMARK    3  A    between atoms: C_6  and  C_7
REMARK    4  A    between atoms: C_7  and  N_8
REMARK    5  A    between atoms: C_9  and  C_11
REMARK    6  A    between atoms: N_15  and  S_16
REMARK    7  A    between atoms: S_16  and  C_19
REMARK                            x       y       z     vdW  Elec       q    Type
REMARK                         _______ _______ _______ _____ _____    ______ ____
ROOT
ATOM      1  C   UNL     1       1.759   4.423  19.097  0.00  0.00    +0.000 C 
ATOM      2  C   UNL     1       1.236   3.188  19.835  0.00  0.00    +0.000 C 
ATOM      3  C   UNL     1       1.283   2.114  18.776  0.00  0.00    +0.000 C 
ATOM      4  C   UNL     1       2.527   2.443  17.968  0.00  0.00    +0.000 C 
ATOM      5  N   UNL     1       2.873   3.880  18.244  0.00  0.00    +0.000 NA
ENDROOT
BRANCH   1   7
ATOM      6  N   UNL     1       2.074   6.827  19.488  0.00  0.00    +0.000 N 
ATOM      7  C   UNL     1       1.951   5.583  20.067  0.00  0.00    +0.000 C 
ATOM      8  O   UNL     1       1.870   5.442  21.286  0.00  0.00    +0.000 OA
ATOM      9  H   UNL     1       2.161   6.913  18.483  0.00  0.00    +0.000 HD
BRANCH   6  10
ATOM     10  C   UNL     1       2.110   8.028  20.297  0.00  0.00    +0.000 C 
BRANCH  10  14
ATOM     11  C   UNL     1      -0.983  10.833  19.176  0.00  0.00    +0.000 A 
ATOM     12  C   UNL     1      -0.172  10.250  18.200  0.00  0.00    +0.000 A 
ATOM     13  C   UNL     1       0.832   9.344  18.554  0.00  0.00    +0.000 A 
ATOM     14  C   UNL     1       1.051   9.021  19.899  0.00  0.00    +0.000 A 
ATOM     15  C   UNL     1       0.233   9.610  20.870  0.00  0.00    +0.000 A 
ATOM     16  C   UNL     1      -0.769  10.519  20.518  0.00  0.00    +0.000 A 
BRANCH  11  18
ATOM     17  C   UNL     1      -2.292  11.543  17.341  0.00  0.00    +0.000 C 
ATOM     18  O   UNL     1      -1.923  11.708  18.707  0.00  0.00    +0.000 OA
ENDBRANCH  11  18
ENDBRANCH  10  14
ENDBRANCH   6  10
ENDBRANCH   1   7
BRANCH   5  19
ATOM     19  S   UNL     1       4.467   4.134  18.819  0.00  0.00    +0.000 S 
ATOM     20  O   UNL     1       4.524   5.426  19.452  0.00  0.00    +0.000 OA
ATOM     21  O   UNL     1       4.882   2.923  19.497  0.00  0.00    +0.000 OA
BRANCH  19  22
ATOM     22  C   UNL     1       5.407   4.261  17.303  0.00  0.00    +0.000 A 
ATOM     23  C   UNL     1       6.775   4.538  17.373  0.00  0.00    +0.000 A 
ATOM     24  C   UNL     1       7.483   4.791  16.197  0.00  0.00    +0.000 A 
ATOM     25  C   UNL     1       6.825   4.760  14.967  0.00  0.00    +0.000 A 
ATOM     26 CL   UNL     1       7.678   5.173  13.530  0.00  0.00    +0.000 Cl
ATOM     27  C   UNL     1       5.471   4.427  14.895  0.00  0.00    +0.000 A 
ATOM     28  C   UNL     1       4.758   4.165  16.068  0.00  0.00    +0.000 A 
ENDBRANCH  19  22
ENDBRANCH   5  19
TORSDOF 6
ENDMDL
MODEL 4
REMARK VINA RESULT:      -7.7      1.585      2.174
REMARK  Name = 
REMARK  7 active torsions:
REMARK  status: ('A' for Active; 'I' for Inactive)
REMARK    1  A    between atoms: C_1  and  O_2
REMARK    2  A    between atoms: O_2  and  C_3
REMARK    3  A    between atoms: C_6  and  C_7
REMARK    4  A    between atoms: C_7  and  N_8
REMARK    5  A    between atoms: C_9  and  C_11
REMARK    6  A    between atoms: N_15  and  S_16
REMARK    7  A    between atoms: S_16  and  C_19
REMARK                            x       y       z     vdW  Elec       q    Type
REMARK                         _______ _______ _______ _____ _____    ______ ____
ROOT
ATOM      1  C   UNL     1       1.957   4.104  19.302  0.00  0.00    +0.000 C 
ATOM      2  C   UNL     1       1.653   2.734  19.913  0.00  0.00    +0.000 C 
ATOM      3  C   UNL     1       1.808   1.796  18.740  0.00  0.00    +0.000 C 
ATOM      4  C   UNL     1       2.952   2.392  17.937  0.00  0.00    +0.000 C 
ATOM      5  N   UNL     1       3.098   3.827  18.362  0.00  0.00    +0.000 NA
ENDROOT
BRANCH   1   7
ATOM      6  N   UNL     1       1.825   6.465  19.963  0.00  0.00    +0.000 N 
ATOM      7  C   UNL     1       2.021   5.170  20.389  0.00  0.00    +0.000 C 
ATOM      8  O   UNL     1       2.111   4.889  21.583  0.00  0.00    +0.000 OA
ATOM      9  H   UNL     1       1.776   6.672  18.973  0.00  0.00    +0.000 HD
BRANCH   6  10
ATOM     10  C   UNL     1       1.710   7.555  20.910  0.00  0.00    +0.000 C 
BRANCH  10  14
ATOM     11  C   UNL     1      -0.231  11.013  19.189  0.00  0.00    +0.000 A 
ATOM     12  C   UNL     1       0.741  10.317  18.466  0.00  0.00    +0.000 A 
ATOM     13  C   UNL     1       1.376   9.200  19.017  0.00  0.00    +0.000 A 
ATOM     14  C   UNL     1       1.056   8.772  20.312  0.00  0.00    +0.000 A 
ATOM     15  C   UNL     1       0.080   9.474  21.027  0.00  0.00    +0.000 A 
ATOM     16  C   UNL     1      -0.553  10.594  20.480  0.00  0.00    +0.000 A 
BRANCH  11  18
ATOM     17  C   UNL     1       0.018  13.277  18.561  0.00  0.00    +0.000 C 
ATOM     18  O   UNL     1      -0.773  12.092  18.548  0.00  0.00    +0.000 OA
ENDBRANCH  11  18
ENDBRANCH  10  14
ENDBRANCH   6  10
ENDBRANCH   1   7
BRANCH   5  19
ATOM     19  S   UNL     1       4.662   4.254  18.915  0.00  0.00    +0.000 S 
ATOM     20  O   UNL     1       4.564   5.486  19.654  0.00  0.00    +0.000 OA
ATOM     21  O   UNL     1       5.266   3.063  19.474  0.00  0.00    +0.000 OA
BRANCH  19  22
ATOM     22  C   UNL     1       5.517   4.636  17.391  0.00  0.00    +0.000 A 
ATOM     23  C   UNL     1       4.770   4.917  16.245  0.00  0.00    +0.000 A 
ATOM     24  C   UNL     1       5.424   5.065  15.019  0.00  0.00    +0.000 A 
ATOM     25  C   UNL     1       6.812   4.937  14.952  0.00  0.00    +0.000 A 
ATOM     26 CL   UNL     1       7.604   5.017  13.426  0.00  0.00    +0.000 Cl
ATOM     27  C   UNL     1       7.561   4.713  16.108  0.00  0.00    +0.000 A 
ATOM     28  C   UNL     1       6.913   4.573  17.338  0.00  0.00    +0.000 A 
ENDBRANCH  19  22
ENDBRANCH   5  19
TORSDOF 6
ENDMDL
MODEL 5
REMARK VINA RESULT:      -7.7      1.522      1.992
REMARK  Name = 
REMARK  7 active torsions:
REMARK  status: ('A' for Active; 'I' for Inactive)
REMARK    1  A    between atoms: C_1  and  O_2
REMARK    2  A    between atoms: O_2  and  C_3
REMARK    3  A    between atoms: C_6  and  C_7
REMARK    4  A    between atoms: C_7  and  N_8
REMARK    5  A    between atoms: C_9  and  C_11
REMARK    6  A    between atoms: N_15  and  S_16
REMARK    7  A    between atoms: S_16  and  C_19
REMARK                            x       y       z     vdW  Elec       q    Type
REMARK                         _______ _______ _______ _____ _____    ______ ____
ROOT
ATOM      1  C   UNL     1       1.956   4.145  19.289  0.00  0.00    +0.000 C 
ATOM      2  C   UNL     1       1.722   2.714  19.782  0.00  0.00    +0.000 C 
ATOM      3  C   UNL     1       1.896   1.890  18.530  0.00  0.00    +0.000 C 
ATOM      4  C   UNL     1       2.999   2.603  17.767  0.00  0.00    +0.000 C 
ATOM      5  N   UNL     1       3.091   4.001  18.313  0.00  0.00    +0.000 NA
ENDROOT
BRANCH   1   7
ATOM      6  N   UNL     1       1.742   6.433  20.155  0.00  0.00    +0.000 N 
ATOM      7  C   UNL     1       1.994   5.115  20.465  0.00  0.00    +0.000 C 
ATOM      8  O   UNL     1       2.109   4.734  21.629  0.00  0.00    +0.000 OA
ATOM      9  H   UNL     1       1.673   6.723  19.187  0.00  0.00    +0.000 HD
BRANCH   6  10
ATOM     10  C   UNL     1       1.599   7.432  21.194  0.00  0.00    +0.000 C 
BRANCH  10  14
ATOM     11  C   UNL     1      -0.155  11.107  19.744  0.00  0.00    +0.000 A 
ATOM     12  C   UNL     1      -0.444  10.648  21.031  0.00  0.00    +0.000 A 
ATOM     13  C   UNL     1       0.116   9.459  21.507  0.00  0.00    +0.000 A 
ATOM     14  C   UNL     1       0.965   8.700  20.690  0.00  0.00    +0.000 A 
ATOM     15  C   UNL     1       1.249   9.169  19.403  0.00  0.00    +0.000 A 
ATOM     16  C   UNL     1       0.686  10.356  18.924  0.00  0.00    +0.000 A 
BRANCH  11  18
ATOM     17  C   UNL     1      -1.413  12.275  18.120  0.00  0.00    +0.000 C 
ATOM     18  O   UNL     1      -0.770  12.276  19.391  0.00  0.00    +0.000 OA
ENDBRANCH  11  18
ENDBRANCH  10  14
ENDBRANCH   6  10
ENDBRANCH   1   7
BRANCH   5  19
ATOM     19  S   UNL     1       4.645   4.448  18.878  0.00  0.00    +0.000 S 
ATOM     20  O   UNL     1       4.533   5.704  19.575  0.00  0.00    +0.000 OA
ATOM     21  O   UNL     1       5.239   3.277  19.488  0.00  0.00    +0.000 OA
BRANCH  19  22
ATOM     22  C   UNL     1       5.526   4.780  17.359  0.00  0.00    +0.000 A 
ATOM     23  C   UNL     1       4.839   5.351  16.285  0.00  0.00    +0.000 A 
ATOM     24  C   UNL     1       5.477   5.472  15.048  0.00  0.00    +0.000 A 
ATOM     25  C   UNL     1       6.792   5.028  14.898  0.00  0.00    +0.000 A 
ATOM     26 CL   UNL     1       7.539   5.083  13.349  0.00  0.00    +0.000 Cl
ATOM     27  C   UNL     1       7.495   4.510  15.987  0.00  0.00    +0.000 A 
ATOM     28  C   UNL     1       6.865   4.395  17.228  0.00  0.00    +0.000 A 
ENDBRANCH  19  22
ENDBRANCH   5  19
TORSDOF 6
ENDMDL
MODEL 6
REMARK VINA RESULT:      -7.7      1.674      2.233
REMARK  Name = 
REMARK  7 active torsions:
REMARK  status: ('A' for Active; 'I' for Inactive)
REMARK    1  A    between atoms: C_1  and  O_2
REMARK    2  A    between atoms: O_2  and  C_3
REMARK    3  A    between atoms: C_6  and  C_7
REMARK    4  A    between atoms: C_7  and  N_8
REMARK    5  A    between atoms: C_9  and  C_11
REMARK    6  A    between atoms: N_15  and  S_16
REMARK    7  A    between atoms: S_16  and  C_19
REMARK                            x       y       z     vdW  Elec       q    Type
REMARK                         _______ _______ _______ _____ _____    ______ ____
ROOT
ATOM      1  C   UNL     1       1.856   4.851  18.973  0.00  0.00    +0.000 C 
ATOM      2  C   UNL     1       1.174   4.166  20.160  0.00  0.00    +0.000 C 
ATOM      3  C   UNL     1       1.100   2.723  19.723  0.00  0.00    +0.000 C 
ATOM      4  C   UNL     1       2.385   2.505  18.943  0.00  0.00    +0.000 C 
ATOM      5  N   UNL     1       2.905   3.860  18.548  0.00  0.00    +0.000 NA
ENDROOT
BRANCH   1   7
ATOM      6  N   UNL     1       2.359   7.136  18.226  0.00  0.00    +0.000 N 
ATOM      7  C   UNL     1       2.178   6.303  19.308  0.00  0.00    +0.000 C 
ATOM      8  O   UNL     1       2.150   6.735  20.459  0.00  0.00    +0.000 OA
ATOM      9  H   UNL     1       2.399   6.751  17.290  0.00  0.00    +0.000 HD
BRANCH   6  10
ATOM     10  C   UNL     1       2.519   8.565  18.400  0.00  0.00    +0.000 C 
BRANCH  10  14
ATOM     11  C   UNL     1      -1.237  10.653  18.866  0.00  0.00    +0.000 A 
ATOM     12  C   UNL     1      -0.327  10.595  19.924  0.00  0.00    +0.000 A 
ATOM     13  C   UNL     1       0.889   9.919  19.783  0.00  0.00    +0.000 A 
ATOM     14  C   UNL     1       1.204   9.275  18.579  0.00  0.00    +0.000 A 
ATOM     15  C   UNL     1       0.286   9.340  17.526  0.00  0.00    +0.000 A 
ATOM     16  C   UNL     1      -0.932  10.011  17.666  0.00  0.00    +0.000 A 
BRANCH  11  18
ATOM     17  C   UNL     1      -3.404  11.242  18.130  0.00  0.00    +0.000 C 
ATOM     18  O   UNL     1      -2.393  11.334  19.129  0.00  0.00    +0.000 OA
ENDBRANCH  11  18
ENDBRANCH  10  14
ENDBRANCH   6  10
ENDBRANCH   1   7
BRANCH   5  19
ATOM     19  S   UNL     1       4.510   4.185  19.049  0.00  0.00    +0.000 S 
ATOM     20  O   UNL     1       4.551   5.508  19.618  0.00  0.00    +0.000 OA
ATOM     21  O   UNL     1       4.985   3.021  19.767  0.00  0.00    +0.000 OA
BRANCH  19  22
ATOM     22  C   UNL     1       5.390   4.266  17.495  0.00  0.00    +0.000 A 
ATOM     23  C   UNL     1       6.749   4.589  17.500  0.00  0.00    +0.000 A 
ATOM     24  C   UNL     1       7.407   4.804  16.286  0.00  0.00    +0.000 A 
ATOM     25  C   UNL     1       6.706   4.690  15.085  0.00  0.00    +0.000 A 
ATOM     26 CL   UNL     1       7.493   5.057  13.599  0.00  0.00    +0.000 Cl
ATOM     27  C   UNL     1       5.362   4.311  15.081  0.00  0.00    +0.000 A 
ATOM     28  C   UNL     1       4.701   4.087  16.291  0.00  0.00    +0.000 A 
ENDBRANCH  19  22
ENDBRANCH   5  19
TORSDOF 6
ENDMDL
MODEL 7
REMARK VINA RESULT:      -7.6      0.288      1.347
REMARK  Name = 
REMARK  7 active torsions:
REMARK  status: ('A' for Active; 'I' for Inactive)
REMARK    1  A    between atoms: C_1  and  O_2
REMARK    2  A    between atoms: O_2  and  C_3
REMARK    3  A    between atoms: C_6  and  C_7
REMARK    4  A    between atoms: C_7  and  N_8
REMARK    5  A    between atoms: C_9  and  C_11
REMARK    6  A    between atoms: N_15  and  S_16
REMARK    7  A    between atoms: S_16  and  C_19
REMARK                            x       y       z     vdW  Elec       q    Type
REMARK                         _______ _______ _______ _____ _____    ______ ____
ROOT
ATOM      1  C   UNL     1       2.004   4.497  18.701  0.00  0.00    +0.000 C 
ATOM      2  C   UNL     1       1.226   4.224  19.990  0.00  0.00    +0.000 C 
ATOM      3  C   UNL     1       1.258   2.718  20.095  0.00  0.00    +0.000 C 
ATOM      4  C   UNL     1       2.628   2.338  19.559  0.00  0.00    +0.000 C 
ATOM      5  N   UNL     1       3.132   3.502  18.751  0.00  0.00    +0.000 NA
ENDROOT
BRANCH   1   7
ATOM      6  N   UNL     1       1.819   6.786  19.569  0.00  0.00    +0.000 N 
ATOM      7  C   UNL     1       2.230   5.993  18.520  0.00  0.00    +0.000 C 
ATOM      8  O   UNL     1       2.853   6.455  17.566  0.00  0.00    +0.000 OA
ATOM      9  H   UNL     1       1.288   6.384  20.332  0.00  0.00    +0.000 HD
BRANCH   6  10
ATOM     10  C   UNL     1       2.110   8.205  19.593  0.00  0.00    +0.000 C 
BRANCH  10  14
ATOM     11  C   UNL     1      -0.509  10.316  22.308  0.00  0.00    +0.000 A 
ATOM     12  C   UNL     1      -0.508  10.625  20.946  0.00  0.00    +0.000 A 
ATOM     13  C   UNL     1       0.338   9.950  20.062  0.00  0.00    +0.000 A 
ATOM     14  C   UNL     1       1.211   8.961  20.534  0.00  0.00    +0.000 A 
ATOM     15  C   UNL     1       1.202   8.658  21.900  0.00  0.00    +0.000 A 
ATOM     16  C   UNL     1       0.359   9.335  22.787  0.00  0.00    +0.000 A 
BRANCH  11  18
ATOM     17  C   UNL     1      -1.211  12.464  22.999  0.00  0.00    +0.000 C 
ATOM     18  O   UNL     1      -1.373  11.050  23.072  0.00  0.00    +0.000 OA
ENDBRANCH  11  18
ENDBRANCH  10  14
ENDBRANCH   6  10
ENDBRANCH   1   7
BRANCH   5  19
ATOM     19  S   UNL     1       4.659   4.105  19.241  0.00  0.00    +0.000 S 
ATOM     20  O   UNL     1       4.479   5.436  19.760  0.00  0.00    +0.000 OA
ATOM     21  O   UNL     1       5.315   3.061  20.001  0.00  0.00    +0.000 OA
BRANCH  19  22
ATOM     22  C   UNL     1       5.523   4.272  17.685  0.00  0.00    +0.000 A 
ATOM     23  C   UNL     1       6.676   5.060  17.629  0.00  0.00    +0.000 A 
ATOM     24  C   UNL     1       7.269   5.321  16.391  0.00  0.00    +0.000 A 
ATOM     25  C   UNL     1       6.712   4.790  15.227  0.00  0.00    +0.000 A 
ATOM     26 CL   UNL     1       7.383   5.197  13.696  0.00  0.00    +0.000 Cl
ATOM     27  C   UNL     1       5.594   3.956  15.292  0.00  0.00    +0.000 A 
ATOM     28  C   UNL     1       5.001   3.685  16.527  0.00  0.00    +0.000 A 
ENDBRANCH  19  22
ENDBRANCH   5  19
TORSDOF 6
ENDMDL
MODEL 8
REMARK VINA RESULT:      -7.6      1.277      1.621
REMARK  Name = 
REMARK  7 active torsions:
REMARK  status: ('A' for Active; 'I' for Inactive)
REMARK    1  A    between atoms: C_1  and  O_2
REMARK    2  A    between atoms: O_2  and  C_3
REMARK    3  A    between atoms: C_6  and  C_7
REMARK    4  A    between atoms: C_7  and  N_8
REMARK    5  A    between atoms: C_9  and  C_11
REMARK    6  A    between atoms: N_15  and  S_16
REMARK    7  A    between atoms: S_16  and  C_19
REMARK                            x       y       z     vdW  Elec       q    Type
REMARK                         _______ _______ _______ _____ _____    ______ ____
ROOT
ATOM      1  C   UNL     1       1.856   4.460  18.835  0.00  0.00    +0.000 C 
ATOM      2  C   UNL     1       1.115   4.102  20.126  0.00  0.00    +0.000 C 
ATOM      3  C   UNL     1       1.090   2.593  20.097  0.00  0.00    +0.000 C 
ATOM      4  C   UNL     1       2.423   2.212  19.476  0.00  0.00    +0.000 C 
ATOM      5  N   UNL     1       2.943   3.424  18.753  0.00  0.00    +0.000 NA
ENDROOT
BRANCH   1   7
ATOM      6  N   UNL     1       1.941   6.643  19.955  0.00  0.00    +0.000 N 
ATOM      7  C   UNL     1       2.135   5.957  18.777  0.00  0.00    +0.000 C 
ATOM      8  O   UNL     1       2.625   6.498  17.787  0.00  0.00    +0.000 OA
ATOM      9  H   UNL     1       1.515   6.180  20.748  0.00  0.00    +0.000 HD
BRANCH   6  10
ATOM     10  C   UNL     1       2.313   8.038  20.079  0.00  0.00    +0.000 C 
BRANCH  10  14
ATOM     11  C   UNL     1      -0.970  10.759  19.367  0.00  0.00    +0.000 A 
ATOM     12  C   UNL     1      -0.748  10.241  20.645  0.00  0.00    +0.000 A 
ATOM     13  C   UNL     1       0.309   9.359  20.883  0.00  0.00    +0.000 A 
ATOM     14  C   UNL     1       1.153   8.967  19.836  0.00  0.00    +0.000 A 
ATOM     15  C   UNL     1       0.923   9.492  18.560  0.00  0.00    +0.000 A 
ATOM     16  C   UNL     1      -0.136  10.372  18.319  0.00  0.00    +0.000 A 
BRANCH  11  18
ATOM     17  C   UNL     1      -2.810  11.474  18.068  0.00  0.00    +0.000 C 
ATOM     18  O   UNL     1      -2.039  11.605  19.258  0.00  0.00    +0.000 OA
ENDBRANCH  11  18
ENDBRANCH  10  14
ENDBRANCH   6  10
ENDBRANCH   1   7
BRANCH   5  19
ATOM     19  S   UNL     1       4.510   3.923  19.231  0.00  0.00    +0.000 S 
ATOM     20  O   UNL     1       4.388   5.132  20.004  0.00  0.00    +0.000 OA
ATOM     21  O   UNL     1       5.206   2.755  19.729  0.00  0.00    +0.000 OA
BRANCH  19  22
ATOM     22  C   UNL     1       5.260   4.382  17.674  0.00  0.00    +0.000 A 
ATOM     23  C   UNL     1       4.703   3.904  16.485  0.00  0.00    +0.000 A 
ATOM     24  C   UNL     1       5.368   4.130  15.278  0.00  0.00    +0.000 A 
ATOM     25  C   UNL     1       6.574   4.832  15.268  0.00  0.00    +0.000 A 
ATOM     26 CL   UNL     1       7.442   5.019  13.794  0.00  0.00    +0.000 Cl
ATOM     27  C   UNL     1       7.098   5.358  16.450  0.00  0.00    +0.000 A 
ATOM     28  C   UNL     1       6.434   5.143  17.660  0.00  0.00    +0.000 A 
ENDBRANCH  19  22
ENDBRANCH   5  19
TORSDOF 6
ENDMDL
MODEL 9
REMARK VINA RESULT:      -7.5      1.182      1.692
REMARK  Name = 
REMARK  7 active torsions:
REMARK  status: ('A' for Active; 'I' for Inactive)
REMARK    1  A    between atoms: C_1  and  O_2
REMARK    2  A    between atoms: O_2  and  C_3
REMARK    3  A    between atoms: C_6  and  C_7
REMARK    4  A    between atoms: C_7  and  N_8
REMARK    5  A    between atoms: C_9  and  C_11
REMARK    6  A    between atoms: N_15  and  S_16
REMARK    7  A    between atoms: S_16  and  C_19
REMARK                            x       y       z     vdW  Elec       q    Type
REMARK                         _______ _______ _______ _____ _____    ______ ____
ROOT
ATOM      1  C   UNL     1       1.889   4.454  18.697  0.00  0.00    +0.000 C 
ATOM      2  C   UNL     1       1.091   4.139  19.965  0.00  0.00    +0.000 C 
ATOM      3  C   UNL     1       1.040   2.631  19.970  0.00  0.00    +0.000 C 
ATOM      4  C   UNL     1       2.388   2.212  19.410  0.00  0.00    +0.000 C 
ATOM      5  N   UNL     1       2.959   3.397  18.681  0.00  0.00    +0.000 NA
ENDROOT
BRANCH   1   7
ATOM      6  N   UNL     1       1.958   6.663  19.766  0.00  0.00    +0.000 N 
ATOM      7  C   UNL     1       2.197   5.944  18.616  0.00  0.00    +0.000 C 
ATOM      8  O   UNL     1       2.745   6.451  17.639  0.00  0.00    +0.000 OA
ATOM      9  H   UNL     1       1.485   6.227  20.549  0.00  0.00    +0.000 HD
BRANCH   6  10
ATOM     10  C   UNL     1       2.348   8.054  19.875  0.00  0.00    +0.000 C 
BRANCH  10  14
ATOM     11  C   UNL     1      -0.968  10.801  19.497  0.00  0.00    +0.000 A 
ATOM     12  C   UNL     1      -0.609  10.297  20.750  0.00  0.00    +0.000 A 
ATOM     13  C   UNL     1       0.460   9.406  20.880  0.00  0.00    +0.000 A 
ATOM     14  C   UNL     1       1.178   8.992  19.750  0.00  0.00    +0.000 A 
ATOM     15  C   UNL     1       0.811   9.503  18.501  0.00  0.00    +0.000 A 
ATOM     16  C   UNL     1      -0.260  10.392  18.368  0.00  0.00    +0.000 A 
BRANCH  11  18
ATOM     17  C   UNL     1      -1.754  12.991  19.909  0.00  0.00    +0.000 C 
ATOM     18  O   UNL     1      -2.034  11.656  19.498  0.00  0.00    +0.000 OA
ENDBRANCH  11  18
ENDBRANCH  10  14
ENDBRANCH   6  10
ENDBRANCH   1   7
BRANCH   5  19
ATOM     19  S   UNL     1       4.515   3.880  19.209  0.00  0.00    +0.000 S 
ATOM     20  O   UNL     1       4.411   5.188  19.802  0.00  0.00    +0.000 OA
ATOM     21  O   UNL     1       5.104   2.758  19.910  0.00  0.00    +0.000 OA
BRANCH  19  22
ATOM     22  C   UNL     1       5.398   4.084  17.667  0.00  0.00    +0.000 A 
ATOM     23  C   UNL     1       6.720   4.537  17.696  0.00  0.00    +0.000 A 
ATOM     24  C   UNL     1       7.365   4.845  16.496  0.00  0.00    +0.000 A 
ATOM     25  C   UNL     1       6.690   4.694  15.284  0.00  0.00    +0.000 A 
ATOM     26 CL   UNL     1       7.452   5.172  13.817  0.00  0.00    +0.000 Cl
ATOM     27  C   UNL     1       5.390   4.187  15.255  0.00  0.00    +0.000 A 
ATOM     28  C   UNL     1       4.742   3.869  16.451  0.00  0.00    +0.000 A 
ENDBRANCH  19  22
ENDBRANCH   5  19
TORSDOF 6
ENDMDL
