MODEL 1
REMARK VINA RESULT:      -7.3      0.000      0.000
REMARK  Name = 
REMARK  5 active torsions:
REMARK  status: ('A' for Active; 'I' for Inactive)
REMARK    1  A    between atoms: C_2  and  C_3
REMARK    2  A    between atoms: C_2  and  N_4
REMARK    3  A    between atoms: C_8  and  C_10
REMARK    4  A    between atoms: C_10  and  C_11
REMARK    5  A    between atoms: C_15  and  N_16
REMARK                            x       y       z     vdW  Elec       q    Type
REMARK                         _______ _______ _______ _____ _____    ______ ____
ROOT
ATOM      1  N   UNL     1       6.447   5.457  17.761  0.00  0.00    +0.000 N 
ATOM      2  C   UNL     1       5.323   4.869  18.448  0.00  0.00    +0.000 A 
ATOM      3  O   UNL     1       5.034   4.990  19.632  0.00  0.00    +0.000 OA
ATOM      4  N   UNL     1       4.557   4.158  17.476  0.00  0.00    +0.000 N 
ATOM      5  C   UNL     1       3.390   3.436  17.700  0.00  0.00    +0.000 C 
ATOM      6  O   UNL     1       2.536   3.230  16.836  0.00  0.00    +0.000 OA
ATOM      7  C   UNL     1       5.158   4.354  16.219  0.00  0.00    +0.000 A 
ATOM      8  C   UNL     1       4.808   3.832  14.980  0.00  0.00    +0.000 A 
ATOM      9  C   UNL     1       5.652   4.083  13.891  0.00  0.00    +0.000 A 
ATOM     10  C   UNL     1       6.826   4.839  14.071  0.00  0.00    +0.000 A 
ATOM     11  C   UNL     1       7.168   5.362  15.327  0.00  0.00    +0.000 A 
ATOM     12  C   UNL     1       6.314   5.125  16.390  0.00  0.00    +0.000 A 
ENDROOT
BRANCH   1  14
ATOM     13  C   UNL     1       8.073   5.756  19.486  0.00  0.00    +0.000 C 
ATOM     14  C   UNL     1       7.425   6.217  18.401  0.00  0.00    +0.000 C 
ATOM     15  C   UNL     1       7.712   7.619  17.935  0.00  0.00    +0.000 C 
ENDBRANCH   1  14
BRANCH  10  16
ATOM     16  N   UNL     1       7.736   5.065  12.935  0.00  0.00    +0.000 N 
ATOM     17  O   UNL     1       8.685   5.833  13.107  0.00  0.00    +0.000 OA
ATOM     18  O   UNL     1       7.492   4.472  11.876  0.00  0.00    +0.000 OA
ENDBRANCH  10  16
BRANCH   5  19
ATOM     19  C   UNL     1       3.210   2.928  19.126  0.00  0.00    +0.000 C 
ATOM     20  C   UNL     1       1.797   2.445  19.399  0.00  0.00    +0.000 C 
ENDBRANCH   5  19
TORSDOF 3
ENDMDL
MODEL 2
REMARK VINA RESULT:      -7.3      0.143      1.048
REMARK  Name = 
REMARK  5 active torsions:
REMARK  status: ('A' for Active; 'I' for Inactive)
REMARK    1  A    between atoms: C_2  and  C_3
REMARK    2  A    between atoms: C_2  and  N_4
REMARK    3  A    between atoms: C_8  and  C_10
REMARK    4  A    between atoms: C_10  and  C_11
REMARK    5  A    between atoms: C_15  and  N_16
REMARK                            x       y       z     vdW  Elec       q    Type
REMARK                         _______ _______ _______ _____ _____    ______ ____
ROOT
ATOM      1  N   UNL     1       6.389   5.542  17.747  0.00  0.00    +0.000 N 
ATOM      2  C   UNL     1       5.256   4.975  18.437  0.00  0.00    +0.000 A 
ATOM      3  O   UNL     1       4.957   5.122  19.615  0.00  0.00    +0.000 OA
ATOM      4  N   UNL     1       4.494   4.250  17.473  0.00  0.00    +0.000 N 
ATOM      5  C   UNL     1       3.320   3.539  17.701  0.00  0.00    +0.000 C 
ATOM      6  O   UNL     1       2.472   3.321  16.834  0.00  0.00    +0.000 OA
ATOM      7  C   UNL     1       5.106   4.416  16.217  0.00  0.00    +0.000 A 
ATOM      8  C   UNL     1       4.763   3.871  14.986  0.00  0.00    +0.000 A 
ATOM      9  C   UNL     1       5.617   4.094  13.900  0.00  0.00    +0.000 A 
ATOM     10  C   UNL     1       6.795   4.847  14.074  0.00  0.00    +0.000 A 
ATOM     11  C   UNL     1       7.129   5.393  15.322  0.00  0.00    +0.000 A 
ATOM     12  C   UNL     1       6.266   5.183  16.382  0.00  0.00    +0.000 A 
ENDROOT
BRANCH   1  14
ATOM     13  C   UNL     1       7.689   7.537  17.935  0.00  0.00    +0.000 C 
ATOM     14  C   UNL     1       7.366   6.309  18.379  0.00  0.00    +0.000 C 
ATOM     15  C   UNL     1       8.148   5.733  19.529  0.00  0.00    +0.000 C 
ENDBRANCH   1  14
BRANCH  10  16
ATOM     16  N   UNL     1       7.716   5.043  12.941  0.00  0.00    +0.000 N 
ATOM     17  O   UNL     1       7.476   4.433  11.897  0.00  0.00    +0.000 OA
ATOM     18  O   UNL     1       8.677   5.805  13.107  0.00  0.00    +0.000 OA
ENDBRANCH  10  16
BRANCH   5  19
ATOM     19  C   UNL     1       3.125   3.062  19.136  0.00  0.00    +0.000 C 
ATOM     20  C   UNL     1       1.660   2.903  19.503  0.00  0.00    +0.000 C 
ENDBRANCH   5  19
TORSDOF 3
ENDMDL
MODEL 3
REMARK VINA RESULT:      -7.1      3.290      6.515
REMARK  Name = 
REMARK  5 active torsions:
REMARK  status: ('A' for Active; 'I' for Inactive)
REMARK    1  A    between atoms: C_2  and  C_3
REMARK    2  A    between atoms: C_2  and  N_4
REMARK    3  A    between atoms: C_8  and  C_10
REMARK    4  A    between atoms: C_10  and  C_11
REMARK    5  A    between atoms: C_15  and  N_16
REMARK                            x       y       z     vdW  Elec       q    Type
REMARK                         _______ _______ _______ _____ _____    ______ ____
ROOT
ATOM      1  N   UNL     1       3.044   4.222  18.653  0.00  0.00    +0.000 N 
ATOM      2  C   UNL     1       3.992   3.988  17.592  0.00  0.00    +0.000 A 
ATOM      3  O   UNL     1       4.408   2.906  17.196  0.00  0.00    +0.000 OA
ATOM      4  N   UNL     1       4.321   5.258  17.031  0.00  0.00    +0.000 N 
ATOM      5  C   UNL     1       5.204   5.504  15.984  0.00  0.00    +0.000 C 
ATOM      6  O   UNL     1       5.132   6.488  15.245  0.00  0.00    +0.000 OA
ATOM      7  C   UNL     1       3.553   6.237  17.687  0.00  0.00    +0.000 A 
ATOM      8  C   UNL     1       3.552   7.617  17.524  0.00  0.00    +0.000 A 
ATOM      9  C   UNL     1       2.774   8.388  18.397  0.00  0.00    +0.000 A 
ATOM     10  C   UNL     1       2.027   7.761  19.414  0.00  0.00    +0.000 A 
ATOM     11  C   UNL     1       2.036   6.367  19.566  0.00  0.00    +0.000 A 
ATOM     12  C   UNL     1       2.791   5.616  18.684  0.00  0.00    +0.000 A 
ENDROOT
BRANCH   1  14
ATOM     13  C   UNL     1       3.145   2.758  20.539  0.00  0.00    +0.000 C 
ATOM     14  C   UNL     1       2.508   3.204  19.441  0.00  0.00    +0.000 C 
ATOM     15  C   UNL     1       1.236   2.518  19.020  0.00  0.00    +0.000 C 
ENDBRANCH   1  14
BRANCH  10  16
ATOM     16  N   UNL     1       1.246   8.576  20.360  0.00  0.00    +0.000 N 
ATOM     17  O   UNL     1       1.320   8.291  21.557  0.00  0.00    +0.000 OA
ATOM     18  O   UNL     1       0.558   9.494  19.896  0.00  0.00    +0.000 OA
ENDBRANCH  10  16
BRANCH   5  19
ATOM     19  C   UNL     1       6.274   4.438  15.780  0.00  0.00    +0.000 C 
ATOM     20  C   UNL     1       6.336   3.941  14.347  0.00  0.00    +0.000 C 
ENDBRANCH   5  19
TORSDOF 3
ENDMDL
MODEL 4
REMARK VINA RESULT:      -7.1      3.301      6.567
REMARK  Name = 
REMARK  5 active torsions:
REMARK  status: ('A' for Active; 'I' for Inactive)
REMARK    1  A    between atoms: C_2  and  C_3
REMARK    2  A    between atoms: C_2  and  N_4
REMARK    3  A    between atoms: C_8  and  C_10
REMARK    4  A    between atoms: C_10  and  C_11
REMARK    5  A    between atoms: C_15  and  N_16
REMARK                            x       y       z     vdW  Elec       q    Type
REMARK                         _______ _______ _______ _____ _____    ______ ____
ROOT
ATOM      1  N   UNL     1       2.909   4.190  18.673  0.00  0.00    +0.000 N 
ATOM      2  C   UNL     1       3.864   3.928  17.625  0.00  0.00    +0.000 A 
ATOM      3  O   UNL     1       4.248   2.833  17.231  0.00  0.00    +0.000 OA
ATOM      4  N   UNL     1       4.244   5.188  17.074  0.00  0.00    +0.000 N 
ATOM      5  C   UNL     1       5.150   5.407  16.041  0.00  0.00    +0.000 C 
ATOM      6  O   UNL     1       5.124   6.395  15.305  0.00  0.00    +0.000 OA
ATOM      7  C   UNL     1       3.501   6.190  17.722  0.00  0.00    +0.000 A 
ATOM      8  C   UNL     1       3.550   7.570  17.565  0.00  0.00    +0.000 A 
ATOM      9  C   UNL     1       2.787   8.364  18.430  0.00  0.00    +0.000 A 
ATOM     10  C   UNL     1       2.004   7.761  19.433  0.00  0.00    +0.000 A 
ATOM     11  C   UNL     1       1.962   6.366  19.580  0.00  0.00    +0.000 A 
ATOM     12  C   UNL     1       2.704   5.592  18.706  0.00  0.00    +0.000 A 
ENDROOT
BRANCH   1  14
ATOM     13  C   UNL     1       1.139   2.648  19.118  0.00  0.00    +0.000 C 
ATOM     14  C   UNL     1       2.326   3.189  19.449  0.00  0.00    +0.000 C 
ATOM     15  C   UNL     1       2.980   2.754  20.732  0.00  0.00    +0.000 C 
ENDBRANCH   1  14
BRANCH  10  16
ATOM     16  N   UNL     1       1.237   8.599  20.370  0.00  0.00    +0.000 N 
ATOM     17  O   UNL     1       0.658   9.586  19.912  0.00  0.00    +0.000 OA
ATOM     18  O   UNL     1       1.223   8.264  21.562  0.00  0.00    +0.000 OA
ENDBRANCH  10  16
BRANCH   5  19
ATOM     19  C   UNL     1       6.186   4.305  15.849  0.00  0.00    +0.000 C 
ATOM     20  C   UNL     1       6.344   3.901  14.393  0.00  0.00    +0.000 C 
ENDBRANCH   5  19
TORSDOF 3
ENDMDL
MODEL 5
REMARK VINA RESULT:      -7.1      2.861      3.826
REMARK  Name = 
REMARK  5 active torsions:
REMARK  status: ('A' for Active; 'I' for Inactive)
REMARK    1  A    between atoms: C_2  and  C_3
REMARK    2  A    between atoms: C_2  and  N_4
REMARK    3  A    between atoms: C_8  and  C_10
REMARK    4  A    between atoms: C_10  and  C_11
REMARK    5  A    between atoms: C_15  and  N_16
REMARK                            x       y       z     vdW  Elec       q    Type
REMARK                         _______ _______ _______ _____ _____    ______ ____
ROOT
ATOM      1  N   UNL     1       2.638   6.296  18.936  0.00  0.00    +0.000 N 
ATOM      2  C   UNL     1       1.932   5.139  19.430  0.00  0.00    +0.000 A 
ATOM      3  O   UNL     1       0.854   5.123  20.011  0.00  0.00    +0.000 OA
ATOM      4  N   UNL     1       2.693   3.990  19.062  0.00  0.00    +0.000 N 
ATOM      5  C   UNL     1       2.385   2.662  19.340  0.00  0.00    +0.000 C 
ATOM      6  O   UNL     1       2.777   1.712  18.660  0.00  0.00    +0.000 OA
ATOM      7  C   UNL     1       3.802   4.422  18.312  0.00  0.00    +0.000 A 
ATOM      8  C   UNL     1       4.849   3.683  17.774  0.00  0.00    +0.000 A 
ATOM      9  C   UNL     1       5.907   4.373  17.170  0.00  0.00    +0.000 A 
ATOM     10  C   UNL     1       5.896   5.781  17.129  0.00  0.00    +0.000 A 
ATOM     11  C   UNL     1       4.832   6.515  17.675  0.00  0.00    +0.000 A 
ATOM     12  C   UNL     1       3.783   5.820  18.249  0.00  0.00    +0.000 A 
ENDROOT
BRANCH   1  14
ATOM     13  C   UNL     1       1.860   8.062  20.343  0.00  0.00    +0.000 C 
ATOM     14  C   UNL     1       2.195   7.604  19.124  0.00  0.00    +0.000 C 
ATOM     15  C   UNL     1       1.996   8.509  17.938  0.00  0.00    +0.000 C 
ENDBRANCH   1  14
BRANCH  10  16
ATOM     16  N   UNL     1       7.031   6.508  16.534  0.00  0.00    +0.000 N 
ATOM     17  O   UNL     1       7.299   7.621  16.990  0.00  0.00    +0.000 OA
ATOM     18  O   UNL     1       7.643   5.959  15.608  0.00  0.00    +0.000 OA
ENDBRANCH  10  16
BRANCH   5  19
ATOM     19  C   UNL     1       1.483   2.450  20.551  0.00  0.00    +0.000 C 
ATOM     20  C   UNL     1       2.236   2.564  21.864  0.00  0.00    +0.000 C 
ENDBRANCH   5  19
TORSDOF 3
ENDMDL
MODEL 6
REMARK VINA RESULT:      -7.0      2.860      3.935
REMARK  Name = 
REMARK  5 active torsions:
REMARK  status: ('A' for Active; 'I' for Inactive)
REMARK    1  A    between atoms: C_2  and  C_3
REMARK    2  A    between atoms: C_2  and  N_4
REMARK    3  A    between atoms: C_8  and  C_10
REMARK    4  A    between atoms: C_10  and  C_11
REMARK    5  A    between atoms: C_15  and  N_16
REMARK                            x       y       z     vdW  Elec       q    Type
REMARK                         _______ _______ _______ _____ _____    ______ ____
ROOT
ATOM      1  N   UNL     1       2.637   6.305  18.911  0.00  0.00    +0.000 N 
ATOM      2  C   UNL     1       1.930   5.155  19.419  0.00  0.00    +0.000 A 
ATOM      3  O   UNL     1       0.845   5.145  19.988  0.00  0.00    +0.000 OA
ATOM      4  N   UNL     1       2.701   4.002  19.083  0.00  0.00    +0.000 N 
ATOM      5  C   UNL     1       2.396   2.679  19.383  0.00  0.00    +0.000 C 
ATOM      6  O   UNL     1       2.800   1.717  18.727  0.00  0.00    +0.000 OA
ATOM      7  C   UNL     1       3.817   4.425  18.338  0.00  0.00    +0.000 A 
ATOM      8  C   UNL     1       4.873   3.681  17.827  0.00  0.00    +0.000 A 
ATOM      9  C   UNL     1       5.935   4.365  17.222  0.00  0.00    +0.000 A 
ATOM     10  C   UNL     1       5.918   5.772  17.153  0.00  0.00    +0.000 A 
ATOM     11  C   UNL     1       4.845   6.511  17.672  0.00  0.00    +0.000 A 
ATOM     12  C   UNL     1       3.792   5.822  18.247  0.00  0.00    +0.000 A 
ENDROOT
BRANCH   1  14
ATOM     13  C   UNL     1       2.156   8.475  18.034  0.00  0.00    +0.000 C 
ATOM     14  C   UNL     1       2.185   7.615  19.068  0.00  0.00    +0.000 C 
ATOM     15  C   UNL     1       1.801   8.120  20.432  0.00  0.00    +0.000 C 
ENDBRANCH   1  14
BRANCH  10  16
ATOM     16  N   UNL     1       7.057   6.492  16.557  0.00  0.00    +0.000 N 
ATOM     17  O   UNL     1       7.603   5.984  15.575  0.00  0.00    +0.000 OA
ATOM     18  O   UNL     1       7.399   7.560  17.080  0.00  0.00    +0.000 OA
ENDBRANCH  10  16
BRANCH   5  19
ATOM     19  C   UNL     1       1.480   2.486  20.587  0.00  0.00    +0.000 C 
ATOM     20  C   UNL     1       2.232   2.547  21.905  0.00  0.00    +0.000 C 
ENDBRANCH   5  19
TORSDOF 3
ENDMDL
MODEL 7
REMARK VINA RESULT:      -6.6      2.763      4.047
REMARK  Name = 
REMARK  5 active torsions:
REMARK  status: ('A' for Active; 'I' for Inactive)
REMARK    1  A    between atoms: C_2  and  C_3
REMARK    2  A    between atoms: C_2  and  N_4
REMARK    3  A    between atoms: C_8  and  C_10
REMARK    4  A    between atoms: C_10  and  C_11
REMARK    5  A    between atoms: C_15  and  N_16
REMARK                            x       y       z     vdW  Elec       q    Type
REMARK                         _______ _______ _______ _____ _____    ______ ____
ROOT
ATOM      1  N   UNL     1       3.805   3.758  18.985  0.00  0.00    +0.000 N 
ATOM      2  C   UNL     1       2.974   4.621  19.788  0.00  0.00    +0.000 A 
ATOM      3  O   UNL     1       2.379   4.328  20.818  0.00  0.00    +0.000 OA
ATOM      4  N   UNL     1       3.016   5.919  19.196  0.00  0.00    +0.000 N 
ATOM      5  C   UNL     1       2.354   7.060  19.639  0.00  0.00    +0.000 C 
ATOM      6  O   UNL     1       2.741   8.207  19.411  0.00  0.00    +0.000 OA
ATOM      7  C   UNL     1       3.893   5.869  18.098  0.00  0.00    +0.000 A 
ATOM      8  C   UNL     1       4.227   6.863  17.185  0.00  0.00    +0.000 A 
ATOM      9  C   UNL     1       5.038   6.521  16.097  0.00  0.00    +0.000 A 
ATOM     10  C   UNL     1       5.487   5.194  15.944  0.00  0.00    +0.000 A 
ATOM     11  C   UNL     1       5.144   4.200  16.873  0.00  0.00    +0.000 A 
ATOM     12  C   UNL     1       4.360   4.557  17.955  0.00  0.00    +0.000 A 
ENDROOT
BRANCH   1  14
ATOM     13  C   UNL     1       3.433   1.451  18.488  0.00  0.00    +0.000 C 
ATOM     14  C   UNL     1       3.991   2.403  19.257  0.00  0.00    +0.000 C 
ATOM     15  C   UNL     1       4.756   1.980  20.482  0.00  0.00    +0.000 C 
ENDBRANCH   1  14
BRANCH  10  16
ATOM     16  N   UNL     1       6.303   4.825  14.775  0.00  0.00    +0.000 N 
ATOM     17  O   UNL     1       7.425   5.328  14.679  0.00  0.00    +0.000 OA
ATOM     18  O   UNL     1       5.813   4.035  13.957  0.00  0.00    +0.000 OA
ENDBRANCH  10  16
BRANCH   5  19
ATOM     19  C   UNL     1       1.106   6.797  20.475  0.00  0.00    +0.000 C 
ATOM     20  C   UNL     1       0.703   7.997  21.312  0.00  0.00    +0.000 C 
ENDBRANCH   5  19
TORSDOF 3
ENDMDL
MODEL 8
REMARK VINA RESULT:      -6.6      2.818      4.115
REMARK  Name = 
REMARK  5 active torsions:
REMARK  status: ('A' for Active; 'I' for Inactive)
REMARK    1  A    between atoms: C_2  and  C_3
REMARK    2  A    between atoms: C_2  and  N_4
REMARK    3  A    between atoms: C_8  and  C_10
REMARK    4  A    between atoms: C_10  and  C_11
REMARK    5  A    between atoms: C_15  and  N_16
REMARK                            x       y       z     vdW  Elec       q    Type
REMARK                         _______ _______ _______ _____ _____    ______ ____
ROOT
ATOM      1  N   UNL     1       3.783   3.841  19.065  0.00  0.00    +0.000 N 
ATOM      2  C   UNL     1       2.941   4.707  19.855  0.00  0.00    +0.000 A 
ATOM      3  O   UNL     1       2.347   4.420  20.887  0.00  0.00    +0.000 OA
ATOM      4  N   UNL     1       2.973   5.998  19.247  0.00  0.00    +0.000 N 
ATOM      5  C   UNL     1       2.300   7.137  19.675  0.00  0.00    +0.000 C 
ATOM      6  O   UNL     1       2.676   8.286  19.434  0.00  0.00    +0.000 OA
ATOM      7  C   UNL     1       3.854   5.943  18.152  0.00  0.00    +0.000 A 
ATOM      8  C   UNL     1       4.181   6.929  17.229  0.00  0.00    +0.000 A 
ATOM      9  C   UNL     1       4.999   6.581  16.147  0.00  0.00    +0.000 A 
ATOM     10  C   UNL     1       5.460   5.257  16.011  0.00  0.00    +0.000 A 
ATOM     11  C   UNL     1       5.124   4.271  16.951  0.00  0.00    +0.000 A 
ATOM     12  C   UNL     1       4.333   4.633  18.026  0.00  0.00    +0.000 A 
ENDROOT
BRANCH   1  14
ATOM     13  C   UNL     1       4.727   2.102  20.402  0.00  0.00    +0.000 C 
ATOM     14  C   UNL     1       3.981   2.492  19.353  0.00  0.00    +0.000 C 
ATOM     15  C   UNL     1       3.429   1.437  18.432  0.00  0.00    +0.000 C 
ENDBRANCH   1  14
BRANCH  10  16
ATOM     16  N   UNL     1       6.283   4.881  14.849  0.00  0.00    +0.000 N 
ATOM     17  O   UNL     1       5.778   4.134  14.008  0.00  0.00    +0.000 OA
ATOM     18  O   UNL     1       7.433   5.335  14.788  0.00  0.00    +0.000 OA
ENDBRANCH  10  16
BRANCH   5  19
ATOM     19  C   UNL     1       1.052   6.872  20.510  0.00  0.00    +0.000 C 
ATOM     20  C   UNL     1       0.643   8.075  21.343  0.00  0.00    +0.000 C 
ENDBRANCH   5  19
TORSDOF 3
ENDMDL
MODEL 9
REMARK VINA RESULT:      -6.4      3.745      5.566
REMARK  Name = 
REMARK  5 active torsions:
REMARK  status: ('A' for Active; 'I' for Inactive)
REMARK    1  A    between atoms: C_2  and  C_3
REMARK    2  A    between atoms: C_2  and  N_4
REMARK    3  A    between atoms: C_8  and  C_10
REMARK    4  A    between atoms: C_10  and  C_11
REMARK    5  A    between atoms: C_15  and  N_16
REMARK                            x       y       z     vdW  Elec       q    Type
REMARK                         _______ _______ _______ _____ _____    ______ ____
ROOT
ATOM      1  N   UNL     1       4.450   5.940  17.859  0.00  0.00    +0.000 N 
ATOM      2  C   UNL     1       4.340   4.718  18.616  0.00  0.00    +0.000 A 
ATOM      3  O   UNL     1       5.047   3.722  18.522  0.00  0.00    +0.000 OA
ATOM      4  N   UNL     1       3.282   4.897  19.557  0.00  0.00    +0.000 N 
ATOM      5  C   UNL     1       2.828   3.968  20.488  0.00  0.00    +0.000 C 
ATOM      6  O   UNL     1       2.265   4.273  21.541  0.00  0.00    +0.000 OA
ATOM      7  C   UNL     1       2.797   6.210  19.423  0.00  0.00    +0.000 A 
ATOM      8  C   UNL     1       1.748   6.837  20.084  0.00  0.00    +0.000 A 
ATOM      9  C   UNL     1       1.381   8.125  19.676  0.00  0.00    +0.000 A 
ATOM     10  C   UNL     1       2.064   8.748  18.612  0.00  0.00    +0.000 A 
ATOM     11  C   UNL     1       3.123   8.104  17.954  0.00  0.00    +0.000 A 
ATOM     12  C   UNL     1       3.489   6.841  18.383  0.00  0.00    +0.000 A 
ENDROOT
BRANCH   1  14
ATOM     13  C   UNL     1       5.142   5.671  15.588  0.00  0.00    +0.000 C 
ATOM     14  C   UNL     1       5.375   6.126  16.832  0.00  0.00    +0.000 C 
ATOM     15  C   UNL     1       6.704   6.769  17.124  0.00  0.00    +0.000 C 
ENDBRANCH   1  14
BRANCH  10  16
ATOM     16  N   UNL     1       1.648  10.084  18.154  0.00  0.00    +0.000 N 
ATOM     17  O   UNL     1       0.484  10.428  18.374  0.00  0.00    +0.000 OA
ATOM     18  O   UNL     1       2.490  10.779  17.571  0.00  0.00    +0.000 OA
ENDBRANCH  10  16
BRANCH   5  19
ATOM     19  C   UNL     1       3.105   2.511  20.132  0.00  0.00    +0.000 C 
ATOM     20  C   UNL     1       2.033   1.917  19.236  0.00  0.00    +0.000 C 
ENDBRANCH   5  19
TORSDOF 3
ENDMDL
