MODEL 1
REMARK VINA RESULT:      -8.4      0.000      0.000
REMARK  Name = 
REMARK  10 active torsions:
REMARK  status: ('A' for Active; 'I' for Inactive)
REMARK    1  A    between atoms: C_2  and  O_3
REMARK    2  A    between atoms: C_2  and  C_24
REMARK    3  A    between atoms: O_3  and  C_4
REMARK    4  A    between atoms: C_7  and  O_8
REMARK    5  A    between atoms: C_10  and  O_11
REMARK    6  A    between atoms: C_15  and  C_16
REMARK    7  A    between atoms: C_19  and  O_20
REMARK    8  A    between atoms: C_21  and  O_22
REMARK    9  A    between atoms: C_27  and  O_28
REMARK   10  A    between atoms: O_28  and  C_29
REMARK                            x       y       z     vdW  Elec       q    Type
REMARK                         _______ _______ _______ _____ _____    ______ ____
ROOT
ATOM      1  C   UNL     1       3.045   4.783  17.094  0.00  0.00    +0.000 C 
ATOM      2  C   UNL     1       1.748   4.290  17.731  0.00  0.00    +0.000 C 
ATOM      3  C   UNL     1       2.059   3.581  19.021  0.00  0.00    +0.000 A 
ATOM      4  C   UNL     1       1.156   3.535  20.090  0.00  0.00    +0.000 A 
ATOM      5  C   UNL     1       1.489   2.898  21.285  0.00  0.00    +0.000 A 
ATOM      6  C   UNL     1       2.728   2.284  21.409  0.00  0.00    +0.000 A 
ATOM      7  C   UNL     1       3.632   2.298  20.360  0.00  0.00    +0.000 A 
ATOM      8  C   UNL     1       3.303   2.945  19.168  0.00  0.00    +0.000 A 
ATOM      9  O   UNL     1       4.293   2.950  18.220  0.00  0.00    +0.000 OA
ATOM     10  C   UNL     1       3.980   3.557  16.959  0.00  0.00    +0.000 C 
ENDROOT
BRANCH  10  11
ATOM     11  C   UNL     1       5.254   3.971  16.235  0.00  0.00    +0.000 A 
ATOM     12  C   UNL     1       6.206   4.816  16.836  0.00  0.00    +0.000 A 
ATOM     13  C   UNL     1       7.244   5.374  16.084  0.00  0.00    +0.000 A 
ATOM     14  C   UNL     1       7.317   5.100  14.725  0.00  0.00    +0.000 A 
ATOM     15  C   UNL     1       6.417   4.217  14.136  0.00  0.00    +0.000 A 
ATOM     16  C   UNL     1       5.410   3.625  14.883  0.00  0.00    +0.000 A 
BRANCH  14  17
ATOM     17  O   UNL     1       8.235   5.707  13.915  0.00  0.00    +0.000 OA
ATOM     18  H   UNL     1       7.750   6.197  13.229  0.00  0.00    +0.000 HD
ENDBRANCH  14  17
BRANCH  15  19
ATOM     19  O   UNL     1       6.466   3.980  12.792  0.00  0.00    +0.000 OA
ATOM     20  H   UNL     1       6.087   4.786  12.390  0.00  0.00    +0.000 HD
ENDBRANCH  15  19
ENDBRANCH  10  11
BRANCH   4  21
ATOM     21  O   UNL     1      -0.084   4.110  20.062  0.00  0.00    +0.000 OA
ATOM     22  H   UNL     1      -0.202   4.704  20.819  0.00  0.00    +0.000 HD
ENDBRANCH   4  21
BRANCH   6  23
ATOM     23  O   UNL     1       3.096   1.657  22.563  0.00  0.00    +0.000 OA
ATOM     24  H   UNL     1       2.735   0.755  22.552  0.00  0.00    +0.000 HD
ENDBRANCH   6  23
BRANCH   1  25
ATOM     25  O   UNL     1       3.664   5.802  17.923  0.00  0.00    +0.000 OA
BRANCH  25  27
ATOM     26  O   UNL     1       3.923   7.667  16.618  0.00  0.00    +0.000 OA
ATOM     27  C   UNL     1       3.436   7.085  17.576  0.00  0.00    +0.000 C 
BRANCH  27  28
ATOM     28  C   UNL     1       2.523   7.752  18.555  0.00  0.00    +0.000 A 
ATOM     29  C   UNL     1       1.919   8.955  18.185  0.00  0.00    +0.000 A 
ATOM     30  C   UNL     1       1.120   9.651  19.097  0.00  0.00    +0.000 A 
ATOM     31  C   UNL     1       0.885   9.147  20.380  0.00  0.00    +0.000 A 
ATOM     32  C   UNL     1       1.467   7.934  20.747  0.00  0.00    +0.000 A 
ATOM     33  C   UNL     1       2.269   7.229  19.833  0.00  0.00    +0.000 A 
BRANCH  31  34
ATOM     34  O   UNL     1       0.134   9.965  21.166  0.00  0.00    +0.000 OA
BRANCH  34  35
ATOM     35  C   UNL     1      -0.295   9.543  22.449  0.00  0.00    +0.000 C 
ATOM     36  F   UNL     1      -0.943   8.359  22.451  0.00  0.00    +0.000 F 
ATOM     37  F   UNL     1       0.766   9.464  23.279  0.00  0.00    +0.000 F 
ATOM     38  F   UNL     1      -1.143  10.477  22.937  0.00  0.00    +0.000 F 
ENDBRANCH  34  35
ENDBRANCH  31  34
ENDBRANCH  27  28
ENDBRANCH  25  27
ENDBRANCH   1  25
TORSDOF 10
ENDMDL
MODEL 2
REMARK VINA RESULT:      -8.3      4.415      7.613
REMARK  Name = 
REMARK  10 active torsions:
REMARK  status: ('A' for Active; 'I' for Inactive)
REMARK    1  A    between atoms: C_2  and  O_3
REMARK    2  A    between atoms: C_2  and  C_24
REMARK    3  A    between atoms: O_3  and  C_4
REMARK    4  A    between atoms: C_7  and  O_8
REMARK    5  A    between atoms: C_10  and  O_11
REMARK    6  A    between atoms: C_15  and  C_16
REMARK    7  A    between atoms: C_19  and  O_20
REMARK    8  A    between atoms: C_21  and  O_22
REMARK    9  A    between atoms: C_27  and  O_28
REMARK   10  A    between atoms: O_28  and  C_29
REMARK                            x       y       z     vdW  Elec       q    Type
REMARK                         _______ _______ _______ _____ _____    ______ ____
ROOT
ATOM      1  C   UNL     1       3.271   6.691  17.570  0.00  0.00    +0.000 C 
ATOM      2  C   UNL     1       2.448   7.969  17.426  0.00  0.00    +0.000 C 
ATOM      3  C   UNL     1       1.987   8.426  18.783  0.00  0.00    +0.000 A 
ATOM      4  C   UNL     1       1.747   9.773  19.081  0.00  0.00    +0.000 A 
ATOM      5  C   UNL     1       1.353  10.167  20.359  0.00  0.00    +0.000 A 
ATOM      6  C   UNL     1       1.176   9.206  21.345  0.00  0.00    +0.000 A 
ATOM      7  C   UNL     1       1.387   7.864  21.072  0.00  0.00    +0.000 A 
ATOM      8  C   UNL     1       1.793   7.471  19.795  0.00  0.00    +0.000 A 
ATOM      9  O   UNL     1       2.031   6.129  19.652  0.00  0.00    +0.000 OA
ATOM     10  C   UNL     1       2.399   5.673  18.342  0.00  0.00    +0.000 C 
ENDROOT
BRANCH  10  11
ATOM     11  C   UNL     1       3.132   4.341  18.428  0.00  0.00    +0.000 A 
ATOM     12  C   UNL     1       3.216   3.470  17.326  0.00  0.00    +0.000 A 
ATOM     13  C   UNL     1       3.682   2.160  17.482  0.00  0.00    +0.000 A 
ATOM     14  C   UNL     1       4.044   1.719  18.748  0.00  0.00    +0.000 A 
ATOM     15  C   UNL     1       4.021   2.592  19.831  0.00  0.00    +0.000 A 
ATOM     16  C   UNL     1       3.603   3.905  19.677  0.00  0.00    +0.000 A 
BRANCH  14  17
ATOM     17  O   UNL     1       4.393   0.419  18.986  0.00  0.00    +0.000 OA
ATOM     18  H   UNL     1       4.933   0.113  18.237  0.00  0.00    +0.000 HD
ENDBRANCH  14  17
BRANCH  15  19
ATOM     19  O   UNL     1       4.340   2.145  21.081  0.00  0.00    +0.000 OA
ATOM     20  H   UNL     1       5.244   2.483  21.236  0.00  0.00    +0.000 HD
ENDBRANCH  15  19
ENDBRANCH  10  11
BRANCH   4  21
ATOM     21  O   UNL     1       1.894  10.788  18.178  0.00  0.00    +0.000 OA
ATOM     22  H   UNL     1       2.619  10.597  17.564  0.00  0.00    +0.000 HD
ENDBRANCH   4  21
BRANCH   6  23
ATOM     23  O   UNL     1       0.799   9.548  22.610  0.00  0.00    +0.000 OA
ATOM     24  H   UNL     1      -0.101   9.217  22.763  0.00  0.00    +0.000 HD
ENDBRANCH   6  23
BRANCH   1  25
ATOM     25  O   UNL     1       4.500   6.956  18.296  0.00  0.00    +0.000 OA
BRANCH  25  27
ATOM     26  O   UNL     1       6.439   8.016  17.689  0.00  0.00    +0.000 OA
ATOM     27  C   UNL     1       5.616   7.123  17.556  0.00  0.00    +0.000 C 
BRANCH  27  28
ATOM     28  C   UNL     1       5.711   6.082  16.487  0.00  0.00    +0.000 A 
ATOM     29  C   UNL     1       6.467   4.935  16.743  0.00  0.00    +0.000 A 
ATOM     30  C   UNL     1       6.646   3.972  15.746  0.00  0.00    +0.000 A 
ATOM     31  C   UNL     1       6.053   4.119  14.488  0.00  0.00    +0.000 A 
ATOM     32  C   UNL     1       5.278   5.250  14.234  0.00  0.00    +0.000 A 
ATOM     33  C   UNL     1       5.092   6.221  15.234  0.00  0.00    +0.000 A 
BRANCH  31  34
ATOM     34  O   UNL     1       6.366   3.128  13.611  0.00  0.00    +0.000 OA
BRANCH  34  35
ATOM     35  C   UNL     1       6.311   3.354  12.213  0.00  0.00    +0.000 C 
ATOM     36  F   UNL     1       5.075   3.642  11.750  0.00  0.00    +0.000 F 
ATOM     37  F   UNL     1       7.148   4.359  11.882  0.00  0.00    +0.000 F 
ATOM     38  F   UNL     1       6.733   2.231  11.588  0.00  0.00    +0.000 F 
ENDBRANCH  34  35
ENDBRANCH  31  34
ENDBRANCH  27  28
ENDBRANCH  25  27
ENDBRANCH   1  25
TORSDOF 10
ENDMDL
MODEL 3
REMARK VINA RESULT:      -8.2      4.457      7.530
REMARK  Name = 
REMARK  10 active torsions:
REMARK  status: ('A' for Active; 'I' for Inactive)
REMARK    1  A    between atoms: C_2  and  O_3
REMARK    2  A    between atoms: C_2  and  C_24
REMARK    3  A    between atoms: O_3  and  C_4
REMARK    4  A    between atoms: C_7  and  O_8
REMARK    5  A    between atoms: C_10  and  O_11
REMARK    6  A    between atoms: C_15  and  C_16
REMARK    7  A    between atoms: C_19  and  O_20
REMARK    8  A    between atoms: C_21  and  O_22
REMARK    9  A    between atoms: C_27  and  O_28
REMARK   10  A    between atoms: O_28  and  C_29
REMARK                            x       y       z     vdW  Elec       q    Type
REMARK                         _______ _______ _______ _____ _____    ______ ____
ROOT
ATOM      1  C   UNL     1       3.367   6.605  17.515  0.00  0.00    +0.000 C 
ATOM      2  C   UNL     1       2.522   7.868  17.369  0.00  0.00    +0.000 C 
ATOM      3  C   UNL     1       2.028   8.301  18.722  0.00  0.00    +0.000 A 
ATOM      4  C   UNL     1       1.756   9.640  19.030  0.00  0.00    +0.000 A 
ATOM      5  C   UNL     1       1.331  10.013  20.304  0.00  0.00    +0.000 A 
ATOM      6  C   UNL     1       1.154   9.038  21.277  0.00  0.00    +0.000 A 
ATOM      7  C   UNL     1       1.397   7.704  20.993  0.00  0.00    +0.000 A 
ATOM      8  C   UNL     1       1.834   7.332  19.720  0.00  0.00    +0.000 A 
ATOM      9  O   UNL     1       2.100   5.997  19.568  0.00  0.00    +0.000 OA
ATOM     10  C   UNL     1       2.501   5.562  18.260  0.00  0.00    +0.000 C 
ENDROOT
BRANCH  10  11
ATOM     11  C   UNL     1       3.258   4.243  18.346  0.00  0.00    +0.000 A 
ATOM     12  C   UNL     1       3.267   3.325  17.280  0.00  0.00    +0.000 A 
ATOM     13  C   UNL     1       3.762   2.028  17.456  0.00  0.00    +0.000 A 
ATOM     14  C   UNL     1       4.230   1.648  18.707  0.00  0.00    +0.000 A 
ATOM     15  C   UNL     1       4.280   2.569  19.749  0.00  0.00    +0.000 A 
ATOM     16  C   UNL     1       3.832   3.869  19.572  0.00  0.00    +0.000 A 
BRANCH  14  17
ATOM     17  O   UNL     1       4.615   0.364  18.974  0.00  0.00    +0.000 OA
ATOM     18  H   UNL     1       5.074   0.022  18.187  0.00  0.00    +0.000 HD
ENDBRANCH  14  17
BRANCH  15  19
ATOM     19  O   UNL     1       4.703   2.182  20.989  0.00  0.00    +0.000 OA
ATOM     20  H   UNL     1       5.268   2.920  21.293  0.00  0.00    +0.000 HD
ENDBRANCH  15  19
ENDBRANCH  10  11
BRANCH   4  21
ATOM     21  O   UNL     1       1.901  10.668  18.140  0.00  0.00    +0.000 OA
ATOM     22  H   UNL     1       1.179  10.666  17.494  0.00  0.00    +0.000 HD
ENDBRANCH   4  21
BRANCH   6  23
ATOM     23  O   UNL     1       0.747   9.359  22.538  0.00  0.00    +0.000 OA
ATOM     24  H   UNL     1      -0.043   8.836  22.749  0.00  0.00    +0.000 HD
ENDBRANCH   6  23
BRANCH   1  25
ATOM     25  O   UNL     1       4.577   6.885  18.267  0.00  0.00    +0.000 OA
BRANCH  25  27
ATOM     26  O   UNL     1       6.459   8.050  17.673  0.00  0.00    +0.000 OA
ATOM     27  C   UNL     1       5.699   7.102  17.549  0.00  0.00    +0.000 C 
BRANCH  27  28
ATOM     28  C   UNL     1       5.889   6.037  16.516  0.00  0.00    +0.000 A 
ATOM     29  C   UNL     1       5.213   6.164  15.301  0.00  0.00    +0.000 A 
ATOM     30  C   UNL     1       5.301   5.155  14.337  0.00  0.00    +0.000 A 
ATOM     31  C   UNL     1       6.086   4.018  14.554  0.00  0.00    +0.000 A 
ATOM     32  C   UNL     1       6.781   3.897  15.757  0.00  0.00    +0.000 A 
ATOM     33  C   UNL     1       6.699   4.909  16.728  0.00  0.00    +0.000 A 
BRANCH  31  34
ATOM     34  O   UNL     1       6.025   3.104  13.549  0.00  0.00    +0.000 OA
BRANCH  34  35
ATOM     35  C   UNL     1       6.448   3.439  12.238  0.00  0.00    +0.000 C 
ATOM     36  F   UNL     1       7.124   2.453  11.610  0.00  0.00    +0.000 F 
ATOM     37  F   UNL     1       5.379   3.783  11.491  0.00  0.00    +0.000 F 
ATOM     38  F   UNL     1       7.267   4.512  12.321  0.00  0.00    +0.000 F 
ENDBRANCH  34  35
ENDBRANCH  31  34
ENDBRANCH  27  28
ENDBRANCH  25  27
ENDBRANCH   1  25
TORSDOF 10
ENDMDL
MODEL 4
REMARK VINA RESULT:      -8.1      0.677      1.419
REMARK  Name = 
REMARK  10 active torsions:
REMARK  status: ('A' for Active; 'I' for Inactive)
REMARK    1  A    between atoms: C_2  and  O_3
REMARK    2  A    between atoms: C_2  and  C_24
REMARK    3  A    between atoms: O_3  and  C_4
REMARK    4  A    between atoms: C_7  and  O_8
REMARK    5  A    between atoms: C_10  and  O_11
REMARK    6  A    between atoms: C_15  and  C_16
REMARK    7  A    between atoms: C_19  and  O_20
REMARK    8  A    between atoms: C_21  and  O_22
REMARK    9  A    between atoms: C_27  and  O_28
REMARK   10  A    between atoms: O_28  and  C_29
REMARK                            x       y       z     vdW  Elec       q    Type
REMARK                         _______ _______ _______ _____ _____    ______ ____
ROOT
ATOM      1  C   UNL     1       2.850   4.929  17.134  0.00  0.00    +0.000 C 
ATOM      2  C   UNL     1       1.744   4.230  17.921  0.00  0.00    +0.000 C 
ATOM      3  C   UNL     1       2.349   3.457  19.061  0.00  0.00    +0.000 A 
ATOM      4  C   UNL     1       1.657   3.211  20.253  0.00  0.00    +0.000 A 
ATOM      5  C   UNL     1       2.259   2.519  21.304  0.00  0.00    +0.000 A 
ATOM      6  C   UNL     1       3.558   2.050  21.157  0.00  0.00    +0.000 A 
ATOM      7  C   UNL     1       4.257   2.263  19.980  0.00  0.00    +0.000 A 
ATOM      8  C   UNL     1       3.658   2.965  18.933  0.00  0.00    +0.000 A 
ATOM      9  O   UNL     1       4.461   3.170  17.841  0.00  0.00    +0.000 OA
ATOM     10  C   UNL     1       3.868   3.841  16.719  0.00  0.00    +0.000 C 
ENDROOT
BRANCH  10  11
ATOM     11  C   UNL     1       4.946   4.465  15.842  0.00  0.00    +0.000 A 
ATOM     12  C   UNL     1       5.180   4.021  14.528  0.00  0.00    +0.000 A 
ATOM     13  C   UNL     1       6.315   4.434  13.823  0.00  0.00    +0.000 A 
ATOM     14  C   UNL     1       7.226   5.278  14.445  0.00  0.00    +0.000 A 
ATOM     15  C   UNL     1       6.971   5.769  15.721  0.00  0.00    +0.000 A 
ATOM     16  C   UNL     1       5.827   5.400  16.411  0.00  0.00    +0.000 A 
BRANCH  14  17
ATOM     17  O   UNL     1       8.410   5.622  13.855  0.00  0.00    +0.000 OA
ATOM     18  H   UNL     1       8.401   6.583  13.707  0.00  0.00    +0.000 HD
ENDBRANCH  14  17
BRANCH  15  19
ATOM     19  O   UNL     1       7.887   6.567  16.346  0.00  0.00    +0.000 OA
ATOM     20  H   UNL     1       8.609   6.662  15.695  0.00  0.00    +0.000 HD
ENDBRANCH  15  19
ENDBRANCH  10  11
BRANCH   4  21
ATOM     21  O   UNL     1       0.379   3.633  20.491  0.00  0.00    +0.000 OA
ATOM     22  H   UNL     1      -0.171   3.518  19.702  0.00  0.00    +0.000 HD
ENDBRANCH   4  21
BRANCH   6  23
ATOM     23  O   UNL     1       4.186   1.376  22.161  0.00  0.00    +0.000 OA
ATOM     24  H   UNL     1       3.531   0.824  22.619  0.00  0.00    +0.000 HD
ENDBRANCH   6  23
BRANCH   1  25
ATOM     25  O   UNL     1       3.495   5.940  17.951  0.00  0.00    +0.000 OA
BRANCH  25  27
ATOM     26  O   UNL     1       3.697   7.833  16.677  0.00  0.00    +0.000 OA
ATOM     27  C   UNL     1       3.241   7.227  17.635  0.00  0.00    +0.000 C 
BRANCH  27  28
ATOM     28  C   UNL     1       2.345   7.862  18.649  0.00  0.00    +0.000 A 
ATOM     29  C   UNL     1       1.693   9.049  18.307  0.00  0.00    +0.000 A 
ATOM     30  C   UNL     1       0.907   9.718  19.249  0.00  0.00    +0.000 A 
ATOM     31  C   UNL     1       0.732   9.202  20.537  0.00  0.00    +0.000 A 
ATOM     32  C   UNL     1       1.362   8.005  20.878  0.00  0.00    +0.000 A 
ATOM     33  C   UNL     1       2.151   7.327  19.933  0.00  0.00    +0.000 A 
BRANCH  31  34
ATOM     34  O   UNL     1      -0.014   9.994  21.353  0.00  0.00    +0.000 OA
BRANCH  34  35
ATOM     35  C   UNL     1      -0.256   9.624  22.700  0.00  0.00    +0.000 C 
ATOM     36  F   UNL     1      -0.894  10.568  23.424  0.00  0.00    +0.000 F 
ATOM     37  F   UNL     1      -0.978   8.484  22.733  0.00  0.00    +0.000 F 
ATOM     38  F   UNL     1       0.936   9.385  23.292  0.00  0.00    +0.000 F 
ENDBRANCH  34  35
ENDBRANCH  31  34
ENDBRANCH  27  28
ENDBRANCH  25  27
ENDBRANCH   1  25
TORSDOF 10
ENDMDL
MODEL 5
REMARK VINA RESULT:      -8.1      0.794      1.329
REMARK  Name = 
REMARK  10 active torsions:
REMARK  status: ('A' for Active; 'I' for Inactive)
REMARK    1  A    between atoms: C_2  and  O_3
REMARK    2  A    between atoms: C_2  and  C_24
REMARK    3  A    between atoms: O_3  and  C_4
REMARK    4  A    between atoms: C_7  and  O_8
REMARK    5  A    between atoms: C_10  and  O_11
REMARK    6  A    between atoms: C_15  and  C_16
REMARK    7  A    between atoms: C_19  and  O_20
REMARK    8  A    between atoms: C_21  and  O_22
REMARK    9  A    between atoms: C_27  and  O_28
REMARK   10  A    between atoms: O_28  and  C_29
REMARK                            x       y       z     vdW  Elec       q    Type
REMARK                         _______ _______ _______ _____ _____    ______ ____
ROOT
ATOM      1  C   UNL     1       3.065   4.772  17.113  0.00  0.00    +0.000 C 
ATOM      2  C   UNL     1       1.764   4.304  17.760  0.00  0.00    +0.000 C 
ATOM      3  C   UNL     1       2.071   3.584  19.044  0.00  0.00    +0.000 A 
ATOM      4  C   UNL     1       1.177   3.553  20.121  0.00  0.00    +0.000 A 
ATOM      5  C   UNL     1       1.507   2.905  21.311  0.00  0.00    +0.000 A 
ATOM      6  C   UNL     1       2.734   2.263  21.421  0.00  0.00    +0.000 A 
ATOM      7  C   UNL     1       3.629   2.262  20.364  0.00  0.00    +0.000 A 
ATOM      8  C   UNL     1       3.303   2.921  19.177  0.00  0.00    +0.000 A 
ATOM      9  O   UNL     1       4.284   2.908  18.221  0.00  0.00    +0.000 OA
ATOM     10  C   UNL     1       3.972   3.527  16.964  0.00  0.00    +0.000 C 
ENDROOT
BRANCH  10  11
ATOM     11  C   UNL     1       5.248   3.916  16.230  0.00  0.00    +0.000 A 
ATOM     12  C   UNL     1       6.257   4.676  16.851  0.00  0.00    +0.000 A 
ATOM     13  C   UNL     1       7.305   5.223  16.104  0.00  0.00    +0.000 A 
ATOM     14  C   UNL     1       7.330   5.023  14.730  0.00  0.00    +0.000 A 
ATOM     15  C   UNL     1       6.370   4.223  14.117  0.00  0.00    +0.000 A 
ATOM     16  C   UNL     1       5.352   3.641  14.857  0.00  0.00    +0.000 A 
BRANCH  14  17
ATOM     17  O   UNL     1       8.258   5.628  13.930  0.00  0.00    +0.000 OA
ATOM     18  H   UNL     1       8.931   4.965  13.699  0.00  0.00    +0.000 HD
ENDBRANCH  14  17
BRANCH  15  19
ATOM     19  O   UNL     1       6.374   4.061  12.761  0.00  0.00    +0.000 OA
ATOM     20  H   UNL     1       6.594   3.117  12.631  0.00  0.00    +0.000 HD
ENDBRANCH  15  19
ENDBRANCH  10  11
BRANCH   4  21
ATOM     21  O   UNL     1      -0.050   4.154  20.107  0.00  0.00    +0.000 OA
ATOM     22  H   UNL     1      -0.693   3.631  20.609  0.00  0.00    +0.000 HD
ENDBRANCH   4  21
BRANCH   6  23
ATOM     23  O   UNL     1       3.099   1.624  22.569  0.00  0.00    +0.000 OA
ATOM     24  H   UNL     1       2.780   0.708  22.526  0.00  0.00    +0.000 HD
ENDBRANCH   6  23
BRANCH   1  25
ATOM     25  O   UNL     1       3.713   5.774  17.939  0.00  0.00    +0.000 OA
BRANCH  25  27
ATOM     26  O   UNL     1       4.308   7.535  16.600  0.00  0.00    +0.000 OA
ATOM     27  C   UNL     1       3.648   7.050  17.506  0.00  0.00    +0.000 C 
BRANCH  27  28
ATOM     28  C   UNL     1       2.676   7.843  18.319  0.00  0.00    +0.000 A 
ATOM     29  C   UNL     1       2.407   7.426  19.625  0.00  0.00    +0.000 A 
ATOM     30  C   UNL     1       1.449   8.092  20.395  0.00  0.00    +0.000 A 
ATOM     31  C   UNL     1       0.765   9.202  19.890  0.00  0.00    +0.000 A 
ATOM     32  C   UNL     1       1.046   9.638  18.595  0.00  0.00    +0.000 A 
ATOM     33  C   UNL     1       2.010   8.974  17.818  0.00  0.00    +0.000 A 
BRANCH  31  34
ATOM     34  O   UNL     1      -0.172   9.706  20.737  0.00  0.00    +0.000 OA
BRANCH  34  35
ATOM     35  C   UNL     1      -0.012  10.990  21.315  0.00  0.00    +0.000 C 
ATOM     36  F   UNL     1       1.243  11.480  21.229  0.00  0.00    +0.000 F 
ATOM     37  F   UNL     1      -0.863  11.859  20.729  0.00  0.00    +0.000 F 
ATOM     38  F   UNL     1      -0.334  10.905  22.625  0.00  0.00    +0.000 F 
ENDBRANCH  34  35
ENDBRANCH  31  34
ENDBRANCH  27  28
ENDBRANCH  25  27
ENDBRANCH   1  25
TORSDOF 10
ENDMDL
MODEL 6
REMARK VINA RESULT:      -8.0      1.945      2.396
REMARK  Name = 
REMARK  10 active torsions:
REMARK  status: ('A' for Active; 'I' for Inactive)
REMARK    1  A    between atoms: C_2  and  O_3
REMARK    2  A    between atoms: C_2  and  C_24
REMARK    3  A    between atoms: O_3  and  C_4
REMARK    4  A    between atoms: C_7  and  O_8
REMARK    5  A    between atoms: C_10  and  O_11
REMARK    6  A    between atoms: C_15  and  C_16
REMARK    7  A    between atoms: C_19  and  O_20
REMARK    8  A    between atoms: C_21  and  O_22
REMARK    9  A    between atoms: C_27  and  O_28
REMARK   10  A    between atoms: O_28  and  C_29
REMARK                            x       y       z     vdW  Elec       q    Type
REMARK                         _______ _______ _______ _____ _____    ______ ____
ROOT
ATOM      1  C   UNL     1       3.995   5.361  17.549  0.00  0.00    +0.000 C 
ATOM      2  C   UNL     1       2.836   4.391  17.335  0.00  0.00    +0.000 C 
ATOM      3  C   UNL     1       2.533   3.678  18.624  0.00  0.00    +0.000 A 
ATOM      4  C   UNL     1       1.253   3.204  18.938  0.00  0.00    +0.000 A 
ATOM      5  C   UNL     1       0.997   2.577  20.157  0.00  0.00    +0.000 A 
ATOM      6  C   UNL     1       2.034   2.401  21.064  0.00  0.00    +0.000 A 
ATOM      7  C   UNL     1       3.313   2.842  20.770  0.00  0.00    +0.000 A 
ATOM      8  C   UNL     1       3.566   3.480  19.554  0.00  0.00    +0.000 A 
ATOM      9  O   UNL     1       4.851   3.929  19.394  0.00  0.00    +0.000 OA
ATOM     10  C   UNL     1       5.169   4.544  18.137  0.00  0.00    +0.000 C 
ENDROOT
BRANCH  10  11
ATOM     11  C   UNL     1       6.391   5.443  18.278  0.00  0.00    +0.000 A 
ATOM     12  C   UNL     1       7.291   5.306  19.351  0.00  0.00    +0.000 A 
ATOM     13  C   UNL     1       8.265   6.278  19.597  0.00  0.00    +0.000 A 
ATOM     14  C   UNL     1       8.324   7.398  18.779  0.00  0.00    +0.000 A 
ATOM     15  C   UNL     1       7.477   7.511  17.680  0.00  0.00    +0.000 A 
ATOM     16  C   UNL     1       6.537   6.531  17.402  0.00  0.00    +0.000 A 
BRANCH  14  17
ATOM     17  O   UNL     1       9.173   8.437  19.038  0.00  0.00    +0.000 OA
ATOM     18  H   UNL     1       9.669   8.627  18.224  0.00  0.00    +0.000 HD
ENDBRANCH  14  17
BRANCH  15  19
ATOM     19  O   UNL     1       7.510   8.632  16.900  0.00  0.00    +0.000 OA
ATOM     20  H   UNL     1       7.619   9.367  17.536  0.00  0.00    +0.000 HD
ENDBRANCH  15  19
ENDBRANCH  10  11
BRANCH   4  21
ATOM     21  O   UNL     1       0.172   3.331  18.111  0.00  0.00    +0.000 OA
ATOM     22  H   UNL     1       0.047   4.256  17.851  0.00  0.00    +0.000 HD
ENDBRANCH   4  21
BRANCH   6  23
ATOM     23  O   UNL     1       1.826   1.799  22.270  0.00  0.00    +0.000 OA
ATOM     24  H   UNL     1       1.833   0.837  22.139  0.00  0.00    +0.000 HD
ENDBRANCH   6  23
BRANCH   1  25
ATOM     25  O   UNL     1       3.609   6.421  18.463  0.00  0.00    +0.000 OA
BRANCH  25  27
ATOM     26  O   UNL     1       3.028   7.866  16.783  0.00  0.00    +0.000 OA
ATOM     27  C   UNL     1       2.936   7.462  17.932  0.00  0.00    +0.000 C 
BRANCH  27  28
ATOM     28  C   UNL     1       2.068   8.119  18.958  0.00  0.00    +0.000 A 
ATOM     29  C   UNL     1       1.422   9.310  18.616  0.00  0.00    +0.000 A 
ATOM     30  C   UNL     1       0.663   9.998  19.567  0.00  0.00    +0.000 A 
ATOM     31  C   UNL     1       0.510   9.498  20.864  0.00  0.00    +0.000 A 
ATOM     32  C   UNL     1       1.134   8.298  21.205  0.00  0.00    +0.000 A 
ATOM     33  C   UNL     1       1.895   7.601  20.252  0.00  0.00    +0.000 A 
BRANCH  31  34
ATOM     34  O   UNL     1      -0.210  10.308  21.687  0.00  0.00    +0.000 OA
BRANCH  34  35
ATOM     35  C   UNL     1      -0.655   9.846  22.951  0.00  0.00    +0.000 C 
ATOM     36  F   UNL     1      -1.253   8.636  22.916  0.00  0.00    +0.000 F 
ATOM     37  F   UNL     1       0.386   9.795  23.807  0.00  0.00    +0.000 F 
ATOM     38  F   UNL     1      -1.552  10.736  23.432  0.00  0.00    +0.000 F 
ENDBRANCH  34  35
ENDBRANCH  31  34
ENDBRANCH  27  28
ENDBRANCH  25  27
ENDBRANCH   1  25
TORSDOF 10
ENDMDL
MODEL 7
REMARK VINA RESULT:      -8.0      1.878      2.543
REMARK  Name = 
REMARK  10 active torsions:
REMARK  status: ('A' for Active; 'I' for Inactive)
REMARK    1  A    between atoms: C_2  and  O_3
REMARK    2  A    between atoms: C_2  and  C_24
REMARK    3  A    between atoms: O_3  and  C_4
REMARK    4  A    between atoms: C_7  and  O_8
REMARK    5  A    between atoms: C_10  and  O_11
REMARK    6  A    between atoms: C_15  and  C_16
REMARK    7  A    between atoms: C_19  and  O_20
REMARK    8  A    between atoms: C_21  and  O_22
REMARK    9  A    between atoms: C_27  and  O_28
REMARK   10  A    between atoms: O_28  and  C_29
REMARK                            x       y       z     vdW  Elec       q    Type
REMARK                         _______ _______ _______ _____ _____    ______ ____
ROOT
ATOM      1  C   UNL     1       3.905   5.143  17.578  0.00  0.00    +0.000 C 
ATOM      2  C   UNL     1       2.739   4.174  17.395  0.00  0.00    +0.000 C 
ATOM      3  C   UNL     1       2.392   3.550  18.719  0.00  0.00    +0.000 A 
ATOM      4  C   UNL     1       1.098   3.113  19.028  0.00  0.00    +0.000 A 
ATOM      5  C   UNL     1       0.802   2.569  20.278  0.00  0.00    +0.000 A 
ATOM      6  C   UNL     1       1.811   2.441  21.222  0.00  0.00    +0.000 A 
ATOM      7  C   UNL     1       3.104   2.847  20.935  0.00  0.00    +0.000 A 
ATOM      8  C   UNL     1       3.397   3.402  19.688  0.00  0.00    +0.000 A 
ATOM      9  O   UNL     1       4.692   3.823  19.534  0.00  0.00    +0.000 OA
ATOM     10  C   UNL     1       5.052   4.351  18.249  0.00  0.00    +0.000 C 
ENDROOT
BRANCH  10  11
ATOM     11  C   UNL     1       6.281   5.243  18.365  0.00  0.00    +0.000 A 
ATOM     12  C   UNL     1       7.160   5.154  19.461  0.00  0.00    +0.000 A 
ATOM     13  C   UNL     1       8.141   6.127  19.673  0.00  0.00    +0.000 A 
ATOM     14  C   UNL     1       8.228   7.201  18.797  0.00  0.00    +0.000 A 
ATOM     15  C   UNL     1       7.404   7.264  17.678  0.00  0.00    +0.000 A 
ATOM     16  C   UNL     1       6.457   6.281  17.435  0.00  0.00    +0.000 A 
BRANCH  14  17
ATOM     17  O   UNL     1       9.085   8.243  19.016  0.00  0.00    +0.000 OA
ATOM     18  H   UNL     1       9.314   8.247  19.962  0.00  0.00    +0.000 HD
ENDBRANCH  14  17
BRANCH  15  19
ATOM     19  O   UNL     1       7.465   8.341  16.840  0.00  0.00    +0.000 OA
ATOM     20  H   UNL     1       7.387   9.114  17.433  0.00  0.00    +0.000 HD
ENDBRANCH  15  19
ENDBRANCH  10  11
BRANCH   4  21
ATOM     21  O   UNL     1       0.041   3.199  18.165  0.00  0.00    +0.000 OA
ATOM     22  H   UNL     1       0.123   3.983  17.601  0.00  0.00    +0.000 HD
ENDBRANCH   4  21
BRANCH   6  23
ATOM     23  O   UNL     1       1.563   1.922  22.458  0.00  0.00    +0.000 OA
ATOM     24  H   UNL     1       0.651   2.144  22.708  0.00  0.00    +0.000 HD
ENDBRANCH   6  23
BRANCH   1  25
ATOM     25  O   UNL     1       3.510   6.264  18.410  0.00  0.00    +0.000 OA
BRANCH  25  27
ATOM     26  O   UNL     1       3.389   7.711  16.638  0.00  0.00    +0.000 OA
ATOM     27  C   UNL     1       3.080   7.371  17.770  0.00  0.00    +0.000 C 
BRANCH  27  28
ATOM     28  C   UNL     1       2.190   8.189  18.650  0.00  0.00    +0.000 A 
ATOM     29  C   UNL     1       1.961   7.748  19.956  0.00  0.00    +0.000 A 
ATOM     30  C   UNL     1       1.077   8.439  20.788  0.00  0.00    +0.000 A 
ATOM     31  C   UNL     1       0.428   9.597  20.346  0.00  0.00    +0.000 A 
ATOM     32  C   UNL     1       0.670  10.055  19.051  0.00  0.00    +0.000 A 
ATOM     33  C   UNL     1       1.561   9.366  18.211  0.00  0.00    +0.000 A 
BRANCH  31  34
ATOM     34  O   UNL     1      -0.441  10.122  21.250  0.00  0.00    +0.000 OA
BRANCH  34  35
ATOM     35  C   UNL     1      -0.429   9.695  22.602  0.00  0.00    +0.000 C 
ATOM     36  F   UNL     1       0.806   9.615  23.142  0.00  0.00    +0.000 F 
ATOM     37  F   UNL     1      -1.180  10.531  23.348  0.00  0.00    +0.000 F 
ATOM     38  F   UNL     1      -0.985   8.464  22.659  0.00  0.00    +0.000 F 
ENDBRANCH  34  35
ENDBRANCH  31  34
ENDBRANCH  27  28
ENDBRANCH  25  27
ENDBRANCH   1  25
TORSDOF 10
ENDMDL
MODEL 8
REMARK VINA RESULT:      -8.0      1.281      1.502
REMARK  Name = 
REMARK  10 active torsions:
REMARK  status: ('A' for Active; 'I' for Inactive)
REMARK    1  A    between atoms: C_2  and  O_3
REMARK    2  A    between atoms: C_2  and  C_24
REMARK    3  A    between atoms: O_3  and  C_4
REMARK    4  A    between atoms: C_7  and  O_8
REMARK    5  A    between atoms: C_10  and  O_11
REMARK    6  A    between atoms: C_15  and  C_16
REMARK    7  A    between atoms: C_19  and  O_20
REMARK    8  A    between atoms: C_21  and  O_22
REMARK    9  A    between atoms: C_27  and  O_28
REMARK   10  A    between atoms: O_28  and  C_29
REMARK                            x       y       z     vdW  Elec       q    Type
REMARK                         _______ _______ _______ _____ _____    ______ ____
ROOT
ATOM      1  C   UNL     1       3.065   4.737  17.162  0.00  0.00    +0.000 C 
ATOM      2  C   UNL     1       1.764   4.264  17.805  0.00  0.00    +0.000 C 
ATOM      3  C   UNL     1       2.071   3.537  19.086  0.00  0.00    +0.000 A 
ATOM      4  C   UNL     1       1.175   3.499  20.162  0.00  0.00    +0.000 A 
ATOM      5  C   UNL     1       1.505   2.845  21.349  0.00  0.00    +0.000 A 
ATOM      6  C   UNL     1       2.732   2.205  21.457  0.00  0.00    +0.000 A 
ATOM      7  C   UNL     1       3.628   2.211  20.401  0.00  0.00    +0.000 A 
ATOM      8  C   UNL     1       3.303   2.875  19.217  0.00  0.00    +0.000 A 
ATOM      9  O   UNL     1       4.286   2.869  18.262  0.00  0.00    +0.000 OA
ATOM     10  C   UNL     1       3.974   3.494  17.008  0.00  0.00    +0.000 C 
ENDROOT
BRANCH  10  11
ATOM     11  C   UNL     1       5.251   3.889  16.278  0.00  0.00    +0.000 A 
ATOM     12  C   UNL     1       6.280   4.603  16.920  0.00  0.00    +0.000 A 
ATOM     13  C   UNL     1       7.331   5.161  16.185  0.00  0.00    +0.000 A 
ATOM     14  C   UNL     1       7.339   5.018  14.803  0.00  0.00    +0.000 A 
ATOM     15  C   UNL     1       6.359   4.262  14.169  0.00  0.00    +0.000 A 
ATOM     16  C   UNL     1       5.337   3.669  14.894  0.00  0.00    +0.000 A 
BRANCH  14  17
ATOM     17  O   UNL     1       8.272   5.638  14.020  0.00  0.00    +0.000 OA
ATOM     18  H   UNL     1       8.826   6.191  14.597  0.00  0.00    +0.000 HD
ENDBRANCH  14  17
BRANCH  15  19
ATOM     19  O   UNL     1       6.347   4.156  12.807  0.00  0.00    +0.000 OA
ATOM     20  H   UNL     1       6.227   3.200  12.640  0.00  0.00    +0.000 HD
ENDBRANCH  15  19
ENDBRANCH  10  11
BRANCH   4  21
ATOM     21  O   UNL     1      -0.053   4.099  20.149  0.00  0.00    +0.000 OA
ATOM     22  H   UNL     1       0.005   4.988  19.770  0.00  0.00    +0.000 HD
ENDBRANCH   4  21
BRANCH   6  23
ATOM     23  O   UNL     1       3.097   1.560  22.602  0.00  0.00    +0.000 OA
ATOM     24  H   UNL     1       4.057   1.655  22.715  0.00  0.00    +0.000 HD
ENDBRANCH   6  23
BRANCH   1  25
ATOM     25  O   UNL     1       3.711   5.735  17.995  0.00  0.00    +0.000 OA
BRANCH  25  27
ATOM     26  O   UNL     1       4.444   7.442  16.654  0.00  0.00    +0.000 OA
ATOM     27  C   UNL     1       3.714   7.001  17.529  0.00  0.00    +0.000 C 
BRANCH  27  28
ATOM     28  C   UNL     1       2.721   7.846  18.261  0.00  0.00    +0.000 A 
ATOM     29  C   UNL     1       2.265   9.015  17.649  0.00  0.00    +0.000 A 
ATOM     30  C   UNL     1       1.396   9.873  18.328  0.00  0.00    +0.000 A 
ATOM     31  C   UNL     1       0.942   9.568  19.615  0.00  0.00    +0.000 A 
ATOM     32  C   UNL     1       1.376   8.390  20.223  0.00  0.00    +0.000 A 
ATOM     33  C   UNL     1       2.248   7.522  19.544  0.00  0.00    +0.000 A 
BRANCH  31  34
ATOM     34  O   UNL     1       0.148  10.526  20.163  0.00  0.00    +0.000 OA
BRANCH  34  35
ATOM     35  C   UNL     1      -1.021  10.969  19.494  0.00  0.00    +0.000 C 
ATOM     36  F   UNL     1      -0.788  11.881  18.526  0.00  0.00    +0.000 F 
ATOM     37  F   UNL     1      -1.662   9.912  18.954  0.00  0.00    +0.000 F 
ATOM     38  F   UNL     1      -1.840  11.537  20.408  0.00  0.00    +0.000 F 
ENDBRANCH  34  35
ENDBRANCH  31  34
ENDBRANCH  27  28
ENDBRANCH  25  27
ENDBRANCH   1  25
TORSDOF 10
ENDMDL
MODEL 9
REMARK VINA RESULT:      -8.0      4.387      7.601
REMARK  Name = 
REMARK  10 active torsions:
REMARK  status: ('A' for Active; 'I' for Inactive)
REMARK    1  A    between atoms: C_2  and  O_3
REMARK    2  A    between atoms: C_2  and  C_24
REMARK    3  A    between atoms: O_3  and  C_4
REMARK    4  A    between atoms: C_7  and  O_8
REMARK    5  A    between atoms: C_10  and  O_11
REMARK    6  A    between atoms: C_15  and  C_16
REMARK    7  A    between atoms: C_19  and  O_20
REMARK    8  A    between atoms: C_21  and  O_22
REMARK    9  A    between atoms: C_27  and  O_28
REMARK   10  A    between atoms: O_28  and  C_29
REMARK                            x       y       z     vdW  Elec       q    Type
REMARK                         _______ _______ _______ _____ _____    ______ ____
ROOT
ATOM      1  C   UNL     1       3.072   6.157  17.824  0.00  0.00    +0.000 C 
ATOM      2  C   UNL     1       2.347   7.425  17.382  0.00  0.00    +0.000 C 
ATOM      3  C   UNL     1       1.930   8.214  18.593  0.00  0.00    +0.000 A 
ATOM      4  C   UNL     1       1.794   9.607  18.573  0.00  0.00    +0.000 A 
ATOM      5  C   UNL     1       1.439  10.312  19.723  0.00  0.00    +0.000 A 
ATOM      6  C   UNL     1       1.196   9.618  20.900  0.00  0.00    +0.000 A 
ATOM      7  C   UNL     1       1.304   8.238  20.943  0.00  0.00    +0.000 A 
ATOM      8  C   UNL     1       1.671   7.534  19.795  0.00  0.00    +0.000 A 
ATOM      9  O   UNL     1       1.807   6.181  19.965  0.00  0.00    +0.000 OA
ATOM     10  C   UNL     1       2.131   5.411  18.798  0.00  0.00    +0.000 C 
ENDROOT
BRANCH  10  11
ATOM     11  C   UNL     1       2.762   4.083  19.195  0.00  0.00    +0.000 A 
ATOM     12  C   UNL     1       3.200   3.835  20.509  0.00  0.00    +0.000 A 
ATOM     13  C   UNL     1       3.985   2.716  20.804  0.00  0.00    +0.000 A 
ATOM     14  C   UNL     1       4.347   1.855  19.776  0.00  0.00    +0.000 A 
ATOM     15  C   UNL     1       3.868   2.060  18.486  0.00  0.00    +0.000 A 
ATOM     16  C   UNL     1       3.054   3.143  18.193  0.00  0.00    +0.000 A 
BRANCH  14  17
ATOM     17  O   UNL     1       5.208   0.813  19.977  0.00  0.00    +0.000 OA
ATOM     18  H   UNL     1       4.718  -0.013  19.821  0.00  0.00    +0.000 HD
ENDBRANCH  14  17
BRANCH  15  19
ATOM     19  O   UNL     1       4.258   1.236  17.469  0.00  0.00    +0.000 OA
ATOM     20  H   UNL     1       3.925   0.355  17.731  0.00  0.00    +0.000 HD
ENDBRANCH  15  19
ENDBRANCH  10  11
BRANCH   4  21
ATOM     21  O   UNL     1       2.012  10.375  17.463  0.00  0.00    +0.000 OA
ATOM     22  H   UNL     1       2.959  10.435  17.269  0.00  0.00    +0.000 HD
ENDBRANCH   4  21
BRANCH   6  23
ATOM     23  O   UNL     1       0.854  10.269  22.049  0.00  0.00    +0.000 OA
ATOM     24  H   UNL     1       0.730   9.609  22.751  0.00  0.00    +0.000 HD
ENDBRANCH   6  23
BRANCH   1  25
ATOM     25  O   UNL     1       4.322   6.488  18.483  0.00  0.00    +0.000 OA
BRANCH  25  27
ATOM     26  O   UNL     1       6.043   7.848  17.820  0.00  0.00    +0.000 OA
ATOM     27  C   UNL     1       5.349   6.852  17.687  0.00  0.00    +0.000 C 
BRANCH  27  28
ATOM     28  C   UNL     1       5.517   5.889  16.556  0.00  0.00    +0.000 A 
ATOM     29  C   UNL     1       6.044   4.625  16.833  0.00  0.00    +0.000 A 
ATOM     30  C   UNL     1       6.290   3.721  15.796  0.00  0.00    +0.000 A 
ATOM     31  C   UNL     1       5.988   4.047  14.470  0.00  0.00    +0.000 A 
ATOM     32  C   UNL     1       5.440   5.299  14.189  0.00  0.00    +0.000 A 
ATOM     33  C   UNL     1       5.188   6.211  15.229  0.00  0.00    +0.000 A 
BRANCH  31  34
ATOM     34  O   UNL     1       6.336   3.087  13.572  0.00  0.00    +0.000 OA
BRANCH  34  35
ATOM     35  C   UNL     1       6.192   3.310  12.179  0.00  0.00    +0.000 C 
ATOM     36  F   UNL     1       4.939   3.645  11.802  0.00  0.00    +0.000 F 
ATOM     37  F   UNL     1       7.042   4.280  11.785  0.00  0.00    +0.000 F 
ATOM     38  F   UNL     1       6.526   2.170  11.534  0.00  0.00    +0.000 F 
ENDBRANCH  34  35
ENDBRANCH  31  34
ENDBRANCH  27  28
ENDBRANCH  25  27
ENDBRANCH   1  25
TORSDOF 10
ENDMDL
