MODEL 1
REMARK VINA RESULT:      -6.7      0.000      0.000
REMARK  Name = 
REMARK  11 active torsions:
REMARK  status: ('A' for Active; 'I' for Inactive)
REMARK    1  A    between atoms: C_1  and  C_2
REMARK    2  A    between atoms: C_2  and  O_3
REMARK    3  A    between atoms: O_3  and  C_4
REMARK    4  A    between atoms: C_4  and  C_6
REMARK    5  A    between atoms: C_7  and  S_8
REMARK    6  A    between atoms: S_8  and  N_11
REMARK    7  A    between atoms: N_11  and  C_12
REMARK    8  A    between atoms: C_15  and  C_16
REMARK    9  A    between atoms: C_20  and  C_21
REMARK   10  A    between atoms: N_22  and  C_23
REMARK   11  A    between atoms: C_24  and  C_25
REMARK                            x       y       z     vdW  Elec       q    Type
REMARK                         _______ _______ _______ _____ _____    ______ ____
ROOT
ATOM      1  C   UNL     1       3.592   3.849  20.015  0.00  0.00    +0.000 A 
ATOM      2  C   UNL     1       4.023   5.064  19.388  0.00  0.00    +0.000 A 
ATOM      3  C   UNL     1       3.047   6.035  19.618  0.00  0.00    +0.000 A 
ATOM      4  C   UNL     1       2.962   7.464  19.196  0.00  0.00    +0.000 C 
ATOM      5  N   UNL     1       2.034   5.434  20.340  0.00  0.00    +0.000 N 
ATOM      6  C   UNL     1       0.808   6.075  20.782  0.00  0.00    +0.000 C 
ATOM      7  C   UNL     1       2.346   4.114  20.587  0.00  0.00    +0.000 A 
ATOM      8  C   UNL     1       1.452   3.192  21.356  0.00  0.00    +0.000 C 
ENDROOT
BRANCH   2   9
ATOM      9  S   UNL     1       5.483   5.250  18.453  0.00  0.00    +0.000 S 
ATOM     10  O   UNL     1       5.354   6.475  17.698  0.00  0.00    +0.000 OA
ATOM     11  O   UNL     1       6.560   5.137  19.416  0.00  0.00    +0.000 OA
BRANCH   9  12
ATOM     12  N   UNL     1       5.678   3.937  17.398  0.00  0.00    +0.000 N 
ATOM     13  H   UNL     1       6.296   3.268  17.860  0.00  0.00    +0.000 HD
BRANCH  12  14
ATOM     14  C   UNL     1       6.056   4.196  16.044  0.00  0.00    +0.000 A 
ATOM     15  C   UNL     1       7.307   4.732  15.732  0.00  0.00    +0.000 A 
ATOM     16  C   UNL     1       7.695   4.892  14.397  0.00  0.00    +0.000 A 
ATOM     17  C   UNL     1       6.829   4.517  13.363  0.00  0.00    +0.000 A 
ATOM     18  C   UNL     1       7.224   4.642  11.923  0.00  0.00    +0.000 C 
ATOM     19  C   UNL     1       5.572   4.004  13.700  0.00  0.00    +0.000 A 
ATOM     20  F   UNL     1       4.729   3.628  12.726  0.00  0.00    +0.000 F 
ATOM     21  C   UNL     1       5.178   3.848  15.026  0.00  0.00    +0.000 A 
ENDBRANCH  12  14
ENDBRANCH   9  12
ENDBRANCH   2   9
BRANCH   1  22
ATOM     22  C   UNL     1       4.268   2.553  20.046  0.00  0.00    +0.000 C 
ATOM     23  O   UNL     1       4.914   2.136  20.997  0.00  0.00    +0.000 OA
BRANCH  22  24
ATOM     24  O   UNL     1       4.101   1.877  18.874  0.00  0.00    +0.000 OA
BRANCH  24  26
ATOM     25  C   UNL     1       2.478   2.436  17.233  0.00  0.00    +0.000 C 
ATOM     26  C   UNL     1       2.750   1.615  18.479  0.00  0.00    +0.000 C 
ENDBRANCH  24  26
ENDBRANCH  22  24
ENDBRANCH   1  22
TORSDOF 6
ENDMDL
MODEL 2
REMARK VINA RESULT:      -6.7      1.479      1.786
REMARK  Name = 
REMARK  11 active torsions:
REMARK  status: ('A' for Active; 'I' for Inactive)
REMARK    1  A    between atoms: C_1  and  C_2
REMARK    2  A    between atoms: C_2  and  O_3
REMARK    3  A    between atoms: O_3  and  C_4
REMARK    4  A    between atoms: C_4  and  C_6
REMARK    5  A    between atoms: C_7  and  S_8
REMARK    6  A    between atoms: S_8  and  N_11
REMARK    7  A    between atoms: N_11  and  C_12
REMARK    8  A    between atoms: C_15  and  C_16
REMARK    9  A    between atoms: C_20  and  C_21
REMARK   10  A    between atoms: N_22  and  C_23
REMARK   11  A    between atoms: C_24  and  C_25
REMARK                            x       y       z     vdW  Elec       q    Type
REMARK                         _______ _______ _______ _____ _____    ______ ____
ROOT
ATOM      1  C   UNL     1       3.771   4.255  19.330  0.00  0.00    +0.000 A 
ATOM      2  C   UNL     1       4.304   5.011  18.235  0.00  0.00    +0.000 A 
ATOM      3  C   UNL     1       3.749   6.291  18.288  0.00  0.00    +0.000 A 
ATOM      4  C   UNL     1       3.933   7.481  17.405  0.00  0.00    +0.000 C 
ATOM      5  N   UNL     1       2.881   6.317  19.362  0.00  0.00    +0.000 N 
ATOM      6  C   UNL     1       2.072   7.450  19.775  0.00  0.00    +0.000 C 
ATOM      7  C   UNL     1       2.881   5.095  20.001  0.00  0.00    +0.000 A 
ATOM      8  C   UNL     1       2.048   4.804  21.210  0.00  0.00    +0.000 C 
ENDROOT
BRANCH   2   9
ATOM      9  S   UNL     1       5.402   4.396  17.027  0.00  0.00    +0.000 S 
ATOM     10  O   UNL     1       6.740   4.540  17.553  0.00  0.00    +0.000 OA
ATOM     11  O   UNL     1       4.914   3.065  16.724  0.00  0.00    +0.000 OA
BRANCH   9  12
ATOM     12  N   UNL     1       5.246   5.276  15.587  0.00  0.00    +0.000 N 
ATOM     13  H   UNL     1       4.263   5.538  15.499  0.00  0.00    +0.000 HD
BRANCH  12  14
ATOM     14  C   UNL     1       5.780   4.720  14.383  0.00  0.00    +0.000 A 
ATOM     15  C   UNL     1       7.125   4.877  14.048  0.00  0.00    +0.000 A 
ATOM     16  C   UNL     1       7.650   4.247  12.913  0.00  0.00    +0.000 A 
ATOM     17  C   UNL     1       6.826   3.455  12.104  0.00  0.00    +0.000 A 
ATOM     18  C   UNL     1       7.361   2.739  10.901  0.00  0.00    +0.000 C 
ATOM     19  C   UNL     1       5.477   3.332  12.447  0.00  0.00    +0.000 A 
ATOM     20  F   UNL     1       4.670   2.570  11.693  0.00  0.00    +0.000 F 
ATOM     21  C   UNL     1       4.947   3.961  13.571  0.00  0.00    +0.000 A 
ENDBRANCH  12  14
ENDBRANCH   9  12
ENDBRANCH   2   9
BRANCH   1  22
ATOM     22  C   UNL     1       4.043   2.865  19.691  0.00  0.00    +0.000 C 
ATOM     23  O   UNL     1       5.142   2.441  20.019  0.00  0.00    +0.000 OA
BRANCH  22  24
ATOM     24  O   UNL     1       2.919   2.097  19.600  0.00  0.00    +0.000 OA
BRANCH  24  26
ATOM     25  C   UNL     1       0.722   2.296  18.721  0.00  0.00    +0.000 C 
ATOM     26  C   UNL     1       2.194   2.178  18.370  0.00  0.00    +0.000 C 
ENDBRANCH  24  26
ENDBRANCH  22  24
ENDBRANCH   1  22
TORSDOF 6
ENDMDL
MODEL 3
REMARK VINA RESULT:      -6.6      3.939      7.678
REMARK  Name = 
REMARK  11 active torsions:
REMARK  status: ('A' for Active; 'I' for Inactive)
REMARK    1  A    between atoms: C_1  and  C_2
REMARK    2  A    between atoms: C_2  and  O_3
REMARK    3  A    between atoms: O_3  and  C_4
REMARK    4  A    between atoms: C_4  and  C_6
REMARK    5  A    between atoms: C_7  and  S_8
REMARK    6  A    between atoms: S_8  and  N_11
REMARK    7  A    between atoms: N_11  and  C_12
REMARK    8  A    between atoms: C_15  and  C_16
REMARK    9  A    between atoms: C_20  and  C_21
REMARK   10  A    between atoms: N_22  and  C_23
REMARK   11  A    between atoms: C_24  and  C_25
REMARK                            x       y       z     vdW  Elec       q    Type
REMARK                         _______ _______ _______ _____ _____    ______ ____
ROOT
ATOM      1  C   UNL     1       4.356   5.629  17.106  0.00  0.00    +0.000 A 
ATOM      2  C   UNL     1       3.204   5.801  17.942  0.00  0.00    +0.000 A 
ATOM      3  C   UNL     1       2.749   4.534  18.309  0.00  0.00    +0.000 A 
ATOM      4  C   UNL     1       1.591   4.110  19.152  0.00  0.00    +0.000 C 
ATOM      5  N   UNL     1       3.574   3.609  17.700  0.00  0.00    +0.000 N 
ATOM      6  C   UNL     1       3.452   2.165  17.795  0.00  0.00    +0.000 C 
ATOM      7  C   UNL     1       4.549   4.254  16.968  0.00  0.00    +0.000 A 
ATOM      8  C   UNL     1       5.606   3.528  16.196  0.00  0.00    +0.000 C 
ENDROOT
BRANCH   2   9
ATOM      9  S   UNL     1       2.481   7.333  18.356  0.00  0.00    +0.000 S 
ATOM     10  O   UNL     1       3.402   8.366  17.940  0.00  0.00    +0.000 OA
ATOM     11  O   UNL     1       1.161   7.297  17.758  0.00  0.00    +0.000 OA
BRANCH   9  12
ATOM     12  N   UNL     1       2.220   7.428  20.028  0.00  0.00    +0.000 N 
ATOM     13  H   UNL     1       1.871   6.517  20.330  0.00  0.00    +0.000 HD
BRANCH  12  14
ATOM     14  C   UNL     1       1.445   8.515  20.540  0.00  0.00    +0.000 A 
ATOM     15  C   UNL     1       0.939   9.504  19.696  0.00  0.00    +0.000 A 
ATOM     16  C   UNL     1       0.106  10.508  20.202  0.00  0.00    +0.000 A 
ATOM     17  C   UNL     1      -0.224  10.529  21.562  0.00  0.00    +0.000 A 
ATOM     18  C   UNL     1      -1.139  11.570  22.132  0.00  0.00    +0.000 C 
ATOM     19  C   UNL     1       0.315   9.542  22.393  0.00  0.00    +0.000 A 
ATOM     20  F   UNL     1       0.005   9.536  23.698  0.00  0.00    +0.000 F 
ATOM     21  C   UNL     1       1.149   8.543  21.896  0.00  0.00    +0.000 A 
ENDBRANCH  12  14
ENDBRANCH   9  12
ENDBRANCH   2   9
BRANCH   1  22
ATOM     22  C   UNL     1       5.178   6.657  16.469  0.00  0.00    +0.000 C 
ATOM     23  O   UNL     1       5.089   6.979  15.293  0.00  0.00    +0.000 OA
BRANCH  22  24
ATOM     24  O   UNL     1       6.068   7.199  17.349  0.00  0.00    +0.000 OA
BRANCH  24  26
ATOM     25  C   UNL     1       7.701   6.120  18.695  0.00  0.00    +0.000 C 
ATOM     26  C   UNL     1       7.397   6.670  17.314  0.00  0.00    +0.000 C 
ENDBRANCH  24  26
ENDBRANCH  22  24
ENDBRANCH   1  22
TORSDOF 6
ENDMDL
MODEL 4
REMARK VINA RESULT:      -6.6      4.006      7.353
REMARK  Name = 
REMARK  11 active torsions:
REMARK  status: ('A' for Active; 'I' for Inactive)
REMARK    1  A    between atoms: C_1  and  C_2
REMARK    2  A    between atoms: C_2  and  O_3
REMARK    3  A    between atoms: O_3  and  C_4
REMARK    4  A    between atoms: C_4  and  C_6
REMARK    5  A    between atoms: C_7  and  S_8
REMARK    6  A    between atoms: S_8  and  N_11
REMARK    7  A    between atoms: N_11  and  C_12
REMARK    8  A    between atoms: C_15  and  C_16
REMARK    9  A    between atoms: C_20  and  C_21
REMARK   10  A    between atoms: N_22  and  C_23
REMARK   11  A    between atoms: C_24  and  C_25
REMARK                            x       y       z     vdW  Elec       q    Type
REMARK                         _______ _______ _______ _____ _____    ______ ____
ROOT
ATOM      1  C   UNL     1       2.949   4.701  18.004  0.00  0.00    +0.000 A 
ATOM      2  C   UNL     1       3.402   6.054  17.863  0.00  0.00    +0.000 A 
ATOM      3  C   UNL     1       4.700   6.018  17.348  0.00  0.00    +0.000 A 
ATOM      4  C   UNL     1       5.655   7.115  17.012  0.00  0.00    +0.000 C 
ATOM      5  N   UNL     1       5.046   4.689  17.202  0.00  0.00    +0.000 N 
ATOM      6  C   UNL     1       6.320   4.191  16.713  0.00  0.00    +0.000 C 
ATOM      7  C   UNL     1       4.001   3.880  17.595  0.00  0.00    +0.000 A 
ATOM      8  C   UNL     1       4.061   2.386  17.548  0.00  0.00    +0.000 C 
ENDROOT
BRANCH   2   9
ATOM      9  S   UNL     1       2.498   7.471  18.322  0.00  0.00    +0.000 S 
ATOM     10  O   UNL     1       3.303   8.621  17.981  0.00  0.00    +0.000 OA
ATOM     11  O   UNL     1       1.207   7.313  17.683  0.00  0.00    +0.000 OA
BRANCH   9  12
ATOM     12  N   UNL     1       2.184   7.456  19.988  0.00  0.00    +0.000 N 
ATOM     13  H   UNL     1       1.805   6.535  20.215  0.00  0.00    +0.000 HD
BRANCH  12  14
ATOM     14  C   UNL     1       1.417   8.523  20.551  0.00  0.00    +0.000 A 
ATOM     15  C   UNL     1       0.862   9.519  19.746  0.00  0.00    +0.000 A 
ATOM     16  C   UNL     1       0.038  10.503  20.304  0.00  0.00    +0.000 A 
ATOM     17  C   UNL     1      -0.234  10.497  21.677  0.00  0.00    +0.000 A 
ATOM     18  C   UNL     1      -1.138  11.514  22.303  0.00  0.00    +0.000 C 
ATOM     19  C   UNL     1       0.353   9.504  22.467  0.00  0.00    +0.000 A 
ATOM     20  F   UNL     1       0.099   9.471  23.784  0.00  0.00    +0.000 F 
ATOM     21  C   UNL     1       1.178   8.525  21.919  0.00  0.00    +0.000 A 
ENDBRANCH  12  14
ENDBRANCH   9  12
ENDBRANCH   2   9
BRANCH   1  22
ATOM     22  C   UNL     1       1.662   4.222  18.508  0.00  0.00    +0.000 C 
ATOM     23  O   UNL     1       0.793   3.721  17.810  0.00  0.00    +0.000 OA
BRANCH  22  24
ATOM     24  O   UNL     1       1.549   4.423  19.852  0.00  0.00    +0.000 OA
BRANCH  24  26
ATOM     25  C   UNL     1       2.135   2.921  21.596  0.00  0.00    +0.000 C 
ATOM     26  C   UNL     1       1.047   3.323  20.618  0.00  0.00    +0.000 C 
ENDBRANCH  24  26
ENDBRANCH  22  24
ENDBRANCH   1  22
TORSDOF 6
ENDMDL
MODEL 5
REMARK VINA RESULT:      -6.6      1.510      1.970
REMARK  Name = 
REMARK  11 active torsions:
REMARK  status: ('A' for Active; 'I' for Inactive)
REMARK    1  A    between atoms: C_1  and  C_2
REMARK    2  A    between atoms: C_2  and  O_3
REMARK    3  A    between atoms: O_3  and  C_4
REMARK    4  A    between atoms: C_4  and  C_6
REMARK    5  A    between atoms: C_7  and  S_8
REMARK    6  A    between atoms: S_8  and  N_11
REMARK    7  A    between atoms: N_11  and  C_12
REMARK    8  A    between atoms: C_15  and  C_16
REMARK    9  A    between atoms: C_20  and  C_21
REMARK   10  A    between atoms: N_22  and  C_23
REMARK   11  A    between atoms: C_24  and  C_25
REMARK                            x       y       z     vdW  Elec       q    Type
REMARK                         _______ _______ _______ _____ _____    ______ ____
ROOT
ATOM      1  C   UNL     1       3.800   5.058  19.066  0.00  0.00    +0.000 A 
ATOM      2  C   UNL     1       4.016   6.158  18.173  0.00  0.00    +0.000 A 
ATOM      3  C   UNL     1       3.150   7.188  18.546  0.00  0.00    +0.000 A 
ATOM      4  C   UNL     1       2.935   8.549  17.971  0.00  0.00    +0.000 C 
ATOM      5  N   UNL     1       2.406   6.731  19.615  0.00  0.00    +0.000 N 
ATOM      6  C   UNL     1       1.368   7.473  20.309  0.00  0.00    +0.000 C 
ATOM      7  C   UNL     1       2.784   5.446  19.941  0.00  0.00    +0.000 A 
ATOM      8  C   UNL     1       2.169   4.672  21.065  0.00  0.00    +0.000 C 
ENDROOT
BRANCH   2   9
ATOM      9  S   UNL     1       5.124   6.158  16.827  0.00  0.00    +0.000 S 
ATOM     10  O   UNL     1       4.532   6.968  15.787  0.00  0.00    +0.000 OA
ATOM     11  O   UNL     1       6.394   6.570  17.389  0.00  0.00    +0.000 OA
BRANCH   9  12
ATOM     12  N   UNL     1       5.367   4.578  16.264  0.00  0.00    +0.000 N 
ATOM     13  H   UNL     1       5.893   4.080  16.982  0.00  0.00    +0.000 HD
BRANCH  12  14
ATOM     14  C   UNL     1       5.908   4.393  14.953  0.00  0.00    +0.000 A 
ATOM     15  C   UNL     1       5.257   3.601  14.006  0.00  0.00    +0.000 A 
ATOM     16  C   UNL     1       5.753   3.507  12.701  0.00  0.00    +0.000 A 
ATOM     17  C   UNL     1       6.910   4.207  12.336  0.00  0.00    +0.000 A 
ATOM     18  C   UNL     1       7.450   4.156  10.940  0.00  0.00    +0.000 C 
ATOM     19  C   UNL     1       7.558   4.974  13.308  0.00  0.00    +0.000 A 
ATOM     20  F   UNL     1       8.663   5.661  12.980  0.00  0.00    +0.000 F 
ATOM     21  C   UNL     1       7.073   5.067  14.610  0.00  0.00    +0.000 A 
ENDBRANCH  12  14
ENDBRANCH   9  12
ENDBRANCH   2   9
BRANCH   1  22
ATOM     22  C   UNL     1       4.459   3.753  19.076  0.00  0.00    +0.000 C 
ATOM     23  O   UNL     1       5.421   3.473  19.777  0.00  0.00    +0.000 OA
BRANCH  22  24
ATOM     24  O   UNL     1       3.877   2.894  18.191  0.00  0.00    +0.000 OA
BRANCH  24  26
ATOM     25  C   UNL     1       1.646   2.120  18.446  0.00  0.00    +0.000 C 
ATOM     26  C   UNL     1       3.104   1.830  18.754  0.00  0.00    +0.000 C 
ENDBRANCH  24  26
ENDBRANCH  22  24
ENDBRANCH   1  22
TORSDOF 6
ENDMDL
MODEL 6
REMARK VINA RESULT:      -6.5      2.913      6.545
REMARK  Name = 
REMARK  11 active torsions:
REMARK  status: ('A' for Active; 'I' for Inactive)
REMARK    1  A    between atoms: C_1  and  C_2
REMARK    2  A    between atoms: C_2  and  O_3
REMARK    3  A    between atoms: O_3  and  C_4
REMARK    4  A    between atoms: C_4  and  C_6
REMARK    5  A    between atoms: C_7  and  S_8
REMARK    6  A    between atoms: S_8  and  N_11
REMARK    7  A    between atoms: N_11  and  C_12
REMARK    8  A    between atoms: C_15  and  C_16
REMARK    9  A    between atoms: C_20  and  C_21
REMARK   10  A    between atoms: N_22  and  C_23
REMARK   11  A    between atoms: C_24  and  C_25
REMARK                            x       y       z     vdW  Elec       q    Type
REMARK                         _______ _______ _______ _____ _____    ______ ____
ROOT
ATOM      1  C   UNL     1       6.516   4.840  17.094  0.00  0.00    +0.000 A 
ATOM      2  C   UNL     1       5.267   4.336  17.587  0.00  0.00    +0.000 A 
ATOM      3  C   UNL     1       4.540   3.854  16.497  0.00  0.00    +0.000 A 
ATOM      4  C   UNL     1       3.184   3.233  16.415  0.00  0.00    +0.000 C 
ATOM      5  N   UNL     1       5.301   4.076  15.366  0.00  0.00    +0.000 N 
ATOM      6  C   UNL     1       4.919   3.745  14.005  0.00  0.00    +0.000 C 
ATOM      7  C   UNL     1       6.496   4.672  15.709  0.00  0.00    +0.000 A 
ATOM      8  C   UNL     1       7.546   5.034  14.706  0.00  0.00    +0.000 C 
ENDROOT
BRANCH   2   9
ATOM      9  S   UNL     1       4.747   4.389  19.250  0.00  0.00    +0.000 S 
ATOM     10  O   UNL     1       4.952   3.071  19.804  0.00  0.00    +0.000 OA
ATOM     11  O   UNL     1       5.466   5.506  19.830  0.00  0.00    +0.000 OA
BRANCH   9  12
ATOM     12  N   UNL     1       3.107   4.809  19.342  0.00  0.00    +0.000 N 
ATOM     13  H   UNL     1       2.600   4.177  18.721  0.00  0.00    +0.000 HD
BRANCH  12  14
ATOM     14  C   UNL     1       2.739   6.178  19.158  0.00  0.00    +0.000 A 
ATOM     15  C   UNL     1       2.969   6.834  17.948  0.00  0.00    +0.000 A 
ATOM     16  C   UNL     1       2.518   8.145  17.756  0.00  0.00    +0.000 A 
ATOM     17  C   UNL     1       1.834   8.810  18.780  0.00  0.00    +0.000 A 
ATOM     18  C   UNL     1       1.307  10.201  18.599  0.00  0.00    +0.000 C 
ATOM     19  C   UNL     1       1.636   8.142  19.992  0.00  0.00    +0.000 A 
ATOM     20  F   UNL     1       0.974   8.755  20.985  0.00  0.00    +0.000 F 
ATOM     21  C   UNL     1       2.087   6.839  20.191  0.00  0.00    +0.000 A 
ENDBRANCH  12  14
ENDBRANCH   9  12
ENDBRANCH   2   9
BRANCH   1  22
ATOM     22  C   UNL     1       7.609   5.452  17.847  0.00  0.00    +0.000 C 
ATOM     23  O   UNL     1       8.327   4.849  18.632  0.00  0.00    +0.000 OA
BRANCH  22  24
ATOM     24  O   UNL     1       7.714   6.785  17.577  0.00  0.00    +0.000 OA
BRANCH  24  26
ATOM     25  C   UNL     1       8.295   9.028  18.099  0.00  0.00    +0.000 C 
ATOM     26  C   UNL     1       8.268   7.600  18.613  0.00  0.00    +0.000 C 
ENDBRANCH  24  26
ENDBRANCH  22  24
ENDBRANCH   1  22
TORSDOF 6
ENDMDL
MODEL 7
REMARK VINA RESULT:      -6.5      2.420      6.433
REMARK  Name = 
REMARK  11 active torsions:
REMARK  status: ('A' for Active; 'I' for Inactive)
REMARK    1  A    between atoms: C_1  and  C_2
REMARK    2  A    between atoms: C_2  and  O_3
REMARK    3  A    between atoms: O_3  and  C_4
REMARK    4  A    between atoms: C_4  and  C_6
REMARK    5  A    between atoms: C_7  and  S_8
REMARK    6  A    between atoms: S_8  and  N_11
REMARK    7  A    between atoms: N_11  and  C_12
REMARK    8  A    between atoms: C_15  and  C_16
REMARK    9  A    between atoms: C_20  and  C_21
REMARK   10  A    between atoms: N_22  and  C_23
REMARK   11  A    between atoms: C_24  and  C_25
REMARK                            x       y       z     vdW  Elec       q    Type
REMARK                         _______ _______ _______ _____ _____    ______ ____
ROOT
ATOM      1  C   UNL     1       6.495   4.754  17.107  0.00  0.00    +0.000 A 
ATOM      2  C   UNL     1       5.220   4.299  17.579  0.00  0.00    +0.000 A 
ATOM      3  C   UNL     1       4.473   3.896  16.471  0.00  0.00    +0.000 A 
ATOM      4  C   UNL     1       3.086   3.352  16.364  0.00  0.00    +0.000 C 
ATOM      5  N   UNL     1       5.248   4.120  15.350  0.00  0.00    +0.000 N 
ATOM      6  C   UNL     1       4.854   3.860  13.977  0.00  0.00    +0.000 C 
ATOM      7  C   UNL     1       6.472   4.638  15.716  0.00  0.00    +0.000 A 
ATOM      8  C   UNL     1       7.543   4.982  14.729  0.00  0.00    +0.000 C 
ENDROOT
BRANCH   2   9
ATOM      9  S   UNL     1       4.698   4.318  19.242  0.00  0.00    +0.000 S 
ATOM     10  O   UNL     1       5.088   3.056  19.827  0.00  0.00    +0.000 OA
ATOM     11  O   UNL     1       5.251   5.539  19.793  0.00  0.00    +0.000 OA
BRANCH   9  12
ATOM     12  N   UNL     1       3.015   4.502  19.329  0.00  0.00    +0.000 N 
ATOM     13  H   UNL     1       2.612   3.943  18.576  0.00  0.00    +0.000 HD
BRANCH  12  14
ATOM     14  C   UNL     1       2.472   5.823  19.389  0.00  0.00    +0.000 A 
ATOM     15  C   UNL     1       1.921   6.326  20.569  0.00  0.00    +0.000 A 
ATOM     16  C   UNL     1       1.479   7.653  20.634  0.00  0.00    +0.000 A 
ATOM     17  C   UNL     1       1.586   8.485  19.513  0.00  0.00    +0.000 A 
ATOM     18  C   UNL     1       1.155   9.920  19.557  0.00  0.00    +0.000 C 
ATOM     19  C   UNL     1       2.120   7.952  18.336  0.00  0.00    +0.000 A 
ATOM     20  F   UNL     1       2.242   8.733  17.252  0.00  0.00    +0.000 F 
ATOM     21  C   UNL     1       2.555   6.631  18.263  0.00  0.00    +0.000 A 
ENDBRANCH  12  14
ENDBRANCH   9  12
ENDBRANCH   2   9
BRANCH   1  22
ATOM     22  C   UNL     1       7.616   5.279  17.884  0.00  0.00    +0.000 C 
ATOM     23  O   UNL     1       8.123   4.704  18.837  0.00  0.00    +0.000 OA
BRANCH  22  24
ATOM     24  O   UNL     1       8.014   6.499  17.422  0.00  0.00    +0.000 OA
BRANCH  24  26
ATOM     25  C   UNL     1       7.992   8.842  17.811  0.00  0.00    +0.000 C 
ATOM     26  C   UNL     1       7.135   7.596  17.689  0.00  0.00    +0.000 C 
ENDBRANCH  24  26
ENDBRANCH  22  24
ENDBRANCH   1  22
TORSDOF 6
ENDMDL
MODEL 8
REMARK VINA RESULT:      -6.3      3.764      7.252
REMARK  Name = 
REMARK  11 active torsions:
REMARK  status: ('A' for Active; 'I' for Inactive)
REMARK    1  A    between atoms: C_1  and  C_2
REMARK    2  A    between atoms: C_2  and  O_3
REMARK    3  A    between atoms: O_3  and  C_4
REMARK    4  A    between atoms: C_4  and  C_6
REMARK    5  A    between atoms: C_7  and  S_8
REMARK    6  A    between atoms: S_8  and  N_11
REMARK    7  A    between atoms: N_11  and  C_12
REMARK    8  A    between atoms: C_15  and  C_16
REMARK    9  A    between atoms: C_20  and  C_21
REMARK   10  A    between atoms: N_22  and  C_23
REMARK   11  A    between atoms: C_24  and  C_25
REMARK                            x       y       z     vdW  Elec       q    Type
REMARK                         _______ _______ _______ _____ _____    ______ ____
ROOT
ATOM      1  C   UNL     1       2.823   4.625  18.118  0.00  0.00    +0.000 A 
ATOM      2  C   UNL     1       3.301   5.955  17.876  0.00  0.00    +0.000 A 
ATOM      3  C   UNL     1       4.554   5.855  17.268  0.00  0.00    +0.000 A 
ATOM      4  C   UNL     1       5.510   6.904  16.807  0.00  0.00    +0.000 C 
ATOM      5  N   UNL     1       4.852   4.510  17.163  0.00  0.00    +0.000 N 
ATOM      6  C   UNL     1       6.071   3.950  16.606  0.00  0.00    +0.000 C 
ATOM      7  C   UNL     1       3.818   3.754  17.673  0.00  0.00    +0.000 A 
ATOM      8  C   UNL     1       3.834   2.257  17.696  0.00  0.00    +0.000 C 
ENDROOT
BRANCH   2   9
ATOM      9  S   UNL     1       2.472   7.420  18.330  0.00  0.00    +0.000 S 
ATOM     10  O   UNL     1       3.284   8.527  17.881  0.00  0.00    +0.000 OA
ATOM     11  O   UNL     1       1.135   7.275  17.790  0.00  0.00    +0.000 OA
BRANCH   9  12
ATOM     12  N   UNL     1       2.277   7.489  20.013  0.00  0.00    +0.000 N 
ATOM     13  H   UNL     1       2.113   6.535  20.336  0.00  0.00    +0.000 HD
BRANCH  12  14
ATOM     14  C   UNL     1       1.345   8.426  20.557  0.00  0.00    +0.000 A 
ATOM     15  C   UNL     1       0.499   8.077  21.611  0.00  0.00    +0.000 A 
ATOM     16  C   UNL     1      -0.341   9.035  22.191  0.00  0.00    +0.000 A 
ATOM     17  C   UNL     1      -0.340  10.351  21.715  0.00  0.00    +0.000 A 
ATOM     18  C   UNL     1      -1.201  11.410  22.333  0.00  0.00    +0.000 C 
ATOM     19  C   UNL     1       0.498  10.671  20.643  0.00  0.00    +0.000 A 
ATOM     20  F   UNL     1       0.523  11.929  20.176  0.00  0.00    +0.000 F 
ATOM     21  C   UNL     1       1.332   9.721  20.058  0.00  0.00    +0.000 A 
ENDBRANCH  12  14
ENDBRANCH   9  12
ENDBRANCH   2   9
BRANCH   1  22
ATOM     22  C   UNL     1       1.566   4.211  18.740  0.00  0.00    +0.000 C 
ATOM     23  O   UNL     1       0.694   3.571  18.171  0.00  0.00    +0.000 OA
BRANCH  22  24
ATOM     24  O   UNL     1       1.484   4.644  20.031  0.00  0.00    +0.000 OA
BRANCH  24  26
ATOM     25  C   UNL     1       1.482   2.754  21.470  0.00  0.00    +0.000 C 
ATOM     26  C   UNL     1       2.288   3.946  20.987  0.00  0.00    +0.000 C 
ENDBRANCH  24  26
ENDBRANCH  22  24
ENDBRANCH   1  22
TORSDOF 6
ENDMDL
MODEL 9
REMARK VINA RESULT:      -6.3      1.016      1.724
REMARK  Name = 
REMARK  11 active torsions:
REMARK  status: ('A' for Active; 'I' for Inactive)
REMARK    1  A    between atoms: C_1  and  C_2
REMARK    2  A    between atoms: C_2  and  O_3
REMARK    3  A    between atoms: O_3  and  C_4
REMARK    4  A    between atoms: C_4  and  C_6
REMARK    5  A    between atoms: C_7  and  S_8
REMARK    6  A    between atoms: S_8  and  N_11
REMARK    7  A    between atoms: N_11  and  C_12
REMARK    8  A    between atoms: C_15  and  C_16
REMARK    9  A    between atoms: C_20  and  C_21
REMARK   10  A    between atoms: N_22  and  C_23
REMARK   11  A    between atoms: C_24  and  C_25
REMARK                            x       y       z     vdW  Elec       q    Type
REMARK                         _______ _______ _______ _____ _____    ______ ____
ROOT
ATOM      1  C   UNL     1       3.687   3.353  19.723  0.00  0.00    +0.000 A 
ATOM      2  C   UNL     1       4.107   4.591  19.134  0.00  0.00    +0.000 A 
ATOM      3  C   UNL     1       3.182   5.572  19.496  0.00  0.00    +0.000 A 
ATOM      4  C   UNL     1       3.110   7.027  19.166  0.00  0.00    +0.000 C 
ATOM      5  N   UNL     1       2.209   4.957  20.259  0.00  0.00    +0.000 N 
ATOM      6  C   UNL     1       1.041   5.603  20.832  0.00  0.00    +0.000 C 
ATOM      7  C   UNL     1       2.498   3.617  20.404  0.00  0.00    +0.000 A 
ATOM      8  C   UNL     1       1.637   2.674  21.186  0.00  0.00    +0.000 C 
ENDROOT
BRANCH   2   9
ATOM      9  S   UNL     1       5.496   4.794  18.100  0.00  0.00    +0.000 S 
ATOM     10  O   UNL     1       5.395   6.104  17.501  0.00  0.00    +0.000 OA
ATOM     11  O   UNL     1       6.636   4.503  18.946  0.00  0.00    +0.000 OA
BRANCH   9  12
ATOM     12  N   UNL     1       5.510   3.603  16.893  0.00  0.00    +0.000 N 
ATOM     13  H   UNL     1       6.005   2.795  17.274  0.00  0.00    +0.000 HD
BRANCH  12  14
ATOM     14  C   UNL     1       5.959   3.960  15.584  0.00  0.00    +0.000 A 
ATOM     15  C   UNL     1       7.138   4.683  15.394  0.00  0.00    +0.000 A 
ATOM     16  C   UNL     1       7.609   4.943  14.102  0.00  0.00    +0.000 A 
ATOM     17  C   UNL     1       6.897   4.481  12.988  0.00  0.00    +0.000 A 
ATOM     18  C   UNL     1       7.389   4.711  11.592  0.00  0.00    +0.000 C 
ATOM     19  C   UNL     1       5.706   3.780  13.203  0.00  0.00    +0.000 A 
ATOM     20  F   UNL     1       5.013   3.318  12.151  0.00  0.00    +0.000 F 
ATOM     21  C   UNL     1       5.230   3.523  14.486  0.00  0.00    +0.000 A 
ENDBRANCH  12  14
ENDBRANCH   9  12
ENDBRANCH   2   9
BRANCH   1  22
ATOM     22  C   UNL     1       4.323   2.040  19.626  0.00  0.00    +0.000 C 
ATOM     23  O   UNL     1       4.051   1.204  18.776  0.00  0.00    +0.000 OA
BRANCH  22  24
ATOM     24  O   UNL     1       5.245   1.859  20.615  0.00  0.00    +0.000 OA
BRANCH  24  26
ATOM     25  C   UNL     1       6.174   0.240  22.082  0.00  0.00    +0.000 C 
ATOM     26  C   UNL     1       4.896   0.931  21.646  0.00  0.00    +0.000 C 
ENDBRANCH  24  26
ENDBRANCH  22  24
ENDBRANCH   1  22
TORSDOF 6
ENDMDL
