MODEL 1
REMARK VINA RESULT:      -7.1      0.000      0.000
REMARK  Name = 
REMARK  3 active torsions:
REMARK  status: ('A' for Active; 'I' for Inactive)
REMARK    1  A    between atoms: N_6  and  C_7
REMARK    2  A    between atoms: C_15  and  C_16
REMARK    3  A    between atoms: N_21  and  C_22
REMARK                            x       y       z     vdW  Elec       q    Type
REMARK                         _______ _______ _______ _____ _____    ______ ____
ROOT
ATOM      1  O   UNL     1       2.633  10.706  17.161  0.00  0.00    +0.000 OA
ATOM      2  C   UNL     1       2.186  10.010  18.067  0.00  0.00    +0.000 A 
ATOM      3  C   UNL     1       2.463   8.607  18.123  0.00  0.00    +0.000 A 
ATOM      4  C   UNL     1       3.256   7.745  17.363  0.00  0.00    +0.000 A 
ATOM      5  N   UNL     1       3.225   6.494  17.831  0.00  0.00    +0.000 NA
ATOM      6  N   UNL     1       2.374   6.538  18.907  0.00  0.00    +0.000 N 
ATOM      7  C   UNL     1       1.933   7.844  19.124  0.00  0.00    +0.000 A 
ATOM      8  N   UNL     1       1.149   8.292  20.129  0.00  0.00    +0.000 NA
ATOM      9  C   UNL     1       0.896   9.575  20.140  0.00  0.00    +0.000 A 
ATOM     10  N   UNL     1       1.400  10.466  19.150  0.00  0.00    +0.000 N 
ENDROOT
BRANCH  10  11
ATOM     11  C   UNL     1       1.173  11.872  19.215  0.00  0.00    +0.000 A 
ATOM     12  C   UNL     1       2.076  12.685  19.919  0.00  0.00    +0.000 A 
ATOM     13  C   UNL     1       1.963  14.075  19.861  0.00  0.00    +0.000 A 
ATOM     14  C   UNL     1       0.929  14.653  19.126  0.00  0.00    +0.000 A 
ATOM     15 BR   UNL     1       0.814  16.535  18.996  0.00  0.00    +0.000 Br
ATOM     16  C   UNL     1      -0.007  13.856  18.470  0.00  0.00    +0.000 A 
ATOM     17  C   UNL     1       0.108  12.466  18.520  0.00  0.00    +0.000 A 
ENDBRANCH  10  11
BRANCH   6  18
ATOM     18  C   UNL     1       2.064   5.343  19.625  0.00  0.00    +0.000 A 
ATOM     19  C   UNL     1       1.328   4.329  18.991  0.00  0.00    +0.000 A 
ATOM     20  C   UNL     1       1.032   3.141  19.663  0.00  0.00    +0.000 A 
ATOM     21  C   UNL     1       1.455   2.959  20.979  0.00  0.00    +0.000 A 
ATOM     22  C   UNL     1       2.168   3.967  21.624  0.00  0.00    +0.000 A 
ATOM     23  C   UNL     1       2.475   5.153  20.951  0.00  0.00    +0.000 A 
ENDBRANCH   6  18
BRANCH   9  24
ATOM     24  C   UNL     1       0.013  10.046  21.221  0.00  0.00    +0.000 A 
ATOM     25  C   UNL     1      -1.002  10.991  21.225  0.00  0.00    +0.000 A 
ATOM     26  C   UNL     1      -1.524  11.245  22.527  0.00  0.00    +0.000 A 
ATOM     27  C   UNL     1      -0.995  10.392  23.465  0.00  0.00    +0.000 A 
ATOM     28  S   UNL     1       0.167   9.341  22.789  0.00  0.00    +0.000 S 
ENDBRANCH   9  24
TORSDOF 3
ENDMDL
MODEL 2
REMARK VINA RESULT:      -6.6      1.388      1.594
REMARK  Name = 
REMARK  3 active torsions:
REMARK  status: ('A' for Active; 'I' for Inactive)
REMARK    1  A    between atoms: N_6  and  C_7
REMARK    2  A    between atoms: C_15  and  C_16
REMARK    3  A    between atoms: N_21  and  C_22
REMARK                            x       y       z     vdW  Elec       q    Type
REMARK                         _______ _______ _______ _____ _____    ______ ____
ROOT
ATOM      1  O   UNL     1       2.332   9.846  17.006  0.00  0.00    +0.000 OA
ATOM      2  C   UNL     1       2.201   9.110  17.979  0.00  0.00    +0.000 A 
ATOM      3  C   UNL     1       2.772   7.796  17.991  0.00  0.00    +0.000 A 
ATOM      4  C   UNL     1       3.586   7.086  17.107  0.00  0.00    +0.000 A 
ATOM      5  N   UNL     1       3.899   5.876  17.578  0.00  0.00    +0.000 NA
ATOM      6  N   UNL     1       3.253   5.787  18.786  0.00  0.00    +0.000 N 
ATOM      7  C   UNL     1       2.592   6.982  19.072  0.00  0.00    +0.000 A 
ATOM      8  N   UNL     1       1.914   7.299  20.197  0.00  0.00    +0.000 NA
ATOM      9  C   UNL     1       1.403   8.502  20.247  0.00  0.00    +0.000 A 
ATOM     10  N   UNL     1       1.533   9.437  19.181  0.00  0.00    +0.000 N 
ENDROOT
BRANCH  10  11
ATOM     11  C   UNL     1       1.031  10.768  19.280  0.00  0.00    +0.000 A 
ATOM     12  C   UNL     1       1.830  11.766  19.860  0.00  0.00    +0.000 A 
ATOM     13  C   UNL     1       1.426  13.101  19.821  0.00  0.00    +0.000 A 
ATOM     14  C   UNL     1       0.208  13.437  19.231  0.00  0.00    +0.000 A 
ATOM     15 BR   UNL     1      -0.310  15.251  19.124  0.00  0.00    +0.000 Br
ATOM     16  C   UNL     1      -0.621  12.448  18.703  0.00  0.00    +0.000 A 
ATOM     17  C   UNL     1      -0.215  11.113  18.734  0.00  0.00    +0.000 A 
ENDBRANCH  10  11
BRANCH   6  18
ATOM     18  C   UNL     1       3.328   4.584  19.552  0.00  0.00    +0.000 A 
ATOM     19  C   UNL     1       2.395   4.361  20.578  0.00  0.00    +0.000 A 
ATOM     20  C   UNL     1       2.432   3.181  21.326  0.00  0.00    +0.000 A 
ATOM     21  C   UNL     1       3.407   2.220  21.066  0.00  0.00    +0.000 A 
ATOM     22  C   UNL     1       4.350   2.440  20.064  0.00  0.00    +0.000 A 
ATOM     23  C   UNL     1       4.310   3.615  19.307  0.00  0.00    +0.000 A 
ENDBRANCH   6  18
BRANCH   9  24
ATOM     24  C   UNL     1       0.639   8.825  21.464  0.00  0.00    +0.000 A 
ATOM     25  C   UNL     1      -0.720   8.761  21.734  0.00  0.00    +0.000 A 
ATOM     26  C   UNL     1      -1.063   9.295  23.009  0.00  0.00    +0.000 A 
ATOM     27  C   UNL     1       0.052   9.627  23.741  0.00  0.00    +0.000 A 
ATOM     28  S   UNL     1       1.493   9.355  22.868  0.00  0.00    +0.000 S 
ENDBRANCH   9  24
TORSDOF 3
ENDMDL
MODEL 3
REMARK VINA RESULT:      -6.6      5.985      7.732
REMARK  Name = 
REMARK  3 active torsions:
REMARK  status: ('A' for Active; 'I' for Inactive)
REMARK    1  A    between atoms: N_6  and  C_7
REMARK    2  A    between atoms: C_15  and  C_16
REMARK    3  A    between atoms: N_21  and  C_22
REMARK                            x       y       z     vdW  Elec       q    Type
REMARK                         _______ _______ _______ _____ _____    ______ ____
ROOT
ATOM      1  O   UNL     1      -5.258  13.861  22.974  0.00  0.00    +0.000 OA
ATOM      2  C   UNL     1      -4.422  13.637  22.105  0.00  0.00    +0.000 A 
ATOM      3  C   UNL     1      -4.742  12.834  20.963  0.00  0.00    +0.000 A 
ATOM      4  C   UNL     1      -5.914  12.230  20.502  0.00  0.00    +0.000 A 
ATOM      5  N   UNL     1      -5.726  11.599  19.339  0.00  0.00    +0.000 NA
ATOM      6  N   UNL     1      -4.396  11.776  19.049  0.00  0.00    +0.000 N 
ATOM      7  C   UNL     1      -3.790  12.574  20.020  0.00  0.00    +0.000 A 
ATOM      8  N   UNL     1      -2.516  13.025  20.037  0.00  0.00    +0.000 NA
ATOM      9  C   UNL     1      -2.185  13.791  21.044  0.00  0.00    +0.000 A 
ATOM     10  N   UNL     1      -3.098  14.134  22.081  0.00  0.00    +0.000 N 
ENDROOT
BRANCH  10  11
ATOM     11  C   UNL     1      -2.743  15.027  23.135  0.00  0.00    +0.000 A 
ATOM     12  C   UNL     1      -2.209  14.511  24.326  0.00  0.00    +0.000 A 
ATOM     13  C   UNL     1      -1.708  15.373  25.302  0.00  0.00    +0.000 A 
ATOM     14  C   UNL     1      -1.768  16.751  25.104  0.00  0.00    +0.000 A 
ATOM     15 BR   UNL     1      -1.032  17.916  26.398  0.00  0.00    +0.000 Br
ATOM     16  C   UNL     1      -2.348  17.277  23.950  0.00  0.00    +0.000 A 
ATOM     17  C   UNL     1      -2.844  16.417  22.969  0.00  0.00    +0.000 A 
ENDBRANCH  10  11
BRANCH   6  18
ATOM     18  C   UNL     1      -3.831  11.176  17.883  0.00  0.00    +0.000 A 
ATOM     19  C   UNL     1      -4.447  11.377  16.637  0.00  0.00    +0.000 A 
ATOM     20  C   UNL     1      -3.901  10.821  15.478  0.00  0.00    +0.000 A 
ATOM     21  C   UNL     1      -2.744  10.047  15.553  0.00  0.00    +0.000 A 
ATOM     22  C   UNL     1      -2.136   9.825  16.786  0.00  0.00    +0.000 A 
ATOM     23  C   UNL     1      -2.674  10.388  17.948  0.00  0.00    +0.000 A 
ENDBRANCH   6  18
BRANCH   9  24
ATOM     24  C   UNL     1      -0.786  14.250  21.069  0.00  0.00    +0.000 A 
ATOM     25  C   UNL     1       0.324  13.763  21.743  0.00  0.00    +0.000 A 
ATOM     26  C   UNL     1       1.476  14.588  21.594  0.00  0.00    +0.000 A 
ATOM     27  C   UNL     1       1.260  15.609  20.701  0.00  0.00    +0.000 A 
ATOM     28  S   UNL     1      -0.337  15.606  20.100  0.00  0.00    +0.000 S 
ENDBRANCH   9  24
TORSDOF 3
ENDMDL
MODEL 4
REMARK VINA RESULT:      -6.5      5.880      7.618
REMARK  Name = 
REMARK  3 active torsions:
REMARK  status: ('A' for Active; 'I' for Inactive)
REMARK    1  A    between atoms: N_6  and  C_7
REMARK    2  A    between atoms: C_15  and  C_16
REMARK    3  A    between atoms: N_21  and  C_22
REMARK                            x       y       z     vdW  Elec       q    Type
REMARK                         _______ _______ _______ _____ _____    ______ ____
ROOT
ATOM      1  O   UNL     1      -4.665  14.091  22.977  0.00  0.00    +0.000 OA
ATOM      2  C   UNL     1      -3.892  13.797  22.070  0.00  0.00    +0.000 A 
ATOM      3  C   UNL     1      -4.323  12.993  20.966  0.00  0.00    +0.000 A 
ATOM      4  C   UNL     1      -5.552  12.452  20.583  0.00  0.00    +0.000 A 
ATOM      5  N   UNL     1      -5.466  11.787  19.428  0.00  0.00    +0.000 NA
ATOM      6  N   UNL     1      -4.146  11.875  19.063  0.00  0.00    +0.000 N 
ATOM      7  C   UNL     1      -3.440  12.655  19.981  0.00  0.00    +0.000 A 
ATOM      8  N   UNL     1      -2.143  13.027  19.918  0.00  0.00    +0.000 NA
ATOM      9  C   UNL     1      -1.712  13.792  20.888  0.00  0.00    +0.000 A 
ATOM     10  N   UNL     1      -2.545  14.212  21.964  0.00  0.00    +0.000 N 
ENDROOT
BRANCH  10  11
ATOM     11  C   UNL     1      -2.079  15.103  22.975  0.00  0.00    +0.000 A 
ATOM     12  C   UNL     1      -2.219  16.488  22.792  0.00  0.00    +0.000 A 
ATOM     13  C   UNL     1      -1.919  17.368  23.833  0.00  0.00    +0.000 A 
ATOM     14  C   UNL     1      -1.449  16.868  25.046  0.00  0.00    +0.000 A 
ATOM     15 BR   UNL     1      -1.102  18.055  26.475  0.00  0.00    +0.000 Br
ATOM     16  C   UNL     1      -1.251  15.499  25.221  0.00  0.00    +0.000 A 
ATOM     17  C   UNL     1      -1.558  14.616  24.184  0.00  0.00    +0.000 A 
ENDBRANCH  10  11
BRANCH   6  18
ATOM     18  C   UNL     1      -3.683  11.218  17.883  0.00  0.00    +0.000 A 
ATOM     19  C   UNL     1      -4.342  11.445  16.664  0.00  0.00    +0.000 A 
ATOM     20  C   UNL     1      -3.894  10.832  15.491  0.00  0.00    +0.000 A 
ATOM     21  C   UNL     1      -2.794   9.978  15.526  0.00  0.00    +0.000 A 
ATOM     22  C   UNL     1      -2.145   9.730  16.733  0.00  0.00    +0.000 A 
ATOM     23  C   UNL     1      -2.584  10.349  17.908  0.00  0.00    +0.000 A 
ENDBRANCH   6  18
BRANCH   9  24
ATOM     24  C   UNL     1      -0.288  14.165  20.827  0.00  0.00    +0.000 A 
ATOM     25  C   UNL     1       0.830  13.600  21.422  0.00  0.00    +0.000 A 
ATOM     26  C   UNL     1       2.019  14.356  21.208  0.00  0.00    +0.000 A 
ATOM     27  C   UNL     1       1.810  15.403  20.343  0.00  0.00    +0.000 A 
ATOM     28  S   UNL     1       0.181  15.507  19.847  0.00  0.00    +0.000 S 
ENDBRANCH   9  24
TORSDOF 3
ENDMDL
MODEL 5
REMARK VINA RESULT:      -6.4      5.799      7.592
REMARK  Name = 
REMARK  3 active torsions:
REMARK  status: ('A' for Active; 'I' for Inactive)
REMARK    1  A    between atoms: N_6  and  C_7
REMARK    2  A    between atoms: C_15  and  C_16
REMARK    3  A    between atoms: N_21  and  C_22
REMARK                            x       y       z     vdW  Elec       q    Type
REMARK                         _______ _______ _______ _____ _____    ______ ____
ROOT
ATOM      1  O   UNL     1      -4.684  14.021  22.913  0.00  0.00    +0.000 OA
ATOM      2  C   UNL     1      -3.926  13.756  21.986  0.00  0.00    +0.000 A 
ATOM      3  C   UNL     1      -4.357  12.938  20.892  0.00  0.00    +0.000 A 
ATOM      4  C   UNL     1      -5.576  12.357  20.539  0.00  0.00    +0.000 A 
ATOM      5  N   UNL     1      -5.498  11.696  19.381  0.00  0.00    +0.000 NA
ATOM      6  N   UNL     1      -4.191  11.830  18.982  0.00  0.00    +0.000 N 
ATOM      7  C   UNL     1      -3.489  12.632  19.883  0.00  0.00    +0.000 A 
ATOM      8  N   UNL     1      -2.207  13.049  19.788  0.00  0.00    +0.000 NA
ATOM      9  C   UNL     1      -1.778  13.827  20.748  0.00  0.00    +0.000 A 
ATOM     10  N   UNL     1      -2.596  14.217  21.846  0.00  0.00    +0.000 N 
ENDROOT
BRANCH  10  11
ATOM     11  C   UNL     1      -2.136  15.122  22.847  0.00  0.00    +0.000 A 
ATOM     12  C   UNL     1      -2.385  16.496  22.702  0.00  0.00    +0.000 A 
ATOM     13  C   UNL     1      -2.087  17.378  23.742  0.00  0.00    +0.000 A 
ATOM     14  C   UNL     1      -1.509  16.892  24.914  0.00  0.00    +0.000 A 
ATOM     15 BR   UNL     1      -1.164  18.077  26.345  0.00  0.00    +0.000 Br
ATOM     16  C   UNL     1      -1.205  15.539  25.048  0.00  0.00    +0.000 A 
ATOM     17  C   UNL     1      -1.509  14.654  24.012  0.00  0.00    +0.000 A 
ENDBRANCH  10  11
BRANCH   6  18
ATOM     18  C   UNL     1      -3.736  11.191  17.790  0.00  0.00    +0.000 A 
ATOM     19  C   UNL     1      -2.639  10.316  17.851  0.00  0.00    +0.000 A 
ATOM     20  C   UNL     1      -2.190   9.660  16.703  0.00  0.00    +0.000 A 
ATOM     21  C   UNL     1      -2.821   9.881  15.480  0.00  0.00    +0.000 A 
ATOM     22  C   UNL     1      -3.898  10.762  15.404  0.00  0.00    +0.000 A 
ATOM     23  C   UNL     1      -4.357  11.413  16.553  0.00  0.00    +0.000 A 
ENDBRANCH   6  18
BRANCH   9  24
ATOM     24  C   UNL     1      -0.370  14.248  20.651  0.00  0.00    +0.000 A 
ATOM     25  C   UNL     1       0.200  15.448  20.254  0.00  0.00    +0.000 A 
ATOM     26  C   UNL     1       1.622  15.395  20.179  0.00  0.00    +0.000 A 
ATOM     27  C   UNL     1       2.114  14.203  20.651  0.00  0.00    +0.000 A 
ATOM     28  S   UNL     1       0.866  13.137  21.119  0.00  0.00    +0.000 S 
ENDBRANCH   9  24
TORSDOF 3
ENDMDL
MODEL 6
REMARK VINA RESULT:      -6.3      4.562      6.807
REMARK  Name = 
REMARK  3 active torsions:
REMARK  status: ('A' for Active; 'I' for Inactive)
REMARK    1  A    between atoms: N_6  and  C_7
REMARK    2  A    between atoms: C_15  and  C_16
REMARK    3  A    between atoms: N_21  and  C_22
REMARK                            x       y       z     vdW  Elec       q    Type
REMARK                         _______ _______ _______ _____ _____    ______ ____
ROOT
ATOM      1  O   UNL     1       3.606  15.325  17.739  0.00  0.00    +0.000 OA
ATOM      2  C   UNL     1       3.453  14.765  18.819  0.00  0.00    +0.000 A 
ATOM      3  C   UNL     1       2.344  13.887  19.045  0.00  0.00    +0.000 A 
ATOM      4  C   UNL     1       1.313  13.402  18.237  0.00  0.00    +0.000 A 
ATOM      5  N   UNL     1       0.515  12.560  18.899  0.00  0.00    +0.000 NA
ATOM      6  N   UNL     1       1.023  12.514  20.173  0.00  0.00    +0.000 N 
ATOM      7  C   UNL     1       2.178  13.294  20.263  0.00  0.00    +0.000 A 
ATOM      8  N   UNL     1       2.994  13.436  21.330  0.00  0.00    +0.000 NA
ATOM      9  C   UNL     1       4.041  14.201  21.162  0.00  0.00    +0.000 A 
ATOM     10  N   UNL     1       4.318  14.865  19.933  0.00  0.00    +0.000 N 
ENDROOT
BRANCH  10  11
ATOM     11  C   UNL     1       5.501  15.639  19.744  0.00  0.00    +0.000 A 
ATOM     12  C   UNL     1       6.645  15.029  19.205  0.00  0.00    +0.000 A 
ATOM     13  C   UNL     1       7.757  15.801  18.863  0.00  0.00    +0.000 A 
ATOM     14  C   UNL     1       7.738  17.177  19.088  0.00  0.00    +0.000 A 
ATOM     15 BR   UNL     1       9.219  18.229  18.567  0.00  0.00    +0.000 Br
ATOM     16  C   UNL     1       6.630  17.785  19.675  0.00  0.00    +0.000 A 
ATOM     17  C   UNL     1       5.514  17.017  20.012  0.00  0.00    +0.000 A 
ENDBRANCH  10  11
BRANCH   6  18
ATOM     18  C   UNL     1       0.371  11.738  21.178  0.00  0.00    +0.000 A 
ATOM     19  C   UNL     1       0.708  10.383  21.329  0.00  0.00    +0.000 A 
ATOM     20  C   UNL     1       0.101   9.607  22.320  0.00  0.00    +0.000 A 
ATOM     21  C   UNL     1      -0.858  10.172  23.159  0.00  0.00    +0.000 A 
ATOM     22  C   UNL     1      -1.214  11.510  23.005  0.00  0.00    +0.000 A 
ATOM     23  C   UNL     1      -0.602  12.292  22.020  0.00  0.00    +0.000 A 
ENDBRANCH   6  18
BRANCH   9  24
ATOM     24  C   UNL     1       4.906  14.375  22.342  0.00  0.00    +0.000 A 
ATOM     25  C   UNL     1       6.031  13.681  22.760  0.00  0.00    +0.000 A 
ATOM     26  C   UNL     1       6.496  14.092  24.043  0.00  0.00    +0.000 A 
ATOM     27  C   UNL     1       5.803  15.179  24.514  0.00  0.00    +0.000 A 
ATOM     28  S   UNL     1       4.561  15.657  23.445  0.00  0.00    +0.000 S 
ENDBRANCH   9  24
TORSDOF 3
ENDMDL
MODEL 7
REMARK VINA RESULT:      -6.3      3.898      8.568
REMARK  Name = 
REMARK  3 active torsions:
REMARK  status: ('A' for Active; 'I' for Inactive)
REMARK    1  A    between atoms: N_6  and  C_7
REMARK    2  A    between atoms: C_15  and  C_16
REMARK    3  A    between atoms: N_21  and  C_22
REMARK                            x       y       z     vdW  Elec       q    Type
REMARK                         _______ _______ _______ _____ _____    ______ ____
ROOT
ATOM      1  O   UNL     1       2.590  12.378  20.787  0.00  0.00    +0.000 OA
ATOM      2  C   UNL     1       1.559  12.754  20.238  0.00  0.00    +0.000 A 
ATOM      3  C   UNL     1       1.220  14.145  20.181  0.00  0.00    +0.000 A 
ATOM      4  C   UNL     1       1.868  15.317  20.576  0.00  0.00    +0.000 A 
ATOM      5  N   UNL     1       1.156  16.407  20.276  0.00  0.00    +0.000 NA
ATOM      6  N   UNL     1       0.008  15.932  19.694  0.00  0.00    +0.000 N 
ATOM      7  C   UNL     1       0.056  14.541  19.589  0.00  0.00    +0.000 A 
ATOM      8  N   UNL     1      -0.853  13.728  19.006  0.00  0.00    +0.000 NA
ATOM      9  C   UNL     1      -0.570  12.451  19.003  0.00  0.00    +0.000 A 
ATOM     10  N   UNL     1       0.618  11.925  19.586  0.00  0.00    +0.000 N 
ENDROOT
BRANCH  10  11
ATOM     11  C   UNL     1       0.945  10.539  19.512  0.00  0.00    +0.000 A 
ATOM     12  C   UNL     1       1.624  10.050  18.385  0.00  0.00    +0.000 A 
ATOM     13  C   UNL     1       2.094   8.735  18.364  0.00  0.00    +0.000 A 
ATOM     14  C   UNL     1       1.859   7.901  19.455  0.00  0.00    +0.000 A 
ATOM     15 BR   UNL     1       2.549   6.142  19.452  0.00  0.00    +0.000 Br
ATOM     16  C   UNL     1       1.136   8.358  20.556  0.00  0.00    +0.000 A 
ATOM     17  C   UNL     1       0.672   9.674  20.583  0.00  0.00    +0.000 A 
ENDBRANCH  10  11
BRANCH   6  18
ATOM     18  C   UNL     1      -1.019  16.839  19.292  0.00  0.00    +0.000 A 
ATOM     19  C   UNL     1      -2.226  16.877  20.011  0.00  0.00    +0.000 A 
ATOM     20  C   UNL     1      -3.237  17.772  19.653  0.00  0.00    +0.000 A 
ATOM     21  C   UNL     1      -3.060  18.626  18.566  0.00  0.00    +0.000 A 
ATOM     22  C   UNL     1      -1.876  18.583  17.833  0.00  0.00    +0.000 A 
ATOM     23  C   UNL     1      -0.857  17.695  18.195  0.00  0.00    +0.000 A 
ENDBRANCH   6  18
BRANCH   9  24
ATOM     24  C   UNL     1      -1.583  11.571  18.395  0.00  0.00    +0.000 A 
ATOM     25  C   UNL     1      -1.456  10.487  17.540  0.00  0.00    +0.000 A 
ATOM     26  C   UNL     1      -2.709   9.991  17.077  0.00  0.00    +0.000 A 
ATOM     27  C   UNL     1      -3.765  10.615  17.694  0.00  0.00    +0.000 A 
ATOM     28  S   UNL     1      -3.247  11.831  18.772  0.00  0.00    +0.000 S 
ENDBRANCH   9  24
TORSDOF 3
ENDMDL
MODEL 8
REMARK VINA RESULT:      -6.3      4.038      7.511
REMARK  Name = 
REMARK  3 active torsions:
REMARK  status: ('A' for Active; 'I' for Inactive)
REMARK    1  A    between atoms: N_6  and  C_7
REMARK    2  A    between atoms: C_15  and  C_16
REMARK    3  A    between atoms: N_21  and  C_22
REMARK                            x       y       z     vdW  Elec       q    Type
REMARK                         _______ _______ _______ _____ _____    ______ ____
ROOT
ATOM      1  O   UNL     1      -0.753  15.647  18.592  0.00  0.00    +0.000 OA
ATOM      2  C   UNL     1       0.236  14.939  18.746  0.00  0.00    +0.000 A 
ATOM      3  C   UNL     1       1.550  15.508  18.794  0.00  0.00    +0.000 A 
ATOM      4  C   UNL     1       2.040  16.815  18.776  0.00  0.00    +0.000 A 
ATOM      5  N   UNL     1       3.371  16.852  18.882  0.00  0.00    +0.000 NA
ATOM      6  N   UNL     1       3.758  15.536  18.947  0.00  0.00    +0.000 N 
ATOM      7  C   UNL     1       2.641  14.701  18.939  0.00  0.00    +0.000 A 
ATOM      8  N   UNL     1       2.618  13.355  19.065  0.00  0.00    +0.000 NA
ATOM      9  C   UNL     1       1.438  12.792  19.061  0.00  0.00    +0.000 A 
ATOM     10  N   UNL     1       0.232  13.536  18.922  0.00  0.00    +0.000 N 
ENDROOT
BRANCH  10  11
ATOM     11  C   UNL     1      -1.050  12.915  18.991  0.00  0.00    +0.000 A 
ATOM     12  C   UNL     1      -1.864  13.134  20.114  0.00  0.00    +0.000 A 
ATOM     13  C   UNL     1      -3.180  12.668  20.129  0.00  0.00    +0.000 A 
ATOM     14  C   UNL     1      -3.674  11.958  19.036  0.00  0.00    +0.000 A 
ATOM     15 BR   UNL     1      -5.474  11.383  19.032  0.00  0.00    +0.000 Br
ATOM     16  C   UNL     1      -2.858  11.685  17.939  0.00  0.00    +0.000 A 
ATOM     17  C   UNL     1      -1.543  12.155  17.919  0.00  0.00    +0.000 A 
ENDBRANCH  10  11
BRANCH   6  18
ATOM     18  C   UNL     1       5.144  15.200  19.013  0.00  0.00    +0.000 A 
ATOM     19  C   UNL     1       5.813  14.800  17.844  0.00  0.00    +0.000 A 
ATOM     20  C   UNL     1       7.174  14.488  17.877  0.00  0.00    +0.000 A 
ATOM     21  C   UNL     1       7.877  14.559  19.079  0.00  0.00    +0.000 A 
ATOM     22  C   UNL     1       7.220  14.935  20.248  0.00  0.00    +0.000 A 
ATOM     23  C   UNL     1       5.859  15.257  20.216  0.00  0.00    +0.000 A 
ENDBRANCH   6  18
BRANCH   9  24
ATOM     24  C   UNL     1       1.427  11.323  19.165  0.00  0.00    +0.000 A 
ATOM     25  C   UNL     1       1.749  10.339  18.243  0.00  0.00    +0.000 A 
ATOM     26  C   UNL     1       1.473   9.022  18.710  0.00  0.00    +0.000 A 
ATOM     27  C   UNL     1       1.077   9.019  20.026  0.00  0.00    +0.000 A 
ATOM     28  S   UNL     1       0.979  10.598  20.666  0.00  0.00    +0.000 S 
ENDBRANCH   9  24
TORSDOF 3
ENDMDL
MODEL 9
REMARK VINA RESULT:      -6.3      3.135      5.159
REMARK  Name = 
REMARK  3 active torsions:
REMARK  status: ('A' for Active; 'I' for Inactive)
REMARK    1  A    between atoms: N_6  and  C_7
REMARK    2  A    between atoms: C_15  and  C_16
REMARK    3  A    between atoms: N_21  and  C_22
REMARK                            x       y       z     vdW  Elec       q    Type
REMARK                         _______ _______ _______ _____ _____    ______ ____
ROOT
ATOM      1  O   UNL     1      -1.419  12.278  23.394  0.00  0.00    +0.000 OA
ATOM      2  C   UNL     1      -0.655  12.100  22.451  0.00  0.00    +0.000 A 
ATOM      3  C   UNL     1      -0.334  10.779  22.000  0.00  0.00    +0.000 A 
ATOM      4  C   UNL     1      -0.769   9.502  22.358  0.00  0.00    +0.000 A 
ATOM      5  N   UNL     1      -0.196   8.552  21.613  0.00  0.00    +0.000 NA
ATOM      6  N   UNL     1       0.650   9.225  20.767  0.00  0.00    +0.000 N 
ATOM      7  C   UNL     1       0.540  10.602  20.966  0.00  0.00    +0.000 A 
ATOM      8  N   UNL     1       1.155  11.585  20.273  0.00  0.00    +0.000 NA
ATOM      9  C   UNL     1       0.867  12.812  20.625  0.00  0.00    +0.000 A 
ATOM     10  N   UNL     1      -0.035  13.115  21.685  0.00  0.00    +0.000 N 
ENDROOT
BRANCH  10  11
ATOM     11  C   UNL     1      -0.393  14.456  22.011  0.00  0.00    +0.000 A 
ATOM     12  C   UNL     1      -1.567  15.006  21.474  0.00  0.00    +0.000 A 
ATOM     13  C   UNL     1      -2.019  16.255  21.905  0.00  0.00    +0.000 A 
ATOM     14  C   UNL     1      -1.280  16.968  22.848  0.00  0.00    +0.000 A 
ATOM     15 BR   UNL     1      -1.925  18.630  23.476  0.00  0.00    +0.000 Br
ATOM     16  C   UNL     1      -0.083  16.458  23.345  0.00  0.00    +0.000 A 
ATOM     17  C   UNL     1       0.367  15.206  22.922  0.00  0.00    +0.000 A 
ENDBRANCH  10  11
BRANCH   6  18
ATOM     18  C   UNL     1       1.475   8.502  19.854  0.00  0.00    +0.000 A 
ATOM     19  C   UNL     1       2.033   7.276  20.251  0.00  0.00    +0.000 A 
ATOM     20  C   UNL     1       2.825   6.538  19.369  0.00  0.00    +0.000 A 
ATOM     21  C   UNL     1       3.078   7.022  18.086  0.00  0.00    +0.000 A 
ATOM     22  C   UNL     1       2.546   8.246  17.688  0.00  0.00    +0.000 A 
ATOM     23  C   UNL     1       1.745   8.983  18.566  0.00  0.00    +0.000 A 
ENDBRANCH   6  18
BRANCH   9  24
ATOM     24  C   UNL     1       1.568  13.874  19.885  0.00  0.00    +0.000 A 
ATOM     25  C   UNL     1       1.160  14.675  18.830  0.00  0.00    +0.000 A 
ATOM     26  C   UNL     1       2.204  15.497  18.314  0.00  0.00    +0.000 A 
ATOM     27  C   UNL     1       3.346  15.407  19.072  0.00  0.00    +0.000 A 
ATOM     28  S   UNL     1       3.176  14.294  20.354  0.00  0.00    +0.000 S 
ENDBRANCH   9  24
TORSDOF 3
ENDMDL
