MODEL 1
REMARK VINA RESULT:      -7.9      0.000      0.000
REMARK  Name = 
REMARK  3 active torsions:
REMARK  status: ('A' for Active; 'I' for Inactive)
REMARK    1  A    between atoms: C_5  and  C_6
REMARK    2  A    between atoms: N_12  and  C_13
REMARK    3  A    between atoms: C_13  and  C_14
REMARK                            x       y       z     vdW  Elec       q    Type
REMARK                         _______ _______ _______ _____ _____    ______ ____
ROOT
ATOM      1  C   UNL     1       4.065   3.461  18.033  0.00  0.00    +0.000 A 
ATOM      2  C   UNL     1       3.658   2.134  18.189  0.00  0.00    +0.000 A 
ATOM      3  N   UNL     1       2.657   1.991  19.132  0.00  0.00    +0.000 NA
ATOM      4  C   UNL     1       2.463   3.216  19.527  0.00  0.00    +0.000 A 
ATOM      5  S   UNL     1       1.435   3.990  20.654  0.00  0.00    +0.000 S 
ATOM      6  C   UNL     1       2.181   5.522  20.121  0.00  0.00    +0.000 A 
ATOM      7  N   UNL     1       1.717   6.648  20.727  0.00  0.00    +0.000 N 
ATOM      8  N   UNL     1       3.105   5.453  19.206  0.00  0.00    +0.000 NA
ATOM      9  N   UNL     1       3.243   4.136  18.908  0.00  0.00    +0.000 N 
ATOM     10  H   UNL     1       0.926   6.525  21.348  0.00  0.00    +0.000 HD
ENDROOT
BRANCH   1  15
ATOM     11  C   UNL     1       5.849   4.821  15.012  0.00  0.00    +0.000 A 
ATOM     12  C   UNL     1       7.055   5.165  15.599  0.00  0.00    +0.000 A 
ATOM     13  N   UNL     1       7.324   4.990  16.908  0.00  0.00    +0.000 NA
ATOM     14  C   UNL     1       6.338   4.446  17.665  0.00  0.00    +0.000 A 
ATOM     15  C   UNL     1       5.085   4.064  17.182  0.00  0.00    +0.000 A 
ATOM     16  C   UNL     1       4.856   4.263  15.817  0.00  0.00    +0.000 A 
ENDBRANCH   1  15
BRANCH   7  17
ATOM     17  C   UNL     1       1.875   7.970  20.165  0.00  0.00    +0.000 C 
BRANCH  17  18
ATOM     18  C   UNL     1       0.980   8.957  20.869  0.00  0.00    +0.000 A 
ATOM     19  C   UNL     1       0.306   9.959  20.161  0.00  0.00    +0.000 A 
ATOM     20  C   UNL     1      -0.519  10.825  20.858  0.00  0.00    +0.000 A 
ATOM     21  N   UNL     1      -0.713  10.773  22.193  0.00  0.00    +0.000 NA
ATOM     22  C   UNL     1      -0.043   9.809  22.862  0.00  0.00    +0.000 A 
ATOM     23  C   UNL     1       0.808   8.899  22.256  0.00  0.00    +0.000 A 
ENDBRANCH  17  18
ENDBRANCH   7  17
TORSDOF 3
ENDMDL
MODEL 2
REMARK VINA RESULT:      -7.9      0.104      1.007
REMARK  Name = 
REMARK  3 active torsions:
REMARK  status: ('A' for Active; 'I' for Inactive)
REMARK    1  A    between atoms: C_5  and  C_6
REMARK    2  A    between atoms: N_12  and  C_13
REMARK    3  A    between atoms: C_13  and  C_14
REMARK                            x       y       z     vdW  Elec       q    Type
REMARK                         _______ _______ _______ _____ _____    ______ ____
ROOT
ATOM      1  C   UNL     1       4.094   3.474  18.148  0.00  0.00    +0.000 A 
ATOM      2  C   UNL     1       3.705   2.145  18.332  0.00  0.00    +0.000 A 
ATOM      3  N   UNL     1       2.708   2.009  19.281  0.00  0.00    +0.000 NA
ATOM      4  C   UNL     1       2.498   3.239  19.650  0.00  0.00    +0.000 A 
ATOM      5  S   UNL     1       1.462   4.023  20.762  0.00  0.00    +0.000 S 
ATOM      6  C   UNL     1       2.186   5.553  20.195  0.00  0.00    +0.000 A 
ATOM      7  N   UNL     1       1.708   6.685  20.778  0.00  0.00    +0.000 N 
ATOM      8  N   UNL     1       3.109   5.477  19.280  0.00  0.00    +0.000 NA
ATOM      9  N   UNL     1       3.264   4.156  19.010  0.00  0.00    +0.000 N 
ATOM     10  H   UNL     1       0.920   6.565  21.403  0.00  0.00    +0.000 HD
ENDROOT
BRANCH   1  15
ATOM     11  C   UNL     1       5.818   4.880  15.113  0.00  0.00    +0.000 A 
ATOM     12  C   UNL     1       7.055   5.161  15.667  0.00  0.00    +0.000 A 
ATOM     13  N   UNL     1       7.363   4.932  16.959  0.00  0.00    +0.000 NA
ATOM     14  C   UNL     1       6.385   4.395  17.732  0.00  0.00    +0.000 A 
ATOM     15  C   UNL     1       5.104   4.072  17.281  0.00  0.00    +0.000 A 
ATOM     16  C   UNL     1       4.835   4.327  15.933  0.00  0.00    +0.000 A 
ENDBRANCH   1  15
BRANCH   7  17
ATOM     17  C   UNL     1       1.847   7.997  20.187  0.00  0.00    +0.000 C 
BRANCH  17  18
ATOM     18  C   UNL     1       0.931   8.983  20.864  0.00  0.00    +0.000 A 
ATOM     19  C   UNL     1       0.709   8.938  22.246  0.00  0.00    +0.000 A 
ATOM     20  C   UNL     1      -0.126   9.883  22.817  0.00  0.00    +0.000 A 
ATOM     21  N   UNL     1      -0.757  10.852  22.120  0.00  0.00    +0.000 NA
ATOM     22  C   UNL     1      -0.544  10.872  20.786  0.00  0.00    +0.000 A 
ATOM     23  C   UNL     1       0.270   9.968  20.122  0.00  0.00    +0.000 A 
ENDBRANCH  17  18
ENDBRANCH   7  17
TORSDOF 3
ENDMDL
MODEL 3
REMARK VINA RESULT:      -7.7      1.032      1.538
REMARK  Name = 
REMARK  3 active torsions:
REMARK  status: ('A' for Active; 'I' for Inactive)
REMARK    1  A    between atoms: C_5  and  C_6
REMARK    2  A    between atoms: N_12  and  C_13
REMARK    3  A    between atoms: C_13  and  C_14
REMARK                            x       y       z     vdW  Elec       q    Type
REMARK                         _______ _______ _______ _____ _____    ______ ____
ROOT
ATOM      1  C   UNL     1       4.475   3.767  18.312  0.00  0.00    +0.000 A 
ATOM      2  C   UNL     1       4.237   2.532  18.919  0.00  0.00    +0.000 A 
ATOM      3  N   UNL     1       3.336   2.616  19.965  0.00  0.00    +0.000 NA
ATOM      4  C   UNL     1       3.034   3.883  19.976  0.00  0.00    +0.000 A 
ATOM      5  S   UNL     1       2.015   4.889  20.912  0.00  0.00    +0.000 S 
ATOM      6  C   UNL     1       2.536   6.224  19.847  0.00  0.00    +0.000 A 
ATOM      7  N   UNL     1       1.995   7.442  20.119  0.00  0.00    +0.000 N 
ATOM      8  N   UNL     1       3.387   5.942  18.903  0.00  0.00    +0.000 NA
ATOM      9  N   UNL     1       3.652   4.616  19.018  0.00  0.00    +0.000 N 
ATOM     10  H   UNL     1       1.274   7.460  20.831  0.00  0.00    +0.000 HD
ENDROOT
BRANCH   1  15
ATOM     11  C   UNL     1       5.739   4.486  14.841  0.00  0.00    +0.000 A 
ATOM     12  C   UNL     1       7.045   4.828  15.145  0.00  0.00    +0.000 A 
ATOM     13  N   UNL     1       7.540   4.847  16.398  0.00  0.00    +0.000 NA
ATOM     14  C   UNL     1       6.685   4.507  17.395  0.00  0.00    +0.000 A 
ATOM     15  C   UNL     1       5.349   4.147  17.207  0.00  0.00    +0.000 A 
ATOM     16  C   UNL     1       4.885   4.140  15.888  0.00  0.00    +0.000 A 
ENDBRANCH   1  15
BRANCH   7  17
ATOM     17  C   UNL     1       1.954   8.521  19.158  0.00  0.00    +0.000 C 
BRANCH  17  18
ATOM     18  C   UNL     1       0.862   9.500  19.504  0.00  0.00    +0.000 A 
ATOM     19  C   UNL     1       0.542   9.790  20.836  0.00  0.00    +0.000 A 
ATOM     20  C   UNL     1      -0.456  10.713  21.095  0.00  0.00    +0.000 A 
ATOM     21  N   UNL     1      -1.158  11.354  20.136  0.00  0.00    +0.000 NA
ATOM     22  C   UNL     1      -0.847  11.051  18.856  0.00  0.00    +0.000 A 
ATOM     23  C   UNL     1       0.133  10.138  18.496  0.00  0.00    +0.000 A 
ENDBRANCH  17  18
ENDBRANCH   7  17
TORSDOF 3
ENDMDL
MODEL 4
REMARK VINA RESULT:      -7.6      1.248      1.452
REMARK  Name = 
REMARK  3 active torsions:
REMARK  status: ('A' for Active; 'I' for Inactive)
REMARK    1  A    between atoms: C_5  and  C_6
REMARK    2  A    between atoms: N_12  and  C_13
REMARK    3  A    between atoms: C_13  and  C_14
REMARK                            x       y       z     vdW  Elec       q    Type
REMARK                         _______ _______ _______ _____ _____    ______ ____
ROOT
ATOM      1  C   UNL     1       4.455   3.883  18.315  0.00  0.00    +0.000 A 
ATOM      2  C   UNL     1       4.214   2.678  18.978  0.00  0.00    +0.000 A 
ATOM      3  N   UNL     1       3.290   2.807  19.999  0.00  0.00    +0.000 NA
ATOM      4  C   UNL     1       2.978   4.070  19.939  0.00  0.00    +0.000 A 
ATOM      5  S   UNL     1       1.931   5.113  20.801  0.00  0.00    +0.000 S 
ATOM      6  C   UNL     1       2.465   6.397  19.681  0.00  0.00    +0.000 A 
ATOM      7  N   UNL     1       1.908   7.623  19.879  0.00  0.00    +0.000 N 
ATOM      8  N   UNL     1       3.338   6.075  18.771  0.00  0.00    +0.000 NA
ATOM      9  N   UNL     1       3.610   4.759  18.959  0.00  0.00    +0.000 N 
ATOM     10  H   UNL     1       1.172   7.670  20.574  0.00  0.00    +0.000 HD
ENDROOT
BRANCH   1  15
ATOM     11  C   UNL     1       5.773   4.485  14.841  0.00  0.00    +0.000 A 
ATOM     12  C   UNL     1       7.084   4.803  15.151  0.00  0.00    +0.000 A 
ATOM     13  N   UNL     1       7.566   4.840  16.408  0.00  0.00    +0.000 NA
ATOM     14  C   UNL     1       6.692   4.546  17.404  0.00  0.00    +0.000 A 
ATOM     15  C   UNL     1       5.350   4.214  17.210  0.00  0.00    +0.000 A 
ATOM     16  C   UNL     1       4.899   4.186  15.887  0.00  0.00    +0.000 A 
ENDBRANCH   1  15
BRANCH   7  17
ATOM     17  C   UNL     1       1.880   8.651  18.864  0.00  0.00    +0.000 C 
BRANCH  17  18
ATOM     18  C   UNL     1       0.773   9.636  19.136  0.00  0.00    +0.000 A 
ATOM     19  C   UNL     1      -0.100  10.046  18.121  0.00  0.00    +0.000 A 
ATOM     20  C   UNL     1      -1.112  10.937  18.434  0.00  0.00    +0.000 A 
ATOM     21  N   UNL     1      -1.310  11.452  19.666  0.00  0.00    +0.000 NA
ATOM     22  C   UNL     1      -0.450  11.058  20.630  0.00  0.00    +0.000 A 
ATOM     23  C   UNL     1       0.597  10.174  20.415  0.00  0.00    +0.000 A 
ENDBRANCH  17  18
ENDBRANCH   7  17
TORSDOF 3
ENDMDL
MODEL 5
REMARK VINA RESULT:      -7.6      0.592      1.029
REMARK  Name = 
REMARK  3 active torsions:
REMARK  status: ('A' for Active; 'I' for Inactive)
REMARK    1  A    between atoms: C_5  and  C_6
REMARK    2  A    between atoms: N_12  and  C_13
REMARK    3  A    between atoms: C_13  and  C_14
REMARK                            x       y       z     vdW  Elec       q    Type
REMARK                         _______ _______ _______ _____ _____    ______ ____
ROOT
ATOM      1  C   UNL     1       3.966   3.410  18.111  0.00  0.00    +0.000 A 
ATOM      2  C   UNL     1       3.523   2.090  18.233  0.00  0.00    +0.000 A 
ATOM      3  N   UNL     1       2.495   1.956  19.148  0.00  0.00    +0.000 NA
ATOM      4  C   UNL     1       2.321   3.179  19.560  0.00  0.00    +0.000 A 
ATOM      5  S   UNL     1       1.284   3.959  20.675  0.00  0.00    +0.000 S 
ATOM      6  C   UNL     1       2.081   5.480  20.187  0.00  0.00    +0.000 A 
ATOM      7  N   UNL     1       1.630   6.607  20.802  0.00  0.00    +0.000 N 
ATOM      8  N   UNL     1       3.025   5.404  19.295  0.00  0.00    +0.000 NA
ATOM      9  N   UNL     1       3.139   4.089  18.977  0.00  0.00    +0.000 N 
ATOM     10  H   UNL     1       0.820   6.493  21.401  0.00  0.00    +0.000 HD
ENDROOT
BRANCH   1  15
ATOM     11  C   UNL     1       7.232   4.966  17.075  0.00  0.00    +0.000 A 
ATOM     12  C   UNL     1       6.973   5.155  15.729  0.00  0.00    +0.000 A 
ATOM     13  N   UNL     1       5.815   4.806  15.135  0.00  0.00    +0.000 NA
ATOM     14  C   UNL     1       4.870   4.240  15.928  0.00  0.00    +0.000 A 
ATOM     15  C   UNL     1       5.022   4.001  17.296  0.00  0.00    +0.000 A 
ATOM     16  C   UNL     1       6.240   4.383  17.865  0.00  0.00    +0.000 A 
ENDBRANCH   1  15
BRANCH   7  17
ATOM     17  C   UNL     1       1.834   7.934  20.267  0.00  0.00    +0.000 C 
BRANCH  17  18
ATOM     18  C   UNL     1       0.932   8.927  20.953  0.00  0.00    +0.000 A 
ATOM     19  C   UNL     1       0.326   9.970  20.242  0.00  0.00    +0.000 A 
ATOM     20  C   UNL     1      -0.509  10.841  20.921  0.00  0.00    +0.000 A 
ATOM     21  N   UNL     1      -0.775  10.756  22.241  0.00  0.00    +0.000 NA
ATOM     22  C   UNL     1      -0.170   9.754  22.916  0.00  0.00    +0.000 A 
ATOM     23  C   UNL     1       0.685   8.835  22.327  0.00  0.00    +0.000 A 
ENDBRANCH  17  18
ENDBRANCH   7  17
TORSDOF 3
ENDMDL
MODEL 6
REMARK VINA RESULT:      -7.6      0.593      1.436
REMARK  Name = 
REMARK  3 active torsions:
REMARK  status: ('A' for Active; 'I' for Inactive)
REMARK    1  A    between atoms: C_5  and  C_6
REMARK    2  A    between atoms: N_12  and  C_13
REMARK    3  A    between atoms: C_13  and  C_14
REMARK                            x       y       z     vdW  Elec       q    Type
REMARK                         _______ _______ _______ _____ _____    ______ ____
ROOT
ATOM      1  C   UNL     1       3.952   3.440  18.116  0.00  0.00    +0.000 A 
ATOM      2  C   UNL     1       3.494   2.125  18.226  0.00  0.00    +0.000 A 
ATOM      3  N   UNL     1       2.460   1.996  19.136  0.00  0.00    +0.000 NA
ATOM      4  C   UNL     1       2.298   3.218  19.556  0.00  0.00    +0.000 A 
ATOM      5  S   UNL     1       1.264   4.001  20.671  0.00  0.00    +0.000 S 
ATOM      6  C   UNL     1       2.080   5.517  20.198  0.00  0.00    +0.000 A 
ATOM      7  N   UNL     1       1.638   6.644  20.818  0.00  0.00    +0.000 N 
ATOM      8  N   UNL     1       3.028   5.436  19.309  0.00  0.00    +0.000 NA
ATOM      9  N   UNL     1       3.128   4.123  18.983  0.00  0.00    +0.000 N 
ATOM     10  H   UNL     1       0.825   6.535  21.413  0.00  0.00    +0.000 HD
ENDROOT
BRANCH   1  15
ATOM     11  C   UNL     1       7.192   5.077  17.123  0.00  0.00    +0.000 A 
ATOM     12  C   UNL     1       6.989   5.165  15.756  0.00  0.00    +0.000 A 
ATOM     13  N   UNL     1       5.877   4.723  15.137  0.00  0.00    +0.000 NA
ATOM     14  C   UNL     1       4.922   4.167  15.924  0.00  0.00    +0.000 A 
ATOM     15  C   UNL     1       5.018   4.026  17.310  0.00  0.00    +0.000 A 
ATOM     16  C   UNL     1       6.191   4.502  17.905  0.00  0.00    +0.000 A 
ENDBRANCH   1  15
BRANCH   7  17
ATOM     17  C   UNL     1       1.860   7.973  20.294  0.00  0.00    +0.000 C 
BRANCH  17  18
ATOM     18  C   UNL     1       0.923   8.961  20.939  0.00  0.00    +0.000 A 
ATOM     19  C   UNL     1       0.699   8.953  22.322  0.00  0.00    +0.000 A 
ATOM     20  C   UNL     1      -0.157   9.898  22.862  0.00  0.00    +0.000 A 
ATOM     21  N   UNL     1      -0.804  10.833  22.136  0.00  0.00    +0.000 NA
ATOM     22  C   UNL     1      -0.589  10.817  20.802  0.00  0.00    +0.000 A 
ATOM     23  C   UNL     1       0.245   9.909  20.167  0.00  0.00    +0.000 A 
ENDBRANCH  17  18
ENDBRANCH   7  17
TORSDOF 3
ENDMDL
MODEL 7
REMARK VINA RESULT:      -7.6      2.050      2.198
REMARK  Name = 
REMARK  3 active torsions:
REMARK  status: ('A' for Active; 'I' for Inactive)
REMARK    1  A    between atoms: C_5  and  C_6
REMARK    2  A    between atoms: N_12  and  C_13
REMARK    3  A    between atoms: C_13  and  C_14
REMARK                            x       y       z     vdW  Elec       q    Type
REMARK                         _______ _______ _______ _____ _____    ______ ____
ROOT
ATOM      1  C   UNL     1       4.514   4.198  18.249  0.00  0.00    +0.000 A 
ATOM      2  C   UNL     1       4.291   3.106  19.091  0.00  0.00    +0.000 A 
ATOM      3  N   UNL     1       3.368   3.379  20.084  0.00  0.00    +0.000 NA
ATOM      4  C   UNL     1       3.039   4.614  19.833  0.00  0.00    +0.000 A 
ATOM      5  S   UNL     1       1.980   5.764  20.528  0.00  0.00    +0.000 S 
ATOM      6  C   UNL     1       2.494   6.867  19.222  0.00  0.00    +0.000 A 
ATOM      7  N   UNL     1       1.922   8.101  19.231  0.00  0.00    +0.000 N 
ATOM      8  N   UNL     1       3.369   6.420  18.368  0.00  0.00    +0.000 NA
ATOM      9  N   UNL     1       3.660   5.152  18.755  0.00  0.00    +0.000 N 
ATOM     10  H   UNL     1       1.187   8.245  19.914  0.00  0.00    +0.000 HD
ENDROOT
BRANCH   1  15
ATOM     11  C   UNL     1       5.790   4.365  14.713  0.00  0.00    +0.000 A 
ATOM     12  C   UNL     1       7.121   4.649  14.968  0.00  0.00    +0.000 A 
ATOM     13  N   UNL     1       7.628   4.795  16.207  0.00  0.00    +0.000 NA
ATOM     14  C   UNL     1       6.762   4.651  17.241  0.00  0.00    +0.000 A 
ATOM     15  C   UNL     1       5.402   4.366  17.103  0.00  0.00    +0.000 A 
ATOM     16  C   UNL     1       4.925   4.221  15.797  0.00  0.00    +0.000 A 
ENDBRANCH   1  15
BRANCH   7  17
ATOM     17  C   UNL     1       1.878   8.960  18.070  0.00  0.00    +0.000 C 
BRANCH  17  18
ATOM     18  C   UNL     1       1.057  10.192  18.352  0.00  0.00    +0.000 A 
ATOM     19  C   UNL     1       1.665  11.427  18.606  0.00  0.00    +0.000 A 
ATOM     20  C   UNL     1       0.860  12.530  18.838  0.00  0.00    +0.000 A 
ATOM     21  N   UNL     1      -0.490  12.491  18.844  0.00  0.00    +0.000 NA
ATOM     22  C   UNL     1      -1.060  11.288  18.612  0.00  0.00    +0.000 A 
ATOM     23  C   UNL     1      -0.340  10.127  18.374  0.00  0.00    +0.000 A 
ENDBRANCH  17  18
ENDBRANCH   7  17
TORSDOF 3
ENDMDL
MODEL 8
REMARK VINA RESULT:      -7.4      1.481      2.137
REMARK  Name = 
REMARK  3 active torsions:
REMARK  status: ('A' for Active; 'I' for Inactive)
REMARK    1  A    between atoms: C_5  and  C_6
REMARK    2  A    between atoms: N_12  and  C_13
REMARK    3  A    between atoms: C_13  and  C_14
REMARK                            x       y       z     vdW  Elec       q    Type
REMARK                         _______ _______ _______ _____ _____    ______ ____
ROOT
ATOM      1  C   UNL     1       4.683   4.755  18.945  0.00  0.00    +0.000 A 
ATOM      2  C   UNL     1       4.508   3.370  18.968  0.00  0.00    +0.000 A 
ATOM      3  N   UNL     1       3.322   2.993  19.570  0.00  0.00    +0.000 NA
ATOM      4  C   UNL     1       2.792   4.137  19.893  0.00  0.00    +0.000 A 
ATOM      5  S   UNL     1       1.352   4.645  20.665  0.00  0.00    +0.000 S 
ATOM      6  C   UNL     1       1.917   6.315  20.383  0.00  0.00    +0.000 A 
ATOM      7  N   UNL     1       1.092   7.301  20.827  0.00  0.00    +0.000 N 
ATOM      8  N   UNL     1       3.063   6.468  19.784  0.00  0.00    +0.000 NA
ATOM      9  N   UNL     1       3.529   5.217  19.537  0.00  0.00    +0.000 N 
ATOM     10  H   UNL     1       0.192   7.001  21.184  0.00  0.00    +0.000 HD
ENDROOT
BRANCH   1  15
ATOM     11  C   UNL     1       8.000   6.509  18.655  0.00  0.00    +0.000 A 
ATOM     12  C   UNL     1       7.792   7.186  17.466  0.00  0.00    +0.000 A 
ATOM     13  N   UNL     1       6.653   7.107  16.751  0.00  0.00    +0.000 NA
ATOM     14  C   UNL     1       5.674   6.310  17.251  0.00  0.00    +0.000 A 
ATOM     15  C   UNL     1       5.773   5.581  18.437  0.00  0.00    +0.000 A 
ATOM     16  C   UNL     1       6.975   5.699  19.143  0.00  0.00    +0.000 A 
ENDBRANCH   1  15
BRANCH   7  17
ATOM     17  C   UNL     1       1.152   8.660  20.341  0.00  0.00    +0.000 C 
BRANCH  17  18
ATOM     18  C   UNL     1       0.428   9.592  21.278  0.00  0.00    +0.000 A 
ATOM     19  C   UNL     1      -0.121   9.130  22.480  0.00  0.00    +0.000 A 
ATOM     20  C   UNL     1      -0.758  10.035  23.313  0.00  0.00    +0.000 A 
ATOM     21  N   UNL     1      -0.893  11.349  23.035  0.00  0.00    +0.000 NA
ATOM     22  C   UNL     1      -0.371  11.775  21.864  0.00  0.00    +0.000 A 
ATOM     23  C   UNL     1       0.280  10.946  20.963  0.00  0.00    +0.000 A 
ENDBRANCH  17  18
ENDBRANCH   7  17
TORSDOF 3
ENDMDL
MODEL 9
REMARK VINA RESULT:      -7.4      1.345      1.783
REMARK  Name = 
REMARK  3 active torsions:
REMARK  status: ('A' for Active; 'I' for Inactive)
REMARK    1  A    between atoms: C_5  and  C_6
REMARK    2  A    between atoms: N_12  and  C_13
REMARK    3  A    between atoms: C_13  and  C_14
REMARK                            x       y       z     vdW  Elec       q    Type
REMARK                         _______ _______ _______ _____ _____    ______ ____
ROOT
ATOM      1  C   UNL     1       4.577   4.562  18.893  0.00  0.00    +0.000 A 
ATOM      2  C   UNL     1       4.366   3.182  18.936  0.00  0.00    +0.000 A 
ATOM      3  N   UNL     1       3.185   2.843  19.570  0.00  0.00    +0.000 NA
ATOM      4  C   UNL     1       2.694   4.005  19.893  0.00  0.00    +0.000 A 
ATOM      5  S   UNL     1       1.287   4.559  20.693  0.00  0.00    +0.000 S 
ATOM      6  C   UNL     1       1.888   6.210  20.379  0.00  0.00    +0.000 A 
ATOM      7  N   UNL     1       1.100   7.222  20.831  0.00  0.00    +0.000 N 
ATOM      8  N   UNL     1       3.023   6.326  19.752  0.00  0.00    +0.000 NA
ATOM      9  N   UNL     1       3.450   5.061  19.507  0.00  0.00    +0.000 N 
ATOM     10  H   UNL     1       0.202   6.950  21.212  0.00  0.00    +0.000 HD
ENDROOT
BRANCH   1  15
ATOM     11  C   UNL     1       7.853   6.390  18.589  0.00  0.00    +0.000 A 
ATOM     12  C   UNL     1       7.712   6.890  17.305  0.00  0.00    +0.000 A 
ATOM     13  N   UNL     1       6.631   6.668  16.533  0.00  0.00    +0.000 NA
ATOM     14  C   UNL     1       5.643   5.909  17.071  0.00  0.00    +0.000 A 
ATOM     15  C   UNL     1       5.677   5.354  18.351  0.00  0.00    +0.000 A 
ATOM     16  C   UNL     1       6.819   5.615  19.114  0.00  0.00    +0.000 A 
ENDBRANCH   1  15
BRANCH   7  17
ATOM     17  C   UNL     1       1.185   8.574  20.329  0.00  0.00    +0.000 C 
BRANCH  17  18
ATOM     18  C   UNL     1       0.520   9.537  21.279  0.00  0.00    +0.000 A 
ATOM     19  C   UNL     1       0.433  10.903  20.986  0.00  0.00    +0.000 A 
ATOM     20  C   UNL     1      -0.207  11.737  21.886  0.00  0.00    +0.000 A 
ATOM     21  N   UNL     1      -0.752  11.318  23.047  0.00  0.00    +0.000 NA
ATOM     22  C   UNL     1      -0.646   9.999  23.322  0.00  0.00    +0.000 A 
ATOM     23  C   UNL     1      -0.021   9.085  22.487  0.00  0.00    +0.000 A 
ENDBRANCH  17  18
ENDBRANCH   7  17
TORSDOF 3
ENDMDL
