MODEL 1
REMARK VINA RESULT:      -8.3      0.000      0.000
REMARK  Name = 
REMARK  7 active torsions:
REMARK  status: ('A' for Active; 'I' for Inactive)
REMARK    1  A    between atoms: C_1  and  O_2
REMARK    2  A    between atoms: O_2  and  C_3
REMARK    3  A    between atoms: C_6  and  N_7
REMARK    4  A    between atoms: N_13  and  C_14
REMARK    5  A    between atoms: N_23  and  C_24
REMARK    6  A    between atoms: C_25  and  C_26
REMARK    7  A    between atoms: C_28  and  C_29
REMARK                            x       y       z     vdW  Elec       q    Type
REMARK                         _______ _______ _______ _____ _____    ______ ____
ROOT
ATOM      1  N   UNL     1       1.949   8.073  19.490  0.00  0.00    +0.000 N 
ATOM      2  C   UNL     1       1.234   9.093  18.899  0.00  0.00    +0.000 C 
ATOM      3  O   UNL     1       1.093   9.258  17.691  0.00  0.00    +0.000 OA
ATOM      4  N   UNL     1       0.613   9.944  19.803  0.00  0.00    +0.000 N 
ATOM      5  C   UNL     1      -0.301  10.963  19.279  0.00  0.00    +0.000 C 
ATOM      6  C   UNL     1      -1.490  11.222  20.221  0.00  0.00    +0.000 C 
ATOM      7  N   UNL     1      -1.049  11.372  21.612  0.00  0.00    +0.000 N 
ATOM      8  C   UNL     1      -0.093  10.388  22.149  0.00  0.00    +0.000 C 
ATOM      9  C   UNL     1      -0.792   9.040  22.374  0.00  0.00    +0.000 C 
ATOM     10  C   UNL     1       1.085  10.226  21.166  0.00  0.00    +0.000 C 
ATOM     11  H   UNL     1       1.714   7.893  20.450  0.00  0.00    +0.000 HD
ENDROOT
BRANCH   7  12
ATOM     12  C   UNL     1      -1.662  12.253  22.477  0.00  0.00    +0.000 A 
ATOM     13  N   UNL     1      -2.837  11.880  23.060  0.00  0.00    +0.000 NA
ATOM     14  C   UNL     1      -3.416  12.663  23.983  0.00  0.00    +0.000 A 
ATOM     15  N   UNL     1      -4.568  12.178  24.572  0.00  0.00    +0.000 N 
ATOM     16  N   UNL     1      -2.954  13.834  24.441  0.00  0.00    +0.000 NA
ATOM     17  C   UNL     1      -1.828  14.211  23.817  0.00  0.00    +0.000 A 
ATOM     18  C   UNL     1      -1.147  13.505  22.846  0.00  0.00    +0.000 A 
ATOM     19  C   UNL     1      -0.072  14.349  22.494  0.00  0.00    +0.000 A 
ATOM     20  N   UNL     1      -0.031  15.475  23.213  0.00  0.00    +0.000 NA
ATOM     21  N   UNL     1      -1.112  15.361  24.017  0.00  0.00    +0.000 N 
ATOM     22  C   UNL     1      -1.402  16.392  24.982  0.00  0.00    +0.000 C 
ATOM     23  H   UNL     1      -4.579  11.172  24.487  0.00  0.00    +0.000 HD
ATOM     24  H   UNL     1      -4.661  12.561  25.503  0.00  0.00    +0.000 HD
ENDBRANCH   7  12
BRANCH   1  28
ATOM     25  C   UNL     1       4.178   5.058  17.511  0.00  0.00    +0.000 A 
ATOM     26  C   UNL     1       4.312   6.387  17.136  0.00  0.00    +0.000 A 
ATOM     27  C   UNL     1       3.597   7.383  17.810  0.00  0.00    +0.000 A 
ATOM     28  C   UNL     1       2.729   7.076  18.860  0.00  0.00    +0.000 A 
ATOM     29  C   UNL     1       2.634   5.735  19.289  0.00  0.00    +0.000 A 
ATOM     30  C   UNL     1       1.795   5.273  20.451  0.00  0.00    +0.000 C 
ATOM     31  C   UNL     1       3.346   4.742  18.587  0.00  0.00    +0.000 A 
BRANCH  25  33
ATOM     32  C   UNL     1       5.579   4.286  15.766  0.00  0.00    +0.000 C 
ATOM     33  O   UNL     1       4.805   3.995  16.925  0.00  0.00    +0.000 OA
ENDBRANCH  25  33
ENDBRANCH   1  28
TORSDOF 3
ENDMDL
MODEL 2
REMARK VINA RESULT:      -7.4      1.209      2.431
REMARK  Name = 
REMARK  7 active torsions:
REMARK  status: ('A' for Active; 'I' for Inactive)
REMARK    1  A    between atoms: C_1  and  O_2
REMARK    2  A    between atoms: O_2  and  C_3
REMARK    3  A    between atoms: C_6  and  N_7
REMARK    4  A    between atoms: N_13  and  C_14
REMARK    5  A    between atoms: N_23  and  C_24
REMARK    6  A    between atoms: C_25  and  C_26
REMARK    7  A    between atoms: C_28  and  C_29
REMARK                            x       y       z     vdW  Elec       q    Type
REMARK                         _______ _______ _______ _____ _____    ______ ____
ROOT
ATOM      1  N   UNL     1       2.123   7.402  19.573  0.00  0.00    +0.000 N 
ATOM      2  C   UNL     1       1.648   8.487  18.866  0.00  0.00    +0.000 C 
ATOM      3  O   UNL     1       1.539   8.550  17.645  0.00  0.00    +0.000 OA
ATOM      4  N   UNL     1       1.236   9.544  19.665  0.00  0.00    +0.000 N 
ATOM      5  C   UNL     1       0.566  10.679  19.022  0.00  0.00    +0.000 C 
ATOM      6  C   UNL     1      -0.530  11.291  19.912  0.00  0.00    +0.000 C 
ATOM      7  N   UNL     1      -0.058  11.486  21.286  0.00  0.00    +0.000 N 
ATOM      8  C   UNL     1       0.660  10.378  21.939  0.00  0.00    +0.000 C 
ATOM      9  C   UNL     1      -0.318   9.249  22.292  0.00  0.00    +0.000 C 
ATOM     10  C   UNL     1       1.767   9.858  21.000  0.00  0.00    +0.000 C 
ATOM     11  H   UNL     1       1.860   7.381  20.542  0.00  0.00    +0.000 HD
ENDROOT
BRANCH   7  12
ATOM     12  C   UNL     1      -0.456  12.567  22.044  0.00  0.00    +0.000 A 
ATOM     13  N   UNL     1       0.322  13.687  22.036  0.00  0.00    +0.000 NA
ATOM     14  C   UNL     1      -0.077  14.796  22.677  0.00  0.00    +0.000 A 
ATOM     15  N   UNL     1       0.739  15.906  22.561  0.00  0.00    +0.000 N 
ATOM     16  N   UNL     1      -1.218  14.957  23.359  0.00  0.00    +0.000 NA
ATOM     17  C   UNL     1      -1.943  13.830  23.404  0.00  0.00    +0.000 A 
ATOM     18  C   UNL     1      -1.636  12.627  22.800  0.00  0.00    +0.000 A 
ATOM     19  C   UNL     1      -2.686  11.767  23.187  0.00  0.00    +0.000 A 
ATOM     20  N   UNL     1      -3.617  12.376  23.929  0.00  0.00    +0.000 NA
ATOM     21  N   UNL     1      -3.141  13.637  24.040  0.00  0.00    +0.000 N 
ATOM     22  C   UNL     1      -3.895  14.628  24.763  0.00  0.00    +0.000 C 
ATOM     23  H   UNL     1       1.296  15.814  21.724  0.00  0.00    +0.000 HD
ATOM     24  H   UNL     1       0.184  16.745  22.655  0.00  0.00    +0.000 HD
ENDBRANCH   7  12
BRANCH   1  28
ATOM     25  C   UNL     1       3.631   3.790  17.943  0.00  0.00    +0.000 A 
ATOM     26  C   UNL     1       4.179   5.008  17.569  0.00  0.00    +0.000 A 
ATOM     27  C   UNL     1       3.699   6.197  18.130  0.00  0.00    +0.000 A 
ATOM     28  C   UNL     1       2.660   6.197  19.064  0.00  0.00    +0.000 A 
ATOM     29  C   UNL     1       2.139   4.959  19.497  0.00  0.00    +0.000 A 
ATOM     30  C   UNL     1       1.071   4.808  20.548  0.00  0.00    +0.000 C 
ATOM     31  C   UNL     1       2.620   3.772  18.907  0.00  0.00    +0.000 A 
BRANCH  25  33
ATOM     32  C   UNL     1       3.643   1.444  18.260  0.00  0.00    +0.000 C 
ATOM     33  O   UNL     1       3.998   2.566  17.459  0.00  0.00    +0.000 OA
ENDBRANCH  25  33
ENDBRANCH   1  28
TORSDOF 3
ENDMDL
MODEL 3
REMARK VINA RESULT:      -7.3      1.248      2.344
REMARK  Name = 
REMARK  7 active torsions:
REMARK  status: ('A' for Active; 'I' for Inactive)
REMARK    1  A    between atoms: C_1  and  O_2
REMARK    2  A    between atoms: O_2  and  C_3
REMARK    3  A    between atoms: C_6  and  N_7
REMARK    4  A    between atoms: N_13  and  C_14
REMARK    5  A    between atoms: N_23  and  C_24
REMARK    6  A    between atoms: C_25  and  C_26
REMARK    7  A    between atoms: C_28  and  C_29
REMARK                            x       y       z     vdW  Elec       q    Type
REMARK                         _______ _______ _______ _____ _____    ______ ____
ROOT
ATOM      1  N   UNL     1       1.794   8.498  19.492  0.00  0.00    +0.000 N 
ATOM      2  C   UNL     1       1.021   9.424  18.824  0.00  0.00    +0.000 C 
ATOM      3  O   UNL     1       0.752   9.399  17.628  0.00  0.00    +0.000 OA
ATOM      4  N   UNL     1       0.501  10.419  19.642  0.00  0.00    +0.000 N 
ATOM      5  C   UNL     1      -0.463  11.358  19.062  0.00  0.00    +0.000 C 
ATOM      6  C   UNL     1      -1.544  11.784  20.071  0.00  0.00    +0.000 C 
ATOM      7  N   UNL     1      -0.957  12.143  21.366  0.00  0.00    +0.000 N 
ATOM      8  C   UNL     1       0.050  11.240  21.948  0.00  0.00    +0.000 C 
ATOM      9  C   UNL     1      -0.622   9.957  22.458  0.00  0.00    +0.000 C 
ATOM     10  C   UNL     1       1.116  10.904  20.885  0.00  0.00    +0.000 C 
ATOM     11  H   UNL     1       1.663   8.477  20.487  0.00  0.00    +0.000 HD
ENDROOT
BRANCH   7  12
ATOM     12  C   UNL     1      -1.474  13.161  22.139  0.00  0.00    +0.000 A 
ATOM     13  N   UNL     1      -0.620  14.112  22.615  0.00  0.00    +0.000 NA
ATOM     14  C   UNL     1      -1.092  15.174  23.286  0.00  0.00    +0.000 A 
ATOM     15  N   UNL     1      -0.165  16.124  23.673  0.00  0.00    +0.000 N 
ATOM     16  N   UNL     1      -2.376  15.440  23.559  0.00  0.00    +0.000 NA
ATOM     17  C   UNL     1      -3.195  14.468  23.133  0.00  0.00    +0.000 A 
ATOM     18  C   UNL     1      -2.832  13.326  22.447  0.00  0.00    +0.000 A 
ATOM     19  C   UNL     1      -4.045  12.623  22.278  0.00  0.00    +0.000 A 
ATOM     20  N   UNL     1      -5.104  13.279  22.765  0.00  0.00    +0.000 NA
ATOM     21  N   UNL     1      -4.556  14.405  23.274  0.00  0.00    +0.000 N 
ATOM     22  C   UNL     1      -5.399  15.405  23.878  0.00  0.00    +0.000 C 
ATOM     23  H   UNL     1       0.644  16.052  23.074  0.00  0.00    +0.000 HD
ATOM     24  H   UNL     1      -0.613  17.028  23.736  0.00  0.00    +0.000 HD
ENDBRANCH   7  12
BRANCH   1  28
ATOM     25  C   UNL     1       3.801   5.177  17.782  0.00  0.00    +0.000 A 
ATOM     26  C   UNL     1       3.983   6.449  17.260  0.00  0.00    +0.000 A 
ATOM     27  C   UNL     1       3.343   7.548  17.843  0.00  0.00    +0.000 A 
ATOM     28  C   UNL     1       2.501   7.400  18.949  0.00  0.00    +0.000 A 
ATOM     29  C   UNL     1       2.360   6.120  19.525  0.00  0.00    +0.000 A 
ATOM     30  C   UNL     1       1.545   5.830  20.758  0.00  0.00    +0.000 C 
ATOM     31  C   UNL     1       2.997   5.021  18.913  0.00  0.00    +0.000 A 
BRANCH  25  33
ATOM     32  C   UNL     1       3.753   2.811  17.730  0.00  0.00    +0.000 C 
ATOM     33  O   UNL     1       4.354   4.026  17.296  0.00  0.00    +0.000 OA
ENDBRANCH  25  33
ENDBRANCH   1  28
TORSDOF 3
ENDMDL
MODEL 4
REMARK VINA RESULT:      -7.3      1.968      2.624
REMARK  Name = 
REMARK  7 active torsions:
REMARK  status: ('A' for Active; 'I' for Inactive)
REMARK    1  A    between atoms: C_1  and  O_2
REMARK    2  A    between atoms: O_2  and  C_3
REMARK    3  A    between atoms: C_6  and  N_7
REMARK    4  A    between atoms: N_13  and  C_14
REMARK    5  A    between atoms: N_23  and  C_24
REMARK    6  A    between atoms: C_25  and  C_26
REMARK    7  A    between atoms: C_28  and  C_29
REMARK                            x       y       z     vdW  Elec       q    Type
REMARK                         _______ _______ _______ _____ _____    ______ ____
ROOT
ATOM      1  N   UNL     1       2.773   7.575  18.144  0.00  0.00    +0.000 N 
ATOM      2  C   UNL     1       2.209   7.609  19.402  0.00  0.00    +0.000 C 
ATOM      3  O   UNL     1       2.456   6.827  20.315  0.00  0.00    +0.000 OA
ATOM      4  N   UNL     1       1.328   8.664  19.598  0.00  0.00    +0.000 N 
ATOM      5  C   UNL     1       0.799   8.883  20.947  0.00  0.00    +0.000 C 
ATOM      6  C   UNL     1       0.603  10.376  21.262  0.00  0.00    +0.000 C 
ATOM      7  N   UNL     1      -0.068  11.074  20.160  0.00  0.00    +0.000 N 
ATOM      8  C   UNL     1       0.413  10.833  18.788  0.00  0.00    +0.000 C 
ATOM      9  C   UNL     1       1.769  11.521  18.576  0.00  0.00    +0.000 C 
ATOM     10  C   UNL     1       0.536   9.315  18.544  0.00  0.00    +0.000 C 
ATOM     11  H   UNL     1       2.714   8.437  17.632  0.00  0.00    +0.000 HD
ENDROOT
BRANCH   7  12
ATOM     12  C   UNL     1      -0.967  12.094  20.386  0.00  0.00    +0.000 A 
ATOM     13  N   UNL     1      -2.196  12.018  19.801  0.00  0.00    +0.000 NA
ATOM     14  C   UNL     1      -3.136  12.937  20.074  0.00  0.00    +0.000 A 
ATOM     15  N   UNL     1      -4.375  12.746  19.492  0.00  0.00    +0.000 N 
ATOM     16  N   UNL     1      -3.017  13.978  20.907  0.00  0.00    +0.000 NA
ATOM     17  C   UNL     1      -1.785  14.068  21.429  0.00  0.00    +0.000 A 
ATOM     18  C   UNL     1      -0.733  13.200  21.217  0.00  0.00    +0.000 A 
ATOM     19  C   UNL     1       0.334  13.762  21.950  0.00  0.00    +0.000 A 
ATOM     20  N   UNL     1      -0.013  14.866  22.620  0.00  0.00    +0.000 NA
ATOM     21  N   UNL     1      -1.315  15.025  22.289  0.00  0.00    +0.000 N 
ATOM     22  C   UNL     1      -2.069  16.118  22.848  0.00  0.00    +0.000 C 
ATOM     23  H   UNL     1      -4.481  11.769  19.263  0.00  0.00    +0.000 HD
ATOM     24  H   UNL     1      -5.090  13.163  20.071  0.00  0.00    +0.000 HD
ENDBRANCH   7  12
BRANCH   1  28
ATOM     25  C   UNL     1       5.387   4.716  16.420  0.00  0.00    +0.000 A 
ATOM     26  C   UNL     1       5.820   6.015  16.643  0.00  0.00    +0.000 A 
ATOM     27  C   UNL     1       4.965   6.949  17.238  0.00  0.00    +0.000 A 
ATOM     28  C   UNL     1       3.662   6.613  17.613  0.00  0.00    +0.000 A 
ATOM     29  C   UNL     1       3.234   5.278  17.447  0.00  0.00    +0.000 A 
ATOM     30  C   UNL     1       1.885   4.761  17.872  0.00  0.00    +0.000 C 
ATOM     31  C   UNL     1       4.101   4.355  16.828  0.00  0.00    +0.000 A 
BRANCH  25  33
ATOM     32  C   UNL     1       6.334   3.844  14.433  0.00  0.00    +0.000 C 
ATOM     33  O   UNL     1       6.115   3.720  15.834  0.00  0.00    +0.000 OA
ENDBRANCH  25  33
ENDBRANCH   1  28
TORSDOF 3
ENDMDL
MODEL 5
REMARK VINA RESULT:      -7.2      2.842     10.024
REMARK  Name = 
REMARK  7 active torsions:
REMARK  status: ('A' for Active; 'I' for Inactive)
REMARK    1  A    between atoms: C_1  and  O_2
REMARK    2  A    between atoms: O_2  and  C_3
REMARK    3  A    between atoms: C_6  and  N_7
REMARK    4  A    between atoms: N_13  and  C_14
REMARK    5  A    between atoms: N_23  and  C_24
REMARK    6  A    between atoms: C_25  and  C_26
REMARK    7  A    between atoms: C_28  and  C_29
REMARK                            x       y       z     vdW  Elec       q    Type
REMARK                         _______ _______ _______ _____ _____    ______ ____
ROOT
ATOM      1  N   UNL     1      -1.301  11.551  22.198  0.00  0.00    +0.000 N 
ATOM      2  C   UNL     1      -1.113  11.461  20.835  0.00  0.00    +0.000 C 
ATOM      3  O   UNL     1      -1.511  12.273  20.006  0.00  0.00    +0.000 OA
ATOM      4  N   UNL     1      -0.368  10.358  20.440  0.00  0.00    +0.000 N 
ATOM      5  C   UNL     1       0.025  10.257  19.031  0.00  0.00    +0.000 C 
ATOM      6  C   UNL     1       1.412   9.615  18.857  0.00  0.00    +0.000 C 
ATOM      7  N   UNL     1       1.553   8.408  19.678  0.00  0.00    +0.000 N 
ATOM      8  C   UNL     1       1.120   8.469  21.085  0.00  0.00    +0.000 C 
ATOM      9  C   UNL     1       2.111   9.306  21.906  0.00  0.00    +0.000 C 
ATOM     10  C   UNL     1      -0.294   9.080  21.162  0.00  0.00    +0.000 C 
ATOM     11  H   UNL     1      -0.666  11.002  22.749  0.00  0.00    +0.000 HD
ENDROOT
BRANCH   7  12
ATOM     12  C   UNL     1       2.268   7.313  19.242  0.00  0.00    +0.000 A 
ATOM     13  N   UNL     1       3.075   7.456  18.153  0.00  0.00    +0.000 NA
ATOM     14  C   UNL     1       3.865   6.446  17.755  0.00  0.00    +0.000 A 
ATOM     15  N   UNL     1       4.700   6.699  16.684  0.00  0.00    +0.000 N 
ATOM     16  N   UNL     1       3.975   5.244  18.334  0.00  0.00    +0.000 NA
ATOM     17  C   UNL     1       3.135   5.102  19.369  0.00  0.00    +0.000 A 
ATOM     18  C   UNL     1       2.268   6.055  19.864  0.00  0.00    +0.000 A 
ATOM     19  C   UNL     1       1.589   5.396  20.912  0.00  0.00    +0.000 A 
ATOM     20  N   UNL     1       2.019   4.146  21.111  0.00  0.00    +0.000 NA
ATOM     21  N   UNL     1       2.968   3.996  20.159  0.00  0.00    +0.000 N 
ATOM     22  C   UNL     1       3.701   2.759  20.065  0.00  0.00    +0.000 C 
ATOM     23  H   UNL     1       4.849   7.695  16.614  0.00  0.00    +0.000 HD
ATOM     24  H   UNL     1       5.522   6.114  16.749  0.00  0.00    +0.000 HD
ENDBRANCH   7  12
BRANCH   1  28
ATOM     25  C   UNL     1      -3.596  14.488  24.219  0.00  0.00    +0.000 A 
ATOM     26  C   UNL     1      -4.062  13.185  24.115  0.00  0.00    +0.000 A 
ATOM     27  C   UNL     1      -3.290  12.211  23.473  0.00  0.00    +0.000 A 
ATOM     28  C   UNL     1      -2.047  12.516  22.914  0.00  0.00    +0.000 A 
ATOM     29  C   UNL     1      -1.537  13.822  23.069  0.00  0.00    +0.000 A 
ATOM     30  C   UNL     1      -0.184  14.269  22.582  0.00  0.00    +0.000 C 
ATOM     31  C   UNL     1      -2.336  14.796  23.701  0.00  0.00    +0.000 A 
BRANCH  25  33
ATOM     32  C   UNL     1      -3.524  16.742  24.940  0.00  0.00    +0.000 C 
ATOM     33  O   UNL     1      -4.259  15.530  24.804  0.00  0.00    +0.000 OA
ENDBRANCH  25  33
ENDBRANCH   1  28
TORSDOF 3
ENDMDL
MODEL 6
REMARK VINA RESULT:      -7.1      1.939      3.102
REMARK  Name = 
REMARK  7 active torsions:
REMARK  status: ('A' for Active; 'I' for Inactive)
REMARK    1  A    between atoms: C_1  and  O_2
REMARK    2  A    between atoms: O_2  and  C_3
REMARK    3  A    between atoms: C_6  and  N_7
REMARK    4  A    between atoms: N_13  and  C_14
REMARK    5  A    between atoms: N_23  and  C_24
REMARK    6  A    between atoms: C_25  and  C_26
REMARK    7  A    between atoms: C_28  and  C_29
REMARK                            x       y       z     vdW  Elec       q    Type
REMARK                         _______ _______ _______ _____ _____    ______ ____
ROOT
ATOM      1  N   UNL     1       2.757   7.569  18.278  0.00  0.00    +0.000 N 
ATOM      2  C   UNL     1       2.259   7.611  19.564  0.00  0.00    +0.000 C 
ATOM      3  O   UNL     1       2.509   6.801  20.452  0.00  0.00    +0.000 OA
ATOM      4  N   UNL     1       1.447   8.708  19.819  0.00  0.00    +0.000 N 
ATOM      5  C   UNL     1       0.999   8.932  21.197  0.00  0.00    +0.000 C 
ATOM      6  C   UNL     1       0.900  10.427  21.543  0.00  0.00    +0.000 C 
ATOM      7  N   UNL     1       0.213  11.178  20.487  0.00  0.00    +0.000 N 
ATOM      8  C   UNL     1       0.612  10.937  19.090  0.00  0.00    +0.000 C 
ATOM      9  C   UNL     1       1.991  11.555  18.819  0.00  0.00    +0.000 C 
ATOM     10  C   UNL     1       0.640   9.418  18.818  0.00  0.00    +0.000 C 
ATOM     11  H   UNL     1       2.719   8.442  17.783  0.00  0.00    +0.000 HD
ENDROOT
BRANCH   7  12
ATOM     12  C   UNL     1      -0.617  12.241  20.774  0.00  0.00    +0.000 A 
ATOM     13  N   UNL     1      -0.535  13.357  19.995  0.00  0.00    +0.000 NA
ATOM     14  C   UNL     1      -1.392  14.375  20.175  0.00  0.00    +0.000 A 
ATOM     15  N   UNL     1      -1.282  15.438  19.298  0.00  0.00    +0.000 N 
ATOM     16  N   UNL     1      -2.384  14.434  21.071  0.00  0.00    +0.000 NA
ATOM     17  C   UNL     1      -2.414  13.353  21.864  0.00  0.00    +0.000 A 
ATOM     18  C   UNL     1      -1.584  12.253  21.790  0.00  0.00    +0.000 A 
ATOM     19  C   UNL     1      -1.997  11.434  22.863  0.00  0.00    +0.000 A 
ATOM     20  N   UNL     1      -3.038  11.936  23.536  0.00  0.00    +0.000 NA
ATOM     21  N   UNL     1      -3.276  13.105  22.900  0.00  0.00    +0.000 N 
ATOM     22  C   UNL     1      -4.366  13.945  23.325  0.00  0.00    +0.000 C 
ATOM     23  H   UNL     1      -0.836  15.117  18.451  0.00  0.00    +0.000 HD
ATOM     24  H   UNL     1      -2.180  15.891  19.202  0.00  0.00    +0.000 HD
ENDBRANCH   7  12
BRANCH   1  28
ATOM     25  C   UNL     1       5.122   4.604  16.382  0.00  0.00    +0.000 A 
ATOM     26  C   UNL     1       5.633   5.877  16.595  0.00  0.00    +0.000 A 
ATOM     27  C   UNL     1       4.861   6.845  17.246  0.00  0.00    +0.000 A 
ATOM     28  C   UNL     1       3.565   6.570  17.689  0.00  0.00    +0.000 A 
ATOM     29  C   UNL     1       3.060   5.261  17.533  0.00  0.00    +0.000 A 
ATOM     30  C   UNL     1       1.712   4.807  18.026  0.00  0.00    +0.000 C 
ATOM     31  C   UNL     1       3.843   4.303  16.857  0.00  0.00    +0.000 A 
BRANCH  25  33
ATOM     32  C   UNL     1       6.229   3.854  14.429  0.00  0.00    +0.000 C 
ATOM     33  O   UNL     1       5.765   3.580  15.747  0.00  0.00    +0.000 OA
ENDBRANCH  25  33
ENDBRANCH   1  28
TORSDOF 3
ENDMDL
MODEL 7
REMARK VINA RESULT:      -7.0      2.895      9.944
REMARK  Name = 
REMARK  7 active torsions:
REMARK  status: ('A' for Active; 'I' for Inactive)
REMARK    1  A    between atoms: C_1  and  O_2
REMARK    2  A    between atoms: O_2  and  C_3
REMARK    3  A    between atoms: C_6  and  N_7
REMARK    4  A    between atoms: N_13  and  C_14
REMARK    5  A    between atoms: N_23  and  C_24
REMARK    6  A    between atoms: C_25  and  C_26
REMARK    7  A    between atoms: C_28  and  C_29
REMARK                            x       y       z     vdW  Elec       q    Type
REMARK                         _______ _______ _______ _____ _____    ______ ____
ROOT
ATOM      1  N   UNL     1      -1.342  11.670  22.230  0.00  0.00    +0.000 N 
ATOM      2  C   UNL     1      -1.103  11.421  20.895  0.00  0.00    +0.000 C 
ATOM      3  O   UNL     1      -1.416  12.158  19.965  0.00  0.00    +0.000 OA
ATOM      4  N   UNL     1      -0.408  10.243  20.657  0.00  0.00    +0.000 N 
ATOM      5  C   UNL     1       0.037   9.966  19.288  0.00  0.00    +0.000 C 
ATOM      6  C   UNL     1       1.390   9.234  19.250  0.00  0.00    +0.000 C 
ATOM      7  N   UNL     1       1.424   8.119  20.202  0.00  0.00    +0.000 N 
ATOM      8  C   UNL     1       0.937   8.358  21.572  0.00  0.00    +0.000 C 
ATOM      9  C   UNL     1       1.940   9.225  22.345  0.00  0.00    +0.000 C 
ATOM     10  C   UNL     1      -0.441   9.050  21.515  0.00  0.00    +0.000 C 
ATOM     11  H   UNL     1      -0.765  11.151  22.867  0.00  0.00    +0.000 HD
ENDROOT
BRANCH   7  12
ATOM     12  C   UNL     1       2.091   6.945  19.922  0.00  0.00    +0.000 A 
ATOM     13  N   UNL     1       1.903   5.879  20.750  0.00  0.00    +0.000 NA
ATOM     14  C   UNL     1       2.452   4.689  20.460  0.00  0.00    +0.000 A 
ATOM     15  N   UNL     1       2.155   3.645  21.315  0.00  0.00    +0.000 N 
ATOM     16  N   UNL     1       3.200   4.395  19.389  0.00  0.00    +0.000 NA
ATOM     17  C   UNL     1       3.421   5.468  18.616  0.00  0.00    +0.000 A 
ATOM     18  C   UNL     1       2.927   6.742  18.814  0.00  0.00    +0.000 A 
ATOM     19  C   UNL     1       3.483   7.497  17.760  0.00  0.00    +0.000 A 
ATOM     20  N   UNL     1       4.227   6.764  16.925  0.00  0.00    +0.000 NA
ATOM     21  N   UNL     1       4.165   5.528  17.469  0.00  0.00    +0.000 N 
ATOM     22  C   UNL     1       4.836   4.426  16.826  0.00  0.00    +0.000 C 
ATOM     23  H   UNL     1       1.291   3.852  21.796  0.00  0.00    +0.000 HD
ATOM     24  H   UNL     1       2.203   2.770  20.812  0.00  0.00    +0.000 HD
ENDBRANCH   7  12
BRANCH   1  28
ATOM     25  C   UNL     1      -3.539  14.935  23.809  0.00  0.00    +0.000 A 
ATOM     26  C   UNL     1      -4.093  13.663  23.791  0.00  0.00    +0.000 A 
ATOM     27  C   UNL     1      -3.355  12.582  23.296  0.00  0.00    +0.000 A 
ATOM     28  C   UNL     1      -2.059  12.747  22.800  0.00  0.00    +0.000 A 
ATOM     29  C   UNL     1      -1.465  14.025  22.873  0.00  0.00    +0.000 A 
ATOM     30  C   UNL     1      -0.054  14.331  22.444  0.00  0.00    +0.000 C 
ATOM     31  C   UNL     1      -2.229  15.107  23.357  0.00  0.00    +0.000 A 
BRANCH  25  33
ATOM     32  C   UNL     1      -5.577  16.097  24.127  0.00  0.00    +0.000 C 
ATOM     33  O   UNL     1      -4.159  16.070  24.250  0.00  0.00    +0.000 OA
ENDBRANCH  25  33
ENDBRANCH   1  28
TORSDOF 3
ENDMDL
MODEL 8
REMARK VINA RESULT:      -7.0      2.964      4.020
REMARK  Name = 
REMARK  7 active torsions:
REMARK  status: ('A' for Active; 'I' for Inactive)
REMARK    1  A    between atoms: C_1  and  O_2
REMARK    2  A    between atoms: O_2  and  C_3
REMARK    3  A    between atoms: C_6  and  N_7
REMARK    4  A    between atoms: N_13  and  C_14
REMARK    5  A    between atoms: N_23  and  C_24
REMARK    6  A    between atoms: C_25  and  C_26
REMARK    7  A    between atoms: C_28  and  C_29
REMARK                            x       y       z     vdW  Elec       q    Type
REMARK                         _______ _______ _______ _____ _____    ______ ____
ROOT
ATOM      1  N   UNL     1       1.824   7.913  19.559  0.00  0.00    +0.000 N 
ATOM      2  C   UNL     1       1.398   8.598  20.678  0.00  0.00    +0.000 C 
ATOM      3  O   UNL     1       1.445   8.181  21.830  0.00  0.00    +0.000 OA
ATOM      4  N   UNL     1       0.929   9.877  20.410  0.00  0.00    +0.000 N 
ATOM      5  C   UNL     1       0.604  10.747  21.545  0.00  0.00    +0.000 C 
ATOM      6  C   UNL     1       0.931  12.223  21.262  0.00  0.00    +0.000 C 
ATOM      7  N   UNL     1       0.444  12.637  19.942  0.00  0.00    +0.000 N 
ATOM      8  C   UNL     1       0.716  11.758  18.792  0.00  0.00    +0.000 C 
ATOM      9  C   UNL     1       2.202  11.826  18.415  0.00  0.00    +0.000 C 
ATOM     10  C   UNL     1       0.316  10.310  19.146  0.00  0.00    +0.000 C 
ATOM     11  H   UNL     1       2.013   8.488  18.758  0.00  0.00    +0.000 HD
ENDROOT
BRANCH   7  12
ATOM     12  C   UNL     1      -0.052  13.904  19.716  0.00  0.00    +0.000 A 
ATOM     13  N   UNL     1      -1.340  14.170  20.073  0.00  0.00    +0.000 NA
ATOM     14  C   UNL     1      -1.832  15.414  19.963  0.00  0.00    +0.000 A 
ATOM     15  N   UNL     1      -3.125  15.609  20.411  0.00  0.00    +0.000 N 
ATOM     16  N   UNL     1      -1.176  16.497  19.530  0.00  0.00    +0.000 NA
ATOM     17  C   UNL     1       0.071  16.206  19.131  0.00  0.00    +0.000 A 
ATOM     18  C   UNL     1       0.685  14.970  19.179  0.00  0.00    +0.000 A 
ATOM     19  C   UNL     1       1.956  15.192  18.608  0.00  0.00    +0.000 A 
ATOM     20  N   UNL     1       2.165  16.469  18.271  0.00  0.00    +0.000 NA
ATOM     21  N   UNL     1       0.999  17.067  18.608  0.00  0.00    +0.000 N 
ATOM     22  C   UNL     1       0.838  18.485  18.418  0.00  0.00    +0.000 C 
ATOM     23  H   UNL     1      -3.352  14.886  21.078  0.00  0.00    +0.000 HD
ATOM     24  H   UNL     1      -3.238  16.567  20.714  0.00  0.00    +0.000 HD
ENDBRANCH   7  12
BRANCH   1  28
ATOM     25  C   UNL     1       3.379   3.970  19.417  0.00  0.00    +0.000 A 
ATOM     26  C   UNL     1       2.368   4.292  20.311  0.00  0.00    +0.000 A 
ATOM     27  C   UNL     1       1.837   5.586  20.337  0.00  0.00    +0.000 A 
ATOM     28  C   UNL     1       2.307   6.586  19.482  0.00  0.00    +0.000 A 
ATOM     29  C   UNL     1       3.290   6.252  18.526  0.00  0.00    +0.000 A 
ATOM     30  C   UNL     1       3.834   7.208  17.498  0.00  0.00    +0.000 C 
ATOM     31  C   UNL     1       3.828   4.949  18.528  0.00  0.00    +0.000 A 
BRANCH  25  33
ATOM     32  C   UNL     1       3.315   1.785  18.508  0.00  0.00    +0.000 C 
ATOM     33  O   UNL     1       3.990   2.754  19.304  0.00  0.00    +0.000 OA
ENDBRANCH  25  33
ENDBRANCH   1  28
TORSDOF 3
ENDMDL
MODEL 9
REMARK VINA RESULT:      -6.9      2.043      2.832
REMARK  Name = 
REMARK  7 active torsions:
REMARK  status: ('A' for Active; 'I' for Inactive)
REMARK    1  A    between atoms: C_1  and  O_2
REMARK    2  A    between atoms: O_2  and  C_3
REMARK    3  A    between atoms: C_6  and  N_7
REMARK    4  A    between atoms: N_13  and  C_14
REMARK    5  A    between atoms: N_23  and  C_24
REMARK    6  A    between atoms: C_25  and  C_26
REMARK    7  A    between atoms: C_28  and  C_29
REMARK                            x       y       z     vdW  Elec       q    Type
REMARK                         _______ _______ _______ _____ _____    ______ ____
ROOT
ATOM      1  N   UNL     1       0.358  10.237  19.906  0.00  0.00    +0.000 N 
ATOM      2  C   UNL     1      -0.747  10.808  19.311  0.00  0.00    +0.000 C 
ATOM      3  O   UNL     1      -1.211  10.494  18.219  0.00  0.00    +0.000 OA
ATOM      4  N   UNL     1      -1.365  11.782  20.085  0.00  0.00    +0.000 N 
ATOM      5  C   UNL     1      -2.638  12.335  19.615  0.00  0.00    +0.000 C 
ATOM      6  C   UNL     1      -3.594  12.667  20.774  0.00  0.00    +0.000 C 
ATOM      7  N   UNL     1      -2.905  13.394  21.846  0.00  0.00    +0.000 N 
ATOM      8  C   UNL     1      -1.600  12.886  22.303  0.00  0.00    +0.000 C 
ATOM      9  C   UNL     1      -1.789  11.598  23.116  0.00  0.00    +0.000 C 
ATOM     10  C   UNL     1      -0.693  12.625  21.083  0.00  0.00    +0.000 C 
ATOM     11  H   UNL     1       0.420  10.372  20.899  0.00  0.00    +0.000 HD
ENDROOT
BRANCH   7  12
ATOM     12  C   UNL     1      -3.533  14.383  22.573  0.00  0.00    +0.000 A 
ATOM     13  N   UNL     1      -4.805  14.160  23.008  0.00  0.00    +0.000 NA
ATOM     14  C   UNL     1      -5.418  15.052  23.802  0.00  0.00    +0.000 A 
ATOM     15  N   UNL     1      -6.680  14.715  24.252  0.00  0.00    +0.000 N 
ATOM     16  N   UNL     1      -4.903  16.200  24.258  0.00  0.00    +0.000 NA
ATOM     17  C   UNL     1      -3.673  16.429  23.776  0.00  0.00    +0.000 A 
ATOM     18  C   UNL     1      -2.946  15.601  22.944  0.00  0.00    +0.000 A 
ATOM     19  C   UNL     1      -1.753  16.316  22.699  0.00  0.00    +0.000 A 
ATOM     20  N   UNL     1      -1.693  17.478  23.358  0.00  0.00    +0.000 NA
ATOM     21  N   UNL     1      -2.876  17.518  24.013  0.00  0.00    +0.000 N 
ATOM     22  C   UNL     1      -3.183  18.631  24.874  0.00  0.00    +0.000 C 
ATOM     23  H   UNL     1      -6.782  13.712  24.218  0.00  0.00    +0.000 HD
ATOM     24  H   UNL     1      -6.854  15.165  25.140  0.00  0.00    +0.000 HD
ENDBRANCH   7  12
BRANCH   1  28
ATOM     25  C   UNL     1       2.859   7.241  18.249  0.00  0.00    +0.000 A 
ATOM     26  C   UNL     1       2.581   8.395  17.532  0.00  0.00    +0.000 A 
ATOM     27  C   UNL     1       1.779   9.395  18.092  0.00  0.00    +0.000 A 
ATOM     28  C   UNL     1       1.230   9.262  19.370  0.00  0.00    +0.000 A 
ATOM     29  C   UNL     1       1.559   8.120  20.131  0.00  0.00    +0.000 A 
ATOM     30  C   UNL     1       1.098   7.882  21.545  0.00  0.00    +0.000 C 
ATOM     31  C   UNL     1       2.352   7.113  19.544  0.00  0.00    +0.000 A 
BRANCH  25  33
ATOM     32  C   UNL     1       3.109   4.890  18.112  0.00  0.00    +0.000 C 
ATOM     33  O   UNL     1       3.611   6.188  17.810  0.00  0.00    +0.000 OA
ENDBRANCH  25  33
ENDBRANCH   1  28
TORSDOF 3
ENDMDL
