MODEL 1
REMARK VINA RESULT:      -7.4      0.000      0.000
REMARK  Name = 
REMARK  7 active torsions:
REMARK  status: ('A' for Active; 'I' for Inactive)
REMARK    1  A    between atoms: C_1  and  N_2
REMARK    2  A    between atoms: C_3  and  C_5
REMARK    3  A    between atoms: C_5  and  S_6
REMARK    4  A    between atoms: S_6  and  C_7
REMARK    5  A    between atoms: C_7  and  C_8
REMARK    6  A    between atoms: N_10  and  C_11
REMARK    7  A    between atoms: C_14  and  C_15
REMARK                            x       y       z     vdW  Elec       q    Type
REMARK                         _______ _______ _______ _____ _____    ______ ____
ROOT
ATOM      1  C   UNL     1       3.981   5.035  19.385  0.00  0.00    +0.000 C 
ATOM      2  C   UNL     1       4.075   3.489  19.505  0.00  0.00    +0.000 C 
ATOM      3  N   UNL     1       3.583   2.816  18.293  0.00  0.00    +0.000 NA
ATOM      4  C   UNL     1       3.795   1.369  18.371  0.00  0.00    +0.000 C 
ATOM      5  C   UNL     1       2.158   3.099  18.085  0.00  0.00    +0.000 C 
ATOM      6  C   UNL     1       1.925   4.597  17.919  0.00  0.00    +0.000 C 
ATOM      7  C   UNL     1       2.488   5.396  19.110  0.00  0.00    +0.000 C 
ENDROOT
BRANCH   7   8
ATOM      8  C   UNL     1       2.159   6.882  19.061  0.00  0.00    +0.000 A 
ATOM      9  C   UNL     1       1.695   7.523  20.225  0.00  0.00    +0.000 A 
ATOM     10  C   UNL     1       1.367   8.881  20.213  0.00  0.00    +0.000 A 
ATOM     11  C   UNL     1       1.500   9.615  19.038  0.00  0.00    +0.000 A 
ATOM     12 CL   UNL     1       1.084  11.284  19.017  0.00  0.00    +0.000 Cl
ATOM     13  C   UNL     1       1.969   9.008  17.879  0.00  0.00    +0.000 A 
ATOM     14  C   UNL     1       2.296   7.649  17.891  0.00  0.00    +0.000 A 
ENDBRANCH   7   8
BRANCH   1  15
ATOM     15  C   UNL     1       5.029   5.520  18.351  0.00  0.00    +0.000 C 
BRANCH  15  16
ATOM     16  S   UNL     1       6.741   5.605  18.996  0.00  0.00    +0.000 S 
BRANCH  16  17
ATOM     17  C   UNL     1       7.575   4.538  17.770  0.00  0.00    +0.000 C 
BRANCH  17  20
ATOM     18  C   UNL     1       5.947   3.955  14.373  0.00  0.00    +0.000 C 
ATOM     19  N   UNL     1       6.489   3.790  15.697  0.00  0.00    +0.000 N 
ATOM     20  C   UNL     1       7.125   4.835  16.344  0.00  0.00    +0.000 C 
ATOM     21  O   UNL     1       7.400   5.893  15.783  0.00  0.00    +0.000 OA
ATOM     22  H   UNL     1       6.091   3.075  16.301  0.00  0.00    +0.000 HD
ENDBRANCH  17  20
ENDBRANCH  16  17
ENDBRANCH  15  16
ENDBRANCH   1  15
TORSDOF 5
ENDMDL
MODEL 2
REMARK VINA RESULT:      -7.3      0.119      1.059
REMARK  Name = 
REMARK  7 active torsions:
REMARK  status: ('A' for Active; 'I' for Inactive)
REMARK    1  A    between atoms: C_1  and  N_2
REMARK    2  A    between atoms: C_3  and  C_5
REMARK    3  A    between atoms: C_5  and  S_6
REMARK    4  A    between atoms: S_6  and  C_7
REMARK    5  A    between atoms: C_7  and  C_8
REMARK    6  A    between atoms: N_10  and  C_11
REMARK    7  A    between atoms: C_14  and  C_15
REMARK                            x       y       z     vdW  Elec       q    Type
REMARK                         _______ _______ _______ _____ _____    ______ ____
ROOT
ATOM      1  C   UNL     1       3.991   5.070  19.381  0.00  0.00    +0.000 C 
ATOM      2  C   UNL     1       4.105   3.526  19.497  0.00  0.00    +0.000 C 
ATOM      3  N   UNL     1       3.571   2.847  18.306  0.00  0.00    +0.000 NA
ATOM      4  C   UNL     1       3.800   1.402  18.375  0.00  0.00    +0.000 C 
ATOM      5  C   UNL     1       2.136   3.117  18.155  0.00  0.00    +0.000 C 
ATOM      6  C   UNL     1       1.882   4.613  17.999  0.00  0.00    +0.000 C 
ATOM      7  C   UNL     1       2.485   5.417  19.166  0.00  0.00    +0.000 C 
ENDROOT
BRANCH   7   8
ATOM      8  C   UNL     1       2.141   6.900  19.131  0.00  0.00    +0.000 A 
ATOM      9  C   UNL     1       2.274   7.609  17.924  0.00  0.00    +0.000 A 
ATOM     10  C   UNL     1       1.984   8.974  17.858  0.00  0.00    +0.000 A 
ATOM     11  C   UNL     1       1.557   9.647  18.999  0.00  0.00    +0.000 A 
ATOM     12 CL   UNL     1       1.211  11.331  18.926  0.00  0.00    +0.000 Cl
ATOM     13  C   UNL     1       1.405   8.965  20.201  0.00  0.00    +0.000 A 
ATOM     14  C   UNL     1       1.696   7.600  20.266  0.00  0.00    +0.000 A 
ENDBRANCH   7   8
BRANCH   1  15
ATOM     15  C   UNL     1       4.992   5.565  18.306  0.00  0.00    +0.000 C 
BRANCH  15  16
ATOM     16  S   UNL     1       6.734   5.624  18.868  0.00  0.00    +0.000 S 
BRANCH  16  17
ATOM     17  C   UNL     1       7.486   4.513  17.628  0.00  0.00    +0.000 C 
BRANCH  17  20
ATOM     18  C   UNL     1       5.957   4.123  14.158  0.00  0.00    +0.000 C 
ATOM     19  N   UNL     1       6.452   3.886  15.490  0.00  0.00    +0.000 N 
ATOM     20  C   UNL     1       7.090   4.885  16.204  0.00  0.00    +0.000 C 
ATOM     21  O   UNL     1       7.407   5.960  15.700  0.00  0.00    +0.000 OA
ATOM     22  H   UNL     1       6.018   3.154  16.047  0.00  0.00    +0.000 HD
ENDBRANCH  17  20
ENDBRANCH  16  17
ENDBRANCH  15  16
ENDBRANCH   1  15
TORSDOF 5
ENDMDL
MODEL 3
REMARK VINA RESULT:      -7.1      1.026      1.154
REMARK  Name = 
REMARK  7 active torsions:
REMARK  status: ('A' for Active; 'I' for Inactive)
REMARK    1  A    between atoms: C_1  and  N_2
REMARK    2  A    between atoms: C_3  and  C_5
REMARK    3  A    between atoms: C_5  and  S_6
REMARK    4  A    between atoms: S_6  and  C_7
REMARK    5  A    between atoms: C_7  and  C_8
REMARK    6  A    between atoms: N_10  and  C_11
REMARK    7  A    between atoms: C_14  and  C_15
REMARK                            x       y       z     vdW  Elec       q    Type
REMARK                         _______ _______ _______ _____ _____    ______ ____
ROOT
ATOM      1  C   UNL     1       4.146   5.409  19.025  0.00  0.00    +0.000 C 
ATOM      2  C   UNL     1       4.410   3.903  19.301  0.00  0.00    +0.000 C 
ATOM      3  N   UNL     1       3.551   3.037  18.478  0.00  0.00    +0.000 NA
ATOM      4  C   UNL     1       3.899   1.626  18.657  0.00  0.00    +0.000 C 
ATOM      5  C   UNL     1       2.136   3.246  18.810  0.00  0.00    +0.000 C 
ATOM      6  C   UNL     1       1.731   4.694  18.554  0.00  0.00    +0.000 C 
ATOM      7  C   UNL     1       2.637   5.682  19.312  0.00  0.00    +0.000 C 
ENDROOT
BRANCH   7   8
ATOM      8  C   UNL     1       2.189   7.134  19.200  0.00  0.00    +0.000 A 
ATOM      9  C   UNL     1       1.671   7.782  20.336  0.00  0.00    +0.000 A 
ATOM     10  C   UNL     1       1.234   9.108  20.267  0.00  0.00    +0.000 A 
ATOM     11  C   UNL     1       1.311   9.801  19.063  0.00  0.00    +0.000 A 
ATOM     12 CL   UNL     1       0.762  11.428  18.971  0.00  0.00    +0.000 Cl
ATOM     13  C   UNL     1       1.832   9.185  17.930  0.00  0.00    +0.000 A 
ATOM     14  C   UNL     1       2.268   7.859  18.000  0.00  0.00    +0.000 A 
ENDBRANCH   7   8
BRANCH   1  15
ATOM     15  C   UNL     1       4.672   5.756  17.609  0.00  0.00    +0.000 C 
BRANCH  15  16
ATOM     16  S   UNL     1       6.376   5.175  17.274  0.00  0.00    +0.000 S 
BRANCH  16  17
ATOM     17  C   UNL     1       6.023   3.954  15.962  0.00  0.00    +0.000 C 
BRANCH  17  20
ATOM     18  C   UNL     1       6.774   3.828  12.226  0.00  0.00    +0.000 C 
ATOM     19  N   UNL     1       6.308   3.535  13.558  0.00  0.00    +0.000 N 
ATOM     20  C   UNL     1       6.655   4.340  14.629  0.00  0.00    +0.000 C 
ATOM     21  O   UNL     1       7.488   5.239  14.540  0.00  0.00    +0.000 OA
ATOM     22  H   UNL     1       5.450   3.002  13.667  0.00  0.00    +0.000 HD
ENDBRANCH  17  20
ENDBRANCH  16  17
ENDBRANCH  15  16
ENDBRANCH   1  15
TORSDOF 5
ENDMDL
MODEL 4
REMARK VINA RESULT:      -7.1      1.417      1.859
REMARK  Name = 
REMARK  7 active torsions:
REMARK  status: ('A' for Active; 'I' for Inactive)
REMARK    1  A    between atoms: C_1  and  N_2
REMARK    2  A    between atoms: C_3  and  C_5
REMARK    3  A    between atoms: C_5  and  S_6
REMARK    4  A    between atoms: S_6  and  C_7
REMARK    5  A    between atoms: C_7  and  C_8
REMARK    6  A    between atoms: N_10  and  C_11
REMARK    7  A    between atoms: C_14  and  C_15
REMARK                            x       y       z     vdW  Elec       q    Type
REMARK                         _______ _______ _______ _____ _____    ______ ____
ROOT
ATOM      1  C   UNL     1       4.199   5.576  18.887  0.00  0.00    +0.000 C 
ATOM      2  C   UNL     1       4.807   4.242  19.399  0.00  0.00    +0.000 C 
ATOM      3  N   UNL     1       3.825   3.146  19.368  0.00  0.00    +0.000 NA
ATOM      4  C   UNL     1       4.446   1.871  19.734  0.00  0.00    +0.000 C 
ATOM      5  C   UNL     1       2.704   3.430  20.271  0.00  0.00    +0.000 C 
ATOM      6  C   UNL     1       1.991   4.714  19.859  0.00  0.00    +0.000 C 
ATOM      7  C   UNL     1       2.964   5.906  19.781  0.00  0.00    +0.000 C 
ENDROOT
BRANCH   7   8
ATOM      8  C   UNL     1       2.280   7.239  19.509  0.00  0.00    +0.000 A 
ATOM      9  C   UNL     1       2.335   7.789  18.215  0.00  0.00    +0.000 A 
ATOM     10  C   UNL     1       1.735   9.019  17.933  0.00  0.00    +0.000 A 
ATOM     11  C   UNL     1       1.071   9.713  18.941  0.00  0.00    +0.000 A 
ATOM     12 CL   UNL     1       0.341  11.233  18.600  0.00  0.00    +0.000 Cl
ATOM     13  C   UNL     1       0.991   9.183  20.224  0.00  0.00    +0.000 A 
ATOM     14  C   UNL     1       1.593   7.953  20.505  0.00  0.00    +0.000 A 
ENDBRANCH   7   8
BRANCH   1  15
ATOM     15  C   UNL     1       3.958   5.461  17.360  0.00  0.00    +0.000 C 
BRANCH  15  16
ATOM     16  S   UNL     1       5.294   6.172  16.330  0.00  0.00    +0.000 S 
BRANCH  16  17
ATOM     17  C   UNL     1       6.228   4.647  15.957  0.00  0.00    +0.000 C 
BRANCH  17  20
ATOM     18  C   UNL     1       6.548   3.537  12.325  0.00  0.00    +0.000 C 
ATOM     19  N   UNL     1       6.206   3.632  13.721  0.00  0.00    +0.000 N 
ATOM     20  C   UNL     1       6.744   4.622  14.523  0.00  0.00    +0.000 C 
ATOM     21  O   UNL     1       7.646   5.365  14.143  0.00  0.00    +0.000 OA
ATOM     22  H   UNL     1       5.316   3.248  14.031  0.00  0.00    +0.000 HD
ENDBRANCH  17  20
ENDBRANCH  16  17
ENDBRANCH  15  16
ENDBRANCH   1  15
TORSDOF 5
ENDMDL
MODEL 5
REMARK VINA RESULT:      -6.9      1.706      2.365
REMARK  Name = 
REMARK  7 active torsions:
REMARK  status: ('A' for Active; 'I' for Inactive)
REMARK    1  A    between atoms: C_1  and  N_2
REMARK    2  A    between atoms: C_3  and  C_5
REMARK    3  A    between atoms: C_5  and  S_6
REMARK    4  A    between atoms: S_6  and  C_7
REMARK    5  A    between atoms: C_7  and  C_8
REMARK    6  A    between atoms: N_10  and  C_11
REMARK    7  A    between atoms: C_14  and  C_15
REMARK                            x       y       z     vdW  Elec       q    Type
REMARK                         _______ _______ _______ _____ _____    ______ ____
ROOT
ATOM      1  C   UNL     1       4.045   5.595  18.898  0.00  0.00    +0.000 C 
ATOM      2  C   UNL     1       4.713   4.306  19.451  0.00  0.00    +0.000 C 
ATOM      3  N   UNL     1       3.731   3.232  19.669  0.00  0.00    +0.000 NA
ATOM      4  C   UNL     1       4.391   1.988  20.069  0.00  0.00    +0.000 C 
ATOM      5  C   UNL     1       2.750   3.625  20.687  0.00  0.00    +0.000 C 
ATOM      6  C   UNL     1       1.993   4.875  20.253  0.00  0.00    +0.000 C 
ATOM      7  C   UNL     1       2.951   6.035  19.919  0.00  0.00    +0.000 C 
ENDROOT
BRANCH   7   8
ATOM      8  C   UNL     1       2.242   7.347  19.613  0.00  0.00    +0.000 A 
ATOM      9  C   UNL     1       2.329   7.891  18.319  0.00  0.00    +0.000 A 
ATOM     10  C   UNL     1       1.707   9.103  18.007  0.00  0.00    +0.000 A 
ATOM     11  C   UNL     1       0.989   9.784  18.985  0.00  0.00    +0.000 A 
ATOM     12 CL   UNL     1       0.232  11.282  18.608  0.00  0.00    +0.000 Cl
ATOM     13  C   UNL     1       0.877   9.260  20.268  0.00  0.00    +0.000 A 
ATOM     14  C   UNL     1       1.500   8.049  20.579  0.00  0.00    +0.000 A 
ENDBRANCH   7   8
BRANCH   1  15
ATOM     15  C   UNL     1       3.589   5.334  17.440  0.00  0.00    +0.000 C 
BRANCH  15  16
ATOM     16  S   UNL     1       4.639   4.147  16.522  0.00  0.00    +0.000 S 
BRANCH  16  17
ATOM     17  C   UNL     1       5.755   5.323  15.680  0.00  0.00    +0.000 C 
BRANCH  17  20
ATOM     18  C   UNL     1       7.791   7.831  17.703  0.00  0.00    +0.000 C 
ATOM     19  N   UNL     1       6.857   7.213  16.798  0.00  0.00    +0.000 N 
ATOM     20  C   UNL     1       6.850   5.842  16.604  0.00  0.00    +0.000 C 
ATOM     21  O   UNL     1       7.721   5.105  17.058  0.00  0.00    +0.000 OA
ATOM     22  H   UNL     1       5.981   7.690  16.601  0.00  0.00    +0.000 HD
ENDBRANCH  17  20
ENDBRANCH  16  17
ENDBRANCH  15  16
ENDBRANCH   1  15
TORSDOF 5
ENDMDL
MODEL 6
REMARK VINA RESULT:      -6.8      1.588      2.034
REMARK  Name = 
REMARK  7 active torsions:
REMARK  status: ('A' for Active; 'I' for Inactive)
REMARK    1  A    between atoms: C_1  and  N_2
REMARK    2  A    between atoms: C_3  and  C_5
REMARK    3  A    between atoms: C_5  and  S_6
REMARK    4  A    between atoms: S_6  and  C_7
REMARK    5  A    between atoms: C_7  and  C_8
REMARK    6  A    between atoms: N_10  and  C_11
REMARK    7  A    between atoms: C_14  and  C_15
REMARK                            x       y       z     vdW  Elec       q    Type
REMARK                         _______ _______ _______ _____ _____    ______ ____
ROOT
ATOM      1  C   UNL     1       4.118   5.648  18.887  0.00  0.00    +0.000 C 
ATOM      2  C   UNL     1       4.688   4.308  19.427  0.00  0.00    +0.000 C 
ATOM      3  N   UNL     1       3.685   3.232  19.390  0.00  0.00    +0.000 NA
ATOM      4  C   UNL     1       4.272   1.949  19.783  0.00  0.00    +0.000 C 
ATOM      5  C   UNL     1       2.551   3.549  20.267  0.00  0.00    +0.000 C 
ATOM      6  C   UNL     1       1.873   4.842  19.826  0.00  0.00    +0.000 C 
ATOM      7  C   UNL     1       2.872   6.013  19.752  0.00  0.00    +0.000 C 
ENDROOT
BRANCH   7   8
ATOM      8  C   UNL     1       2.221   7.356  19.451  0.00  0.00    +0.000 A 
ATOM      9  C   UNL     1       1.572   8.054  20.486  0.00  0.00    +0.000 A 
ATOM     10  C   UNL     1       0.948   9.280  20.243  0.00  0.00    +0.000 A 
ATOM     11  C   UNL     1       0.967   9.825  18.962  0.00  0.00    +0.000 A 
ATOM     12 CL   UNL     1       0.189  11.328  18.655  0.00  0.00    +0.000 Cl
ATOM     13  C   UNL     1       1.614   9.160  17.925  0.00  0.00    +0.000 A 
ATOM     14  C   UNL     1       2.236   7.933  18.170  0.00  0.00    +0.000 A 
ENDBRANCH   7   8
BRANCH   1  15
ATOM     15  C   UNL     1       3.904   5.518  17.357  0.00  0.00    +0.000 C 
BRANCH  15  16
ATOM     16  S   UNL     1       5.027   6.555  16.349  0.00  0.00    +0.000 S 
BRANCH  16  17
ATOM     17  C   UNL     1       6.308   5.313  15.955  0.00  0.00    +0.000 C 
BRANCH  17  20
ATOM     18  C   UNL     1       8.174   6.081  19.188  0.00  0.00    +0.000 C 
ATOM     19  N   UNL     1       7.333   6.157  18.021  0.00  0.00    +0.000 N 
ATOM     20  C   UNL     1       7.303   5.130  17.094  0.00  0.00    +0.000 C 
ATOM     21  O   UNL     1       8.089   4.186  17.125  0.00  0.00    +0.000 OA
ATOM     22  H   UNL     1       6.503   6.743  18.056  0.00  0.00    +0.000 HD
ENDBRANCH  17  20
ENDBRANCH  16  17
ENDBRANCH  15  16
ENDBRANCH   1  15
TORSDOF 5
ENDMDL
MODEL 7
REMARK VINA RESULT:      -6.8      1.901      2.233
REMARK  Name = 
REMARK  7 active torsions:
REMARK  status: ('A' for Active; 'I' for Inactive)
REMARK    1  A    between atoms: C_1  and  N_2
REMARK    2  A    between atoms: C_3  and  C_5
REMARK    3  A    between atoms: C_5  and  S_6
REMARK    4  A    between atoms: S_6  and  C_7
REMARK    5  A    between atoms: C_7  and  C_8
REMARK    6  A    between atoms: N_10  and  C_11
REMARK    7  A    between atoms: C_14  and  C_15
REMARK                            x       y       z     vdW  Elec       q    Type
REMARK                         _______ _______ _______ _____ _____    ______ ____
ROOT
ATOM      1  C   UNL     1       4.247   5.074  18.895  0.00  0.00    +0.000 C 
ATOM      2  C   UNL     1       4.460   3.558  19.161  0.00  0.00    +0.000 C 
ATOM      3  N   UNL     1       3.587   2.727  18.318  0.00  0.00    +0.000 NA
ATOM      4  C   UNL     1       3.888   1.304  18.489  0.00  0.00    +0.000 C 
ATOM      5  C   UNL     1       2.175   2.977  18.630  0.00  0.00    +0.000 C 
ATOM      6  C   UNL     1       1.818   4.439  18.381  0.00  0.00    +0.000 C 
ATOM      7  C   UNL     1       2.743   5.392  19.161  0.00  0.00    +0.000 C 
ENDROOT
BRANCH   7   8
ATOM      8  C   UNL     1       2.343   6.857  19.057  0.00  0.00    +0.000 A 
ATOM      9  C   UNL     1       1.821   7.510  20.188  0.00  0.00    +0.000 A 
ATOM     10  C   UNL     1       1.426   8.849  20.125  0.00  0.00    +0.000 A 
ATOM     11  C   UNL     1       1.550   9.552  18.930  0.00  0.00    +0.000 A 
ATOM     12 CL   UNL     1       1.053  11.196  18.845  0.00  0.00    +0.000 Cl
ATOM     13  C   UNL     1       2.075   8.932  17.802  0.00  0.00    +0.000 A 
ATOM     14  C   UNL     1       2.469   7.593  17.866  0.00  0.00    +0.000 A 
ENDBRANCH   7   8
BRANCH   1  15
ATOM     15  C   UNL     1       4.805   5.417  17.490  0.00  0.00    +0.000 C 
BRANCH  15  16
ATOM     16  S   UNL     1       6.500   4.796  17.180  0.00  0.00    +0.000 S 
BRANCH  16  17
ATOM     17  C   UNL     1       7.419   5.824  18.378  0.00  0.00    +0.000 C 
BRANCH  17  20
ATOM     18  C   UNL     1       8.705   9.412  18.340  0.00  0.00    +0.000 C 
ATOM     19  N   UNL     1       8.337   8.075  18.730  0.00  0.00    +0.000 N 
ATOM     20  C   UNL     1       7.672   7.233  17.856  0.00  0.00    +0.000 C 
ATOM     21  O   UNL     1       7.226   7.617  16.777  0.00  0.00    +0.000 OA
ATOM     22  H   UNL     1       8.873   7.616  19.462  0.00  0.00    +0.000 HD
ENDBRANCH  17  20
ENDBRANCH  16  17
ENDBRANCH  15  16
ENDBRANCH   1  15
TORSDOF 5
ENDMDL
MODEL 8
REMARK VINA RESULT:      -6.8      1.700      2.271
REMARK  Name = 
REMARK  7 active torsions:
REMARK  status: ('A' for Active; 'I' for Inactive)
REMARK    1  A    between atoms: C_1  and  N_2
REMARK    2  A    between atoms: C_3  and  C_5
REMARK    3  A    between atoms: C_5  and  S_6
REMARK    4  A    between atoms: S_6  and  C_7
REMARK    5  A    between atoms: C_7  and  C_8
REMARK    6  A    between atoms: N_10  and  C_11
REMARK    7  A    between atoms: C_14  and  C_15
REMARK                            x       y       z     vdW  Elec       q    Type
REMARK                         _______ _______ _______ _____ _____    ______ ____
ROOT
ATOM      1  C   UNL     1       3.725   5.097  19.612  0.00  0.00    +0.000 C 
ATOM      2  C   UNL     1       3.794   3.546  19.663  0.00  0.00    +0.000 C 
ATOM      3  N   UNL     1       3.449   2.941  18.367  0.00  0.00    +0.000 NA
ATOM      4  C   UNL     1       3.641   1.489  18.395  0.00  0.00    +0.000 C 
ATOM      5  C   UNL     1       2.062   3.252  18.002  0.00  0.00    +0.000 C 
ATOM      6  C   UNL     1       1.860   4.760  17.887  0.00  0.00    +0.000 C 
ATOM      7  C   UNL     1       2.279   5.491  19.177  0.00  0.00    +0.000 C 
ENDROOT
BRANCH   7   8
ATOM      8  C   UNL     1       1.968   6.981  19.166  0.00  0.00    +0.000 A 
ATOM      9  C   UNL     1       2.081   7.698  17.961  0.00  0.00    +0.000 A 
ATOM     10  C   UNL     1       1.821   9.070  17.916  0.00  0.00    +0.000 A 
ATOM     11  C   UNL     1       1.445   9.742  19.076  0.00  0.00    +0.000 A 
ATOM     12 CL   UNL     1       1.137  11.434  19.028  0.00  0.00    +0.000 Cl
ATOM     13  C   UNL     1       1.314   9.053  20.276  0.00  0.00    +0.000 A 
ATOM     14  C   UNL     1       1.575   7.680  20.320  0.00  0.00    +0.000 A 
ENDBRANCH   7   8
BRANCH   1  15
ATOM     15  C   UNL     1       4.894   5.620  18.740  0.00  0.00    +0.000 C 
BRANCH  15  16
ATOM     16  S   UNL     1       6.555   5.110  19.320  0.00  0.00    +0.000 S 
BRANCH  16  17
ATOM     17  C   UNL     1       7.530   5.517  17.829  0.00  0.00    +0.000 C 
BRANCH  17  20
ATOM     18  C   UNL     1       8.304   9.242  18.064  0.00  0.00    +0.000 C 
ATOM     19  N   UNL     1       8.211   7.826  18.315  0.00  0.00    +0.000 N 
ATOM     20  C   UNL     1       7.470   7.001  17.487  0.00  0.00    +0.000 C 
ATOM     21  O   UNL     1       6.735   7.436  16.604  0.00  0.00    +0.000 OA
ATOM     22  H   UNL     1       8.960   7.373  18.833  0.00  0.00    +0.000 HD
ENDBRANCH  17  20
ENDBRANCH  16  17
ENDBRANCH  15  16
ENDBRANCH   1  15
TORSDOF 5
ENDMDL
MODEL 9
REMARK VINA RESULT:      -6.8      1.607      1.943
REMARK  Name = 
REMARK  7 active torsions:
REMARK  status: ('A' for Active; 'I' for Inactive)
REMARK    1  A    between atoms: C_1  and  N_2
REMARK    2  A    between atoms: C_3  and  C_5
REMARK    3  A    between atoms: C_5  and  S_6
REMARK    4  A    between atoms: S_6  and  C_7
REMARK    5  A    between atoms: C_7  and  C_8
REMARK    6  A    between atoms: N_10  and  C_11
REMARK    7  A    between atoms: C_14  and  C_15
REMARK                            x       y       z     vdW  Elec       q    Type
REMARK                         _______ _______ _______ _____ _____    ______ ____
ROOT
ATOM      1  C   UNL     1       4.089   5.160  18.662  0.00  0.00    +0.000 C 
ATOM      2  C   UNL     1       4.387   3.668  18.973  0.00  0.00    +0.000 C 
ATOM      3  N   UNL     1       3.361   2.776  18.410  0.00  0.00    +0.000 NA
ATOM      4  C   UNL     1       3.722   1.370  18.602  0.00  0.00    +0.000 C 
ATOM      5  C   UNL     1       2.053   3.042  19.021  0.00  0.00    +0.000 C 
ATOM      6  C   UNL     1       1.620   4.481  18.763  0.00  0.00    +0.000 C 
ATOM      7  C   UNL     1       2.679   5.490  19.245  0.00  0.00    +0.000 C 
ENDROOT
BRANCH   7   8
ATOM      8  C   UNL     1       2.236   6.943  19.138  0.00  0.00    +0.000 A 
ATOM      9  C   UNL     1       1.737   7.596  20.280  0.00  0.00    +0.000 A 
ATOM     10  C   UNL     1       1.304   8.923  20.215  0.00  0.00    +0.000 A 
ATOM     11  C   UNL     1       1.367   9.614  19.008  0.00  0.00    +0.000 A 
ATOM     12 CL   UNL     1       0.824  11.243  18.921  0.00  0.00    +0.000 Cl
ATOM     13  C   UNL     1       1.869   8.994  17.869  0.00  0.00    +0.000 A 
ATOM     14  C   UNL     1       2.300   7.666  17.935  0.00  0.00    +0.000 A 
ENDBRANCH   7   8
BRANCH   1  15
ATOM     15  C   UNL     1       4.304   5.408  17.148  0.00  0.00    +0.000 C 
BRANCH  15  16
ATOM     16  S   UNL     1       5.406   4.192  16.334  0.00  0.00    +0.000 S 
BRANCH  16  17
ATOM     17  C   UNL     1       6.777   5.302  15.860  0.00  0.00    +0.000 C 
BRANCH  17  20
ATOM     18  C   UNL     1       7.918   8.334  17.869  0.00  0.00    +0.000 C 
ATOM     19  N   UNL     1       7.488   7.450  16.816  0.00  0.00    +0.000 N 
ATOM     20  C   UNL     1       7.313   6.097  17.045  0.00  0.00    +0.000 C 
ATOM     21  O   UNL     1       7.657   5.552  18.091  0.00  0.00    +0.000 OA
ATOM     22  H   UNL     1       6.955   7.839  16.042  0.00  0.00    +0.000 HD
ENDBRANCH  17  20
ENDBRANCH  16  17
ENDBRANCH  15  16
ENDBRANCH   1  15
TORSDOF 5
ENDMDL
