MODEL 1
REMARK VINA RESULT:      -8.0      0.000      0.000
REMARK  Name = 
REMARK  4 active torsions:
REMARK  status: ('A' for Active; 'I' for Inactive)
REMARK    1  A    between atoms: C_1  and  C_2
REMARK    2  A    between atoms: C_2  and  C_3
REMARK    3  A    between atoms: N_7  and  C_8
REMARK    4  A    between atoms: C_8  and  C_9
REMARK                            x       y       z     vdW  Elec       q    Type
REMARK                         _______ _______ _______ _____ _____    ______ ____
ROOT
ATOM      1  C   UNL     1       5.158   4.979  18.232  0.00  0.00    +0.000 C 
ENDROOT
BRANCH   1   2
ATOM      2  C   UNL     1       3.703   5.513  18.309  0.00  0.00    +0.000 C 
ATOM      3  O   UNL     1       3.710   6.542  19.330  0.00  0.00    +0.000 OA
ATOM      4  C   UNL     1       2.395   6.908  19.742  0.00  0.00    +0.000 C 
ATOM      5  C   UNL     1       1.755   5.749  20.493  0.00  0.00    +0.000 C 
ATOM      6  C   UNL     1       1.793   4.495  19.660  0.00  0.00    +0.000 A 
ATOM      7  C   UNL     1       0.950   3.422  19.967  0.00  0.00    +0.000 A 
ATOM      8  C   UNL     1       0.977   2.260  19.198  0.00  0.00    +0.000 A 
ATOM      9  C   UNL     1       1.832   2.173  18.104  0.00  0.00    +0.000 A 
ATOM     10  C   UNL     1       2.685   3.233  17.799  0.00  0.00    +0.000 A 
ATOM     11  C   UNL     1       2.712   4.388  18.599  0.00  0.00    +0.000 A 
ENDBRANCH   1   2
BRANCH   1  16
ATOM     12  C   UNL     1       6.446   4.255  13.623  0.00  0.00    +0.000 A 
ATOM     13  C   UNL     1       5.257   4.174  14.310  0.00  0.00    +0.000 A 
ATOM     14  N   UNL     1       5.051   4.725  15.521  0.00  0.00    +0.000 NA
ATOM     15  C   UNL     1       6.084   5.373  16.080  0.00  0.00    +0.000 A 
ATOM     16  N   UNL     1       5.999   5.837  17.391  0.00  0.00    +0.000 N 
ATOM     17  N   UNL     1       7.266   5.551  15.477  0.00  0.00    +0.000 NA
ATOM     18  C   UNL     1       7.417   4.998  14.257  0.00  0.00    +0.000 A 
ATOM     19  H   UNL     1       6.966   5.881  17.708  0.00  0.00    +0.000 HD
BRANCH  12  21
ATOM     20  C   UNL     1       5.463   2.780  11.848  0.00  0.00    +0.000 C 
ATOM     21  C   UNL     1       6.666   3.585  12.304  0.00  0.00    +0.000 C 
ENDBRANCH  12  21
ENDBRANCH   1  16
TORSDOF 3
ENDMDL
MODEL 2
REMARK VINA RESULT:      -7.5      2.315      3.780
REMARK  Name = 
REMARK  4 active torsions:
REMARK  status: ('A' for Active; 'I' for Inactive)
REMARK    1  A    between atoms: C_1  and  C_2
REMARK    2  A    between atoms: C_2  and  C_3
REMARK    3  A    between atoms: N_7  and  C_8
REMARK    4  A    between atoms: C_8  and  C_9
REMARK                            x       y       z     vdW  Elec       q    Type
REMARK                         _______ _______ _______ _____ _____    ______ ____
ROOT
ATOM      1  C   UNL     1       4.763   3.915  17.366  0.00  0.00    +0.000 C 
ENDROOT
BRANCH   1   2
ATOM      2  C   UNL     1       3.411   4.659  17.525  0.00  0.00    +0.000 C 
ATOM      3  O   UNL     1       3.745   6.054  17.733  0.00  0.00    +0.000 OA
ATOM      4  C   UNL     1       2.637   6.813  18.209  0.00  0.00    +0.000 C 
ATOM      5  C   UNL     1       2.290   6.378  19.626  0.00  0.00    +0.000 C 
ATOM      6  C   UNL     1       2.061   4.890  19.678  0.00  0.00    +0.000 A 
ATOM      7  C   UNL     1       1.376   4.322  20.758  0.00  0.00    +0.000 A 
ATOM      8  C   UNL     1       1.158   2.947  20.811  0.00  0.00    +0.000 A 
ATOM      9  C   UNL     1       1.605   2.134  19.775  0.00  0.00    +0.000 A 
ATOM     10  C   UNL     1       2.300   2.690  18.703  0.00  0.00    +0.000 A 
ATOM     11  C   UNL     1       2.580   4.066  18.661  0.00  0.00    +0.000 A 
ENDBRANCH   1   2
BRANCH   1  16
ATOM     12  C   UNL     1       8.000   7.413  18.201  0.00  0.00    +0.000 A 
ATOM     13  C   UNL     1       7.708   6.213  18.808  0.00  0.00    +0.000 A 
ATOM     14  N   UNL     1       6.983   5.237  18.229  0.00  0.00    +0.000 NA
ATOM     15  C   UNL     1       6.513   5.477  16.994  0.00  0.00    +0.000 A 
ATOM     16  N   UNL     1       5.630   4.584  16.391  0.00  0.00    +0.000 N 
ATOM     17  N   UNL     1       6.780   6.589  16.299  0.00  0.00    +0.000 NA
ATOM     18  C   UNL     1       7.528   7.527  16.913  0.00  0.00    +0.000 A 
ATOM     19  H   UNL     1       5.114   5.151  15.721  0.00  0.00    +0.000 HD
BRANCH  12  21
ATOM     20  C   UNL     1       8.601   9.849  18.205  0.00  0.00    +0.000 C 
ATOM     21  C   UNL     1       8.761   8.502  18.888  0.00  0.00    +0.000 C 
ENDBRANCH  12  21
ENDBRANCH   1  16
TORSDOF 3
ENDMDL
MODEL 3
REMARK VINA RESULT:      -7.4      1.195      1.404
REMARK  Name = 
REMARK  4 active torsions:
REMARK  status: ('A' for Active; 'I' for Inactive)
REMARK    1  A    between atoms: C_1  and  C_2
REMARK    2  A    between atoms: C_2  and  C_3
REMARK    3  A    between atoms: N_7  and  C_8
REMARK    4  A    between atoms: C_8  and  C_9
REMARK                            x       y       z     vdW  Elec       q    Type
REMARK                         _______ _______ _______ _____ _____    ______ ____
ROOT
ATOM      1  C   UNL     1       3.568   6.745  17.692  0.00  0.00    +0.000 C 
ENDROOT
BRANCH   1   2
ATOM      2  C   UNL     1       2.347   6.288  18.531  0.00  0.00    +0.000 C 
ATOM      3  O   UNL     1       2.498   6.914  19.830  0.00  0.00    +0.000 OA
ATOM      4  C   UNL     1       1.633   6.348  20.811  0.00  0.00    +0.000 C 
ATOM      5  C   UNL     1       2.072   4.922  21.116  0.00  0.00    +0.000 C 
ATOM      6  C   UNL     1       2.150   4.112  19.849  0.00  0.00    +0.000 A 
ATOM      7  C   UNL     1       2.160   2.714  19.908  0.00  0.00    +0.000 A 
ATOM      8  C   UNL     1       2.228   1.958  18.739  0.00  0.00    +0.000 A 
ATOM      9  C   UNL     1       2.266   2.595  17.503  0.00  0.00    +0.000 A 
ATOM     10  C   UNL     1       2.270   3.988  17.436  0.00  0.00    +0.000 A 
ATOM     11  C   UNL     1       2.261   4.765  18.607  0.00  0.00    +0.000 A 
ENDBRANCH   1   2
BRANCH   1  16
ATOM     12  C   UNL     1       6.126   4.355  14.350  0.00  0.00    +0.000 A 
ATOM     13  C   UNL     1       5.659   5.645  14.459  0.00  0.00    +0.000 A 
ATOM     14  N   UNL     1       5.244   6.197  15.614  0.00  0.00    +0.000 NA
ATOM     15  C   UNL     1       5.278   5.421  16.709  0.00  0.00    +0.000 A 
ATOM     16  N   UNL     1       4.723   5.867  17.906  0.00  0.00    +0.000 N 
ATOM     17  N   UNL     1       5.758   4.171  16.720  0.00  0.00    +0.000 NA
ATOM     18  C   UNL     1       6.182   3.670  15.543  0.00  0.00    +0.000 A 
ATOM     19  H   UNL     1       4.487   5.014  18.409  0.00  0.00    +0.000 HD
BRANCH  12  21
ATOM     20  C   UNL     1       5.339   3.331  12.198  0.00  0.00    +0.000 C 
ATOM     21  C   UNL     1       6.530   3.747  13.044  0.00  0.00    +0.000 C 
ENDBRANCH  12  21
ENDBRANCH   1  16
TORSDOF 3
ENDMDL
MODEL 4
REMARK VINA RESULT:      -7.3      2.785      6.817
REMARK  Name = 
REMARK  4 active torsions:
REMARK  status: ('A' for Active; 'I' for Inactive)
REMARK    1  A    between atoms: C_1  and  C_2
REMARK    2  A    between atoms: C_2  and  C_3
REMARK    3  A    between atoms: N_7  and  C_8
REMARK    4  A    between atoms: C_8  and  C_9
REMARK                            x       y       z     vdW  Elec       q    Type
REMARK                         _______ _______ _______ _____ _____    ______ ____
ROOT
ATOM      1  C   UNL     1       3.290   5.651  18.097  0.00  0.00    +0.000 C 
ENDROOT
BRANCH   1   2
ATOM      2  C   UNL     1       4.642   4.923  18.315  0.00  0.00    +0.000 C 
ATOM      3  O   UNL     1       5.357   5.696  19.310  0.00  0.00    +0.000 OA
ATOM      4  C   UNL     1       6.735   5.341  19.389  0.00  0.00    +0.000 C 
ATOM      5  C   UNL     1       7.446   5.771  18.113  0.00  0.00    +0.000 C 
ATOM      6  C   UNL     1       6.751   5.203  16.904  0.00  0.00    +0.000 A 
ATOM      7  C   UNL     1       7.415   5.142  15.675  0.00  0.00    +0.000 A 
ATOM      8  C   UNL     1       6.779   4.613  14.554  0.00  0.00    +0.000 A 
ATOM      9  C   UNL     1       5.481   4.123  14.660  0.00  0.00    +0.000 A 
ATOM     10  C   UNL     1       4.807   4.193  15.878  0.00  0.00    +0.000 A 
ATOM     11  C   UNL     1       5.413   4.776  17.004  0.00  0.00    +0.000 A 
ENDBRANCH   1   2
BRANCH   1  16
ATOM     12  C   UNL     1       0.750   9.571  19.362  0.00  0.00    +0.000 A 
ATOM     13  C   UNL     1       1.307   8.523  20.059  0.00  0.00    +0.000 A 
ATOM     14  N   UNL     1       2.247   7.703  19.555  0.00  0.00    +0.000 NA
ATOM     15  C   UNL     1       2.639   7.927  18.291  0.00  0.00    +0.000 A 
ATOM     16  N   UNL     1       3.492   7.033  17.649  0.00  0.00    +0.000 N 
ATOM     17  N   UNL     1       2.197   8.947  17.545  0.00  0.00    +0.000 NA
ATOM     18  C   UNL     1       1.272   9.754  18.100  0.00  0.00    +0.000 A 
ATOM     19  H   UNL     1       3.297   7.163  16.658  0.00  0.00    +0.000 HD
BRANCH  12  21
ATOM     20  C   UNL     1      -1.422  10.745  18.913  0.00  0.00    +0.000 C 
ATOM     21  C   UNL     1      -0.334  10.434  19.926  0.00  0.00    +0.000 C 
ENDBRANCH  12  21
ENDBRANCH   1  16
TORSDOF 3
ENDMDL
MODEL 5
REMARK VINA RESULT:      -7.3      2.564      6.985
REMARK  Name = 
REMARK  4 active torsions:
REMARK  status: ('A' for Active; 'I' for Inactive)
REMARK    1  A    between atoms: C_1  and  C_2
REMARK    2  A    between atoms: C_2  and  C_3
REMARK    3  A    between atoms: N_7  and  C_8
REMARK    4  A    between atoms: C_8  and  C_9
REMARK                            x       y       z     vdW  Elec       q    Type
REMARK                         _______ _______ _______ _____ _____    ______ ____
ROOT
ATOM      1  C   UNL     1       3.210   5.458  17.974  0.00  0.00    +0.000 C 
ENDROOT
BRANCH   1   2
ATOM      2  C   UNL     1       4.593   4.796  18.209  0.00  0.00    +0.000 C 
ATOM      3  O   UNL     1       5.236   5.571  19.251  0.00  0.00    +0.000 OA
ATOM      4  C   UNL     1       6.628   5.287  19.360  0.00  0.00    +0.000 C 
ATOM      5  C   UNL     1       7.351   5.798  18.121  0.00  0.00    +0.000 C 
ATOM      6  C   UNL     1       6.722   5.235  16.874  0.00  0.00    +0.000 A 
ATOM      7  C   UNL     1       7.425   5.252  15.664  0.00  0.00    +0.000 A 
ATOM      8  C   UNL     1       6.850   4.730  14.507  0.00  0.00    +0.000 A 
ATOM      9  C   UNL     1       5.579   4.168  14.557  0.00  0.00    +0.000 A 
ATOM     10  C   UNL     1       4.867   4.160  15.756  0.00  0.00    +0.000 A 
ATOM     11  C   UNL     1       5.407   4.735  16.918  0.00  0.00    +0.000 A 
ENDBRANCH   1   2
BRANCH   1  16
ATOM     12  C   UNL     1       0.854   9.089  20.139  0.00  0.00    +0.000 A 
ATOM     13  C   UNL     1       1.506   7.964  20.591  0.00  0.00    +0.000 A 
ATOM     14  N   UNL     1       2.371   7.249  19.848  0.00  0.00    +0.000 NA
ATOM     15  C   UNL     1       2.583   7.665  18.589  0.00  0.00    +0.000 A 
ATOM     16  N   UNL     1       3.342   6.895  17.712  0.00  0.00    +0.000 N 
ATOM     17  N   UNL     1       2.037   8.771  18.069  0.00  0.00    +0.000 NA
ATOM     18  C   UNL     1       1.195   9.466  18.859  0.00  0.00    +0.000 A 
ATOM     19  H   UNL     1       3.011   7.163  16.786  0.00  0.00    +0.000 HD
BRANCH  12  21
ATOM     20  C   UNL     1      -0.271   9.277  22.374  0.00  0.00    +0.000 C 
ATOM     21  C   UNL     1      -0.145   9.833  20.967  0.00  0.00    +0.000 C 
ENDBRANCH  12  21
ENDBRANCH   1  16
TORSDOF 3
ENDMDL
MODEL 6
REMARK VINA RESULT:      -7.1      2.942      4.428
REMARK  Name = 
REMARK  4 active torsions:
REMARK  status: ('A' for Active; 'I' for Inactive)
REMARK    1  A    between atoms: C_1  and  C_2
REMARK    2  A    between atoms: C_2  and  C_3
REMARK    3  A    between atoms: N_7  and  C_8
REMARK    4  A    between atoms: C_8  and  C_9
REMARK                            x       y       z     vdW  Elec       q    Type
REMARK                         _______ _______ _______ _____ _____    ______ ____
ROOT
ATOM      1  C   UNL     1       5.415   4.074  18.467  0.00  0.00    +0.000 C 
ENDROOT
BRANCH   1   2
ATOM      2  C   UNL     1       4.150   3.259  18.092  0.00  0.00    +0.000 C 
ATOM      3  O   UNL     1       3.562   3.937  16.953  0.00  0.00    +0.000 OA
ATOM      4  C   UNL     1       2.232   3.500  16.688  0.00  0.00    +0.000 C 
ATOM      5  C   UNL     1       1.311   3.957  17.811  0.00  0.00    +0.000 C 
ATOM      6  C   UNL     1       1.837   3.494  19.144  0.00  0.00    +0.000 A 
ATOM      7  C   UNL     1       0.993   3.461  20.260  0.00  0.00    +0.000 A 
ATOM      8  C   UNL     1       1.472   3.029  21.495  0.00  0.00    +0.000 A 
ATOM      9  C   UNL     1       2.793   2.609  21.618  0.00  0.00    +0.000 A 
ATOM     10  C   UNL     1       3.644   2.652  20.515  0.00  0.00    +0.000 A 
ATOM     11  C   UNL     1       3.193   3.138  19.276  0.00  0.00    +0.000 A 
ENDBRANCH   1   2
BRANCH   1  16
ATOM     12  C   UNL     1       8.255   7.992  18.408  0.00  0.00    +0.000 A 
ATOM     13  C   UNL     1       8.247   6.825  19.137  0.00  0.00    +0.000 A 
ATOM     14  N   UNL     1       7.562   5.722  18.780  0.00  0.00    +0.000 NA
ATOM     15  C   UNL     1       6.837   5.793  17.652  0.00  0.00    +0.000 A 
ATOM     16  N   UNL     1       5.983   4.751  17.298  0.00  0.00    +0.000 N 
ATOM     17  N   UNL     1       6.815   6.862  16.847  0.00  0.00    +0.000 NA
ATOM     18  C   UNL     1       7.533   7.934  17.236  0.00  0.00    +0.000 A 
ATOM     19  H   UNL     1       5.276   5.191  16.710  0.00  0.00    +0.000 HD
BRANCH  12  21
ATOM     20  C   UNL     1       8.622  10.445  18.032  0.00  0.00    +0.000 C 
ATOM     21  C   UNL     1       8.980   9.221  18.856  0.00  0.00    +0.000 C 
ENDBRANCH  12  21
ENDBRANCH   1  16
TORSDOF 3
ENDMDL
MODEL 7
REMARK VINA RESULT:      -7.0      3.461      7.321
REMARK  Name = 
REMARK  4 active torsions:
REMARK  status: ('A' for Active; 'I' for Inactive)
REMARK    1  A    between atoms: C_1  and  C_2
REMARK    2  A    between atoms: C_2  and  C_3
REMARK    3  A    between atoms: N_7  and  C_8
REMARK    4  A    between atoms: C_8  and  C_9
REMARK                            x       y       z     vdW  Elec       q    Type
REMARK                         _______ _______ _______ _____ _____    ______ ____
ROOT
ATOM      1  C   UNL     1       1.926   7.204  17.952  0.00  0.00    +0.000 C 
ENDROOT
BRANCH   1   2
ATOM      2  C   UNL     1       3.131   6.277  18.260  0.00  0.00    +0.000 C 
ATOM      3  O   UNL     1       4.074   6.474  17.177  0.00  0.00    +0.000 OA
ATOM      4  C   UNL     1       5.084   5.470  17.146  0.00  0.00    +0.000 C 
ATOM      5  C   UNL     1       4.464   4.134  16.759  0.00  0.00    +0.000 C 
ATOM      6  C   UNL     1       3.317   3.800  17.677  0.00  0.00    +0.000 A 
ATOM      7  C   UNL     1       2.846   2.485  17.762  0.00  0.00    +0.000 A 
ATOM      8  C   UNL     1       1.788   2.169  18.613  0.00  0.00    +0.000 A 
ATOM      9  C   UNL     1       1.209   3.160  19.398  0.00  0.00    +0.000 A 
ATOM     10  C   UNL     1       1.664   4.475  19.308  0.00  0.00    +0.000 A 
ATOM     11  C   UNL     1       2.691   4.823  18.414  0.00  0.00    +0.000 A 
ENDBRANCH   1   2
BRANCH   1  16
ATOM     12  C   UNL     1       0.224   9.600  21.797  0.00  0.00    +0.000 A 
ATOM     13  C   UNL     1       0.775   8.353  21.612  0.00  0.00    +0.000 A 
ATOM     14  N   UNL     1       1.479   7.998  20.520  0.00  0.00    +0.000 NA
ATOM     15  C   UNL     1       1.624   8.926  19.560  0.00  0.00    +0.000 A 
ATOM     16  N   UNL     1       2.204   8.590  18.339  0.00  0.00    +0.000 N 
ATOM     17  N   UNL     1       1.170  10.180  19.663  0.00  0.00    +0.000 NA
ATOM     18  C   UNL     1       0.490  10.494  20.784  0.00  0.00    +0.000 A 
ATOM     19  H   UNL     1       1.825   9.271  17.682  0.00  0.00    +0.000 HD
BRANCH  12  21
ATOM     20  C   UNL     1      -1.168  11.357  22.924  0.00  0.00    +0.000 C 
ATOM     21  C   UNL     1      -0.600   9.950  22.995  0.00  0.00    +0.000 C 
ENDBRANCH  12  21
ENDBRANCH   1  16
TORSDOF 3
ENDMDL
MODEL 8
REMARK VINA RESULT:      -7.0      1.698      2.765
REMARK  Name = 
REMARK  4 active torsions:
REMARK  status: ('A' for Active; 'I' for Inactive)
REMARK    1  A    between atoms: C_1  and  C_2
REMARK    2  A    between atoms: C_2  and  C_3
REMARK    3  A    between atoms: N_7  and  C_8
REMARK    4  A    between atoms: C_8  and  C_9
REMARK                            x       y       z     vdW  Elec       q    Type
REMARK                         _______ _______ _______ _____ _____    ______ ____
ROOT
ATOM      1  C   UNL     1       2.830   6.373  19.610  0.00  0.00    +0.000 C 
ENDROOT
BRANCH   1   2
ATOM      2  C   UNL     1       2.004   5.117  19.990  0.00  0.00    +0.000 C 
ATOM      3  O   UNL     1       2.305   4.847  21.383  0.00  0.00    +0.000 OA
ATOM      4  C   UNL     1       1.875   3.552  21.791  0.00  0.00    +0.000 C 
ATOM      5  C   UNL     1       2.719   2.492  21.095  0.00  0.00    +0.000 C 
ATOM      6  C   UNL     1       2.687   2.689  19.602  0.00  0.00    +0.000 A 
ATOM      7  C   UNL     1       3.061   1.646  18.748  0.00  0.00    +0.000 A 
ATOM      8  C   UNL     1       3.030   1.821  17.366  0.00  0.00    +0.000 A 
ATOM      9  C   UNL     1       2.605   3.032  16.829  0.00  0.00    +0.000 A 
ATOM     10  C   UNL     1       2.244   4.080  17.674  0.00  0.00    +0.000 A 
ATOM     11  C   UNL     1       2.324   3.940  19.070  0.00  0.00    +0.000 A 
ENDBRANCH   1   2
BRANCH   1  16
ATOM     12  C   UNL     1       5.951   5.487  16.019  0.00  0.00    +0.000 A 
ATOM     13  C   UNL     1       4.956   6.417  16.217  0.00  0.00    +0.000 A 
ATOM     14  N   UNL     1       4.418   6.695  17.419  0.00  0.00    +0.000 NA
ATOM     15  C   UNL     1       4.881   6.001  18.471  0.00  0.00    +0.000 A 
ATOM     16  N   UNL     1       4.270   6.120  19.717  0.00  0.00    +0.000 N 
ATOM     17  N   UNL     1       5.878   5.111  18.394  0.00  0.00    +0.000 NA
ATOM     18  C   UNL     1       6.400   4.882  17.173  0.00  0.00    +0.000 A 
ATOM     19  H   UNL     1       4.487   5.244  20.190  0.00  0.00    +0.000 HD
BRANCH  12  21
ATOM     20  C   UNL     1       6.200   3.726  14.249  0.00  0.00    +0.000 C 
ATOM     21  C   UNL     1       6.494   5.157  14.665  0.00  0.00    +0.000 C 
ENDBRANCH  12  21
ENDBRANCH   1  16
TORSDOF 3
ENDMDL
MODEL 9
REMARK VINA RESULT:      -7.0      3.800      7.053
REMARK  Name = 
REMARK  4 active torsions:
REMARK  status: ('A' for Active; 'I' for Inactive)
REMARK    1  A    between atoms: C_1  and  C_2
REMARK    2  A    between atoms: C_2  and  C_3
REMARK    3  A    between atoms: N_7  and  C_8
REMARK    4  A    between atoms: C_8  and  C_9
REMARK                            x       y       z     vdW  Elec       q    Type
REMARK                         _______ _______ _______ _____ _____    ______ ____
ROOT
ATOM      1  C   UNL     1       2.213   7.086  19.814  0.00  0.00    +0.000 C 
ENDROOT
BRANCH   1   2
ATOM      2  C   UNL     1       3.240   5.970  19.490  0.00  0.00    +0.000 C 
ATOM      3  O   UNL     1       3.961   6.419  18.315  0.00  0.00    +0.000 OA
ATOM      4  C   UNL     1       4.716   5.375  17.708  0.00  0.00    +0.000 C 
ATOM      5  C   UNL     1       3.769   4.349  17.099  0.00  0.00    +0.000 C 
ATOM      6  C   UNL     1       2.792   3.856  18.133  0.00  0.00    +0.000 A 
ATOM      7  C   UNL     1       2.088   2.665  17.923  0.00  0.00    +0.000 A 
ATOM      8  C   UNL     1       1.185   2.201  18.877  0.00  0.00    +0.000 A 
ATOM      9  C   UNL     1       0.995   2.914  20.056  0.00  0.00    +0.000 A 
ATOM     10  C   UNL     1       1.681   4.109  20.267  0.00  0.00    +0.000 A 
ATOM     11  C   UNL     1       2.552   4.621  19.290  0.00  0.00    +0.000 A 
ENDBRANCH   1   2
BRANCH   1  16
ATOM     12  C   UNL     1      -0.756  10.888  19.428  0.00  0.00    +0.000 A 
ATOM     13  C   UNL     1      -0.091  10.294  20.476  0.00  0.00    +0.000 A 
ATOM     14  N   UNL     1       0.939   9.440  20.323  0.00  0.00    +0.000 NA
ATOM     15  C   UNL     1       1.312   9.152  19.066  0.00  0.00    +0.000 A 
ATOM     16  N   UNL     1       2.263   8.164  18.822  0.00  0.00    +0.000 N 
ATOM     17  N   UNL     1       0.763   9.712  17.980  0.00  0.00    +0.000 NA
ATOM     18  C   UNL     1      -0.250  10.576  18.185  0.00  0.00    +0.000 A 
ATOM     19  H   UNL     1       2.061   7.845  17.876  0.00  0.00    +0.000 HD
BRANCH  12  21
ATOM     20  C   UNL     1      -2.984  11.624  18.540  0.00  0.00    +0.000 C 
ATOM     21  C   UNL     1      -1.933  11.790  19.623  0.00  0.00    +0.000 C 
ENDBRANCH  12  21
ENDBRANCH   1  16
TORSDOF 3
ENDMDL
