MODEL 1
REMARK VINA RESULT:      -8.9      0.000      0.000
REMARK  Name = 
REMARK  4 active torsions:
REMARK  status: ('A' for Active; 'I' for Inactive)
REMARK    1  A    between atoms: C_2  and  C_3
REMARK    2  A    between atoms: C_2  and  C_15
REMARK    3  A    between atoms: N_19  and  C_20
REMARK    4  A    between atoms: C_20  and  C_21
REMARK                            x       y       z     vdW  Elec       q    Type
REMARK                         _______ _______ _______ _____ _____    ______ ____
ROOT
ATOM      1  O   UNL     1       2.223   6.103  20.472  0.00  0.00    +0.000 OA
ATOM      2  C   UNL     1       2.313   6.675  19.384  0.00  0.00    +0.000 C 
ENDROOT
BRANCH   2   3
ATOM      3  C   UNL     1       1.831   8.120  19.318  0.00  0.00    +0.000 A 
ATOM      4  C   UNL     1       2.174   8.807  18.124  0.00  0.00    +0.000 A 
ATOM      5  C   UNL     1       1.834  10.147  17.878  0.00  0.00    +0.000 A 
ATOM      6  C   UNL     1       1.145  10.796  18.887  0.00  0.00    +0.000 A 
ATOM      7  C   UNL     1       0.810  10.149  20.062  0.00  0.00    +0.000 A 
ATOM      8  C   UNL     1       0.153  11.022  20.920  0.00  0.00    +0.000 A 
ATOM      9  C   UNL     1      -0.307  10.606  22.159  0.00  0.00    +0.000 A 
ATOM     10  C   UNL     1      -0.140   9.247  22.449  0.00  0.00    +0.000 A 
ATOM     11  C   UNL     1       0.521   8.367  21.554  0.00  0.00    +0.000 A 
ATOM     12  C   UNL     1       1.079   8.820  20.325  0.00  0.00    +0.000 A 
ATOM     13  C   UNL     1       0.023  12.374  20.313  0.00  0.00    +0.000 C 
ATOM     14  C   UNL     1       0.636  12.204  18.891  0.00  0.00    +0.000 C 
ENDBRANCH   2   3
BRANCH   2  15
ATOM     15  C   UNL     1       2.844   5.940  18.131  0.00  0.00    +0.000 C 
ATOM     16  C   UNL     1       2.353   4.499  18.073  0.00  0.00    +0.000 C 
ATOM     17  C   UNL     1       3.107   3.674  19.105  0.00  0.00    +0.000 C 
ATOM     18  C   UNL     1       4.580   3.608  18.732  0.00  0.00    +0.000 C 
ATOM     19  N   UNL     1       5.225   4.922  18.597  0.00  0.00    +0.000 NA
ATOM     20  C   UNL     1       4.395   5.947  17.914  0.00  0.00    +0.000 C 
BRANCH  19  21
ATOM     21  C   UNL     1       6.531   4.691  17.901  0.00  0.00    +0.000 C 
BRANCH  21  22
ATOM     22  C   UNL     1       6.509   4.614  16.388  0.00  0.00    +0.000 A 
ATOM     23  C   UNL     1       5.663   3.723  15.736  0.00  0.00    +0.000 A 
ATOM     24  C   UNL     1       5.724   3.639  14.348  0.00  0.00    +0.000 A 
ATOM     25  C   UNL     1       6.602   4.459  13.649  0.00  0.00    +0.000 A 
ATOM     26  C   UNL     1       7.375   5.352  14.369  0.00  0.00    +0.000 A 
ATOM     27  N   UNL     1       7.351   5.447  15.716  0.00  0.00    +0.000 NA
ENDBRANCH  21  22
ENDBRANCH  19  21
ENDBRANCH   2  15
TORSDOF 4
ENDMDL
MODEL 2
REMARK VINA RESULT:      -8.7      2.470      7.024
REMARK  Name = 
REMARK  4 active torsions:
REMARK  status: ('A' for Active; 'I' for Inactive)
REMARK    1  A    between atoms: C_2  and  C_3
REMARK    2  A    between atoms: C_2  and  C_15
REMARK    3  A    between atoms: N_19  and  C_20
REMARK    4  A    between atoms: C_20  and  C_21
REMARK                            x       y       z     vdW  Elec       q    Type
REMARK                         _______ _______ _______ _____ _____    ______ ____
ROOT
ATOM      1  O   UNL     1       4.968   1.659  20.668  0.00  0.00    +0.000 OA
ATOM      2  C   UNL     1       4.224   2.572  20.306  0.00  0.00    +0.000 C 
ENDROOT
BRANCH   2   3
ATOM      3  C   UNL     1       4.509   3.204  18.949  0.00  0.00    +0.000 A 
ATOM      4  C   UNL     1       3.722   2.700  17.881  0.00  0.00    +0.000 A 
ATOM      5  C   UNL     1       3.845   3.143  16.554  0.00  0.00    +0.000 A 
ATOM      6  C   UNL     1       4.807   4.108  16.320  0.00  0.00    +0.000 A 
ATOM      7  C   UNL     1       5.592   4.605  17.343  0.00  0.00    +0.000 A 
ATOM      8  C   UNL     1       6.496   5.535  16.846  0.00  0.00    +0.000 A 
ATOM      9  C   UNL     1       7.384   6.196  17.680  0.00  0.00    +0.000 A 
ATOM     10  C   UNL     1       7.253   5.928  19.047  0.00  0.00    +0.000 A 
ATOM     11  C   UNL     1       6.314   4.986  19.538  0.00  0.00    +0.000 A 
ATOM     12  C   UNL     1       5.472   4.237  18.668  0.00  0.00    +0.000 A 
ATOM     13  C   UNL     1       6.344   5.698  15.375  0.00  0.00    +0.000 C 
ATOM     14  C   UNL     1       5.138   4.777  15.021  0.00  0.00    +0.000 C 
ENDBRANCH   2   3
BRANCH   2  15
ATOM     15  C   UNL     1       3.083   3.087  21.216  0.00  0.00    +0.000 C 
ATOM     16  C   UNL     1       1.750   2.439  20.869  0.00  0.00    +0.000 C 
ATOM     17  C   UNL     1       1.231   3.034  19.568  0.00  0.00    +0.000 C 
ATOM     18  C   UNL     1       0.917   4.508  19.768  0.00  0.00    +0.000 C 
ATOM     19  N   UNL     1       2.056   5.306  20.244  0.00  0.00    +0.000 NA
ATOM     20  C   UNL     1       2.882   4.639  21.284  0.00  0.00    +0.000 C 
BRANCH  19  21
ATOM     21  C   UNL     1       1.500   6.615  20.714  0.00  0.00    +0.000 C 
BRANCH  21  22
ATOM     22  C   UNL     1       1.575   7.786  19.755  0.00  0.00    +0.000 A 
ATOM     23  C   UNL     1       2.227   7.662  18.533  0.00  0.00    +0.000 A 
ATOM     24  C   UNL     1       2.329   8.782  17.714  0.00  0.00    +0.000 A 
ATOM     25  C   UNL     1       1.759   9.983  18.120  0.00  0.00    +0.000 A 
ATOM     26  C   UNL     1       1.086  10.011  19.329  0.00  0.00    +0.000 A 
ATOM     27  N   UNL     1       0.983   8.946  20.152  0.00  0.00    +0.000 NA
ENDBRANCH  21  22
ENDBRANCH  19  21
ENDBRANCH   2  15
TORSDOF 4
ENDMDL
MODEL 3
REMARK VINA RESULT:      -8.6      1.325      2.701
REMARK  Name = 
REMARK  4 active torsions:
REMARK  status: ('A' for Active; 'I' for Inactive)
REMARK    1  A    between atoms: C_2  and  C_3
REMARK    2  A    between atoms: C_2  and  C_15
REMARK    3  A    between atoms: N_19  and  C_20
REMARK    4  A    between atoms: C_20  and  C_21
REMARK                            x       y       z     vdW  Elec       q    Type
REMARK                         _______ _______ _______ _____ _____    ______ ____
ROOT
ATOM      1  O   UNL     1       3.454   7.579  17.215  0.00  0.00    +0.000 OA
ATOM      2  C   UNL     1       3.063   6.884  18.154  0.00  0.00    +0.000 C 
ENDROOT
BRANCH   2   3
ATOM      3  C   UNL     1       2.196   7.565  19.207  0.00  0.00    +0.000 A 
ATOM      4  C   UNL     1       1.877   6.756  20.329  0.00  0.00    +0.000 A 
ATOM      5  C   UNL     1       1.079   7.195  21.398  0.00  0.00    +0.000 A 
ATOM      6  C   UNL     1       0.586   8.483  21.301  0.00  0.00    +0.000 A 
ATOM      7  C   UNL     1       0.874   9.285  20.212  0.00  0.00    +0.000 A 
ATOM      8  C   UNL     1       0.239  10.514  20.339  0.00  0.00    +0.000 A 
ATOM      9  C   UNL     1       0.390  11.505  19.383  0.00  0.00    +0.000 A 
ATOM     10  C   UNL     1       1.277  11.220  18.339  0.00  0.00    +0.000 A 
ATOM     11  C   UNL     1       1.928   9.965  18.235  0.00  0.00    +0.000 A 
ATOM     12  C   UNL     1       1.695   8.913  19.165  0.00  0.00    +0.000 A 
ATOM     13  C   UNL     1      -0.555  10.579  21.595  0.00  0.00    +0.000 C 
ATOM     14  C   UNL     1      -0.262   9.218  22.293  0.00  0.00    +0.000 C 
ENDBRANCH   2   3
BRANCH   2  15
ATOM     15  C   UNL     1       3.479   5.400  18.283  0.00  0.00    +0.000 C 
ATOM     16  C   UNL     1       4.473   5.190  19.417  0.00  0.00    +0.000 C 
ATOM     17  C   UNL     1       5.832   5.727  18.994  0.00  0.00    +0.000 C 
ATOM     18  C   UNL     1       6.371   4.904  17.835  0.00  0.00    +0.000 C 
ATOM     19  N   UNL     1       5.483   4.859  16.665  0.00  0.00    +0.000 NA
ATOM     20  C   UNL     1       4.041   4.712  16.993  0.00  0.00    +0.000 C 
BRANCH  19  21
ATOM     21  C   UNL     1       5.982   3.755  15.786  0.00  0.00    +0.000 C 
BRANCH  21  22
ATOM     22  C   UNL     1       6.481   4.135  14.406  0.00  0.00    +0.000 A 
ATOM     23  C   UNL     1       5.947   3.538  13.269  0.00  0.00    +0.000 A 
ATOM     24  C   UNL     1       6.481   3.869  12.028  0.00  0.00    +0.000 A 
ATOM     25  C   UNL     1       7.509   4.800  11.950  0.00  0.00    +0.000 A 
ATOM     26  C   UNL     1       7.952   5.384  13.124  0.00  0.00    +0.000 A 
ATOM     27  N   UNL     1       7.466   5.073  14.344  0.00  0.00    +0.000 NA
ENDBRANCH  21  22
ENDBRANCH  19  21
ENDBRANCH   2  15
TORSDOF 4
ENDMDL
MODEL 4
REMARK VINA RESULT:      -8.5      1.731      3.474
REMARK  Name = 
REMARK  4 active torsions:
REMARK  status: ('A' for Active; 'I' for Inactive)
REMARK    1  A    between atoms: C_2  and  C_3
REMARK    2  A    between atoms: C_2  and  C_15
REMARK    3  A    between atoms: N_19  and  C_20
REMARK    4  A    between atoms: C_20  and  C_21
REMARK                            x       y       z     vdW  Elec       q    Type
REMARK                         _______ _______ _______ _____ _____    ______ ____
ROOT
ATOM      1  O   UNL     1       1.966   3.475  17.030  0.00  0.00    +0.000 OA
ATOM      2  C   UNL     1       2.780   3.898  17.854  0.00  0.00    +0.000 C 
ENDROOT
BRANCH   2   3
ATOM      3  C   UNL     1       2.316   5.021  18.774  0.00  0.00    +0.000 A 
ATOM      4  C   UNL     1       1.795   4.590  20.022  0.00  0.00    +0.000 A 
ATOM      5  C   UNL     1       1.304   5.469  21.001  0.00  0.00    +0.000 A 
ATOM      6  C   UNL     1       1.333   6.814  20.681  0.00  0.00    +0.000 A 
ATOM      7  C   UNL     1       1.825   7.256  19.467  0.00  0.00    +0.000 A 
ATOM      8  C   UNL     1       1.716   8.638  19.379  0.00  0.00    +0.000 A 
ATOM      9  C   UNL     1       2.163   9.326  18.262  0.00  0.00    +0.000 A 
ATOM     10  C   UNL     1       2.797   8.556  17.281  0.00  0.00    +0.000 A 
ATOM     11  C   UNL     1       2.912   7.147  17.396  0.00  0.00    +0.000 A 
ATOM     12  C   UNL     1       2.364   6.432  18.498  0.00  0.00    +0.000 A 
ATOM     13  C   UNL     1       1.099   9.206  20.607  0.00  0.00    +0.000 C 
ATOM     14  C   UNL     1       0.902   7.969  21.532  0.00  0.00    +0.000 C 
ENDBRANCH   2   3
BRANCH   2  15
ATOM     15  C   UNL     1       4.224   3.347  17.911  0.00  0.00    +0.000 C 
ATOM     16  C   UNL     1       4.881   3.627  19.256  0.00  0.00    +0.000 C 
ATOM     17  C   UNL     1       5.242   5.103  19.337  0.00  0.00    +0.000 C 
ATOM     18  C   UNL     1       6.306   5.428  18.300  0.00  0.00    +0.000 C 
ATOM     19  N   UNL     1       5.921   5.098  16.920  0.00  0.00    +0.000 NA
ATOM     20  C   UNL     1       5.199   3.807  16.775  0.00  0.00    +0.000 C 
BRANCH  19  21
ATOM     21  C   UNL     1       7.172   5.146  16.099  0.00  0.00    +0.000 C 
BRANCH  21  22
ATOM     22  C   UNL     1       7.049   4.826  14.623  0.00  0.00    +0.000 A 
ATOM     23  C   UNL     1       6.154   3.858  14.180  0.00  0.00    +0.000 A 
ATOM     24  C   UNL     1       6.121   3.549  12.823  0.00  0.00    +0.000 A 
ATOM     25  C   UNL     1       6.958   4.228  11.946  0.00  0.00    +0.000 A 
ATOM     26  C   UNL     1       7.785   5.211  12.460  0.00  0.00    +0.000 A 
ATOM     27  N   UNL     1       7.851   5.522  13.772  0.00  0.00    +0.000 NA
ENDBRANCH  21  22
ENDBRANCH  19  21
ENDBRANCH   2  15
TORSDOF 4
ENDMDL
MODEL 5
REMARK VINA RESULT:      -8.5      3.403      9.013
REMARK  Name = 
REMARK  4 active torsions:
REMARK  status: ('A' for Active; 'I' for Inactive)
REMARK    1  A    between atoms: C_2  and  C_3
REMARK    2  A    between atoms: C_2  and  C_15
REMARK    3  A    between atoms: N_19  and  C_20
REMARK    4  A    between atoms: C_20  and  C_21
REMARK                            x       y       z     vdW  Elec       q    Type
REMARK                         _______ _______ _______ _____ _____    ______ ____
ROOT
ATOM      1  O   UNL     1       1.750   8.743  20.495  0.00  0.00    +0.000 OA
ATOM      2  C   UNL     1       1.687   8.488  19.291  0.00  0.00    +0.000 C 
ENDROOT
BRANCH   2   3
ATOM      3  C   UNL     1       2.401   7.230  18.809  0.00  0.00    +0.000 A 
ATOM      4  C   UNL     1       3.358   7.445  17.783  0.00  0.00    +0.000 A 
ATOM      5  C   UNL     1       4.109   6.413  17.197  0.00  0.00    +0.000 A 
ATOM      6  C   UNL     1       3.857   5.136  17.664  0.00  0.00    +0.000 A 
ATOM      7  C   UNL     1       2.922   4.902  18.655  0.00  0.00    +0.000 A 
ATOM      8  C   UNL     1       2.837   3.542  18.923  0.00  0.00    +0.000 A 
ATOM      9  C   UNL     1       1.982   3.051  19.897  0.00  0.00    +0.000 A 
ATOM     10  C   UNL     1       1.283   4.011  20.639  0.00  0.00    +0.000 A 
ATOM     11  C   UNL     1       1.396   5.397  20.361  0.00  0.00    +0.000 A 
ATOM     12  C   UNL     1       2.199   5.890  19.294  0.00  0.00    +0.000 A 
ATOM     13  C   UNL     1       3.765   2.766  18.059  0.00  0.00    +0.000 C 
ATOM     14  C   UNL     1       4.520   3.860  17.246  0.00  0.00    +0.000 C 
ENDBRANCH   2   3
BRANCH   2  15
ATOM     15  C   UNL     1       0.959   9.433  18.307  0.00  0.00    +0.000 C 
ATOM     16  C   UNL     1       1.883  10.525  17.784  0.00  0.00    +0.000 C 
ATOM     17  C   UNL     1       2.118  11.548  18.885  0.00  0.00    +0.000 C 
ATOM     18  C   UNL     1       0.813  12.256  19.213  0.00  0.00    +0.000 C 
ATOM     19  N   UNL     1      -0.276  11.354  19.615  0.00  0.00    +0.000 NA
ATOM     20  C   UNL     1      -0.362  10.102  18.819  0.00  0.00    +0.000 C 
BRANCH  19  21
ATOM     21  C   UNL     1      -1.542  12.152  19.556  0.00  0.00    +0.000 C 
BRANCH  21  22
ATOM     22  C   UNL     1      -2.306  12.341  20.851  0.00  0.00    +0.000 A 
ATOM     23  C   UNL     1      -1.740  11.976  22.068  0.00  0.00    +0.000 A 
ATOM     24  C   UNL     1      -2.502  12.105  23.225  0.00  0.00    +0.000 A 
ATOM     25  C   UNL     1      -3.792  12.616  23.142  0.00  0.00    +0.000 A 
ATOM     26  C   UNL     1      -4.265  13.000  21.900  0.00  0.00    +0.000 A 
ATOM     27  N   UNL     1      -3.556  12.873  20.758  0.00  0.00    +0.000 NA
ENDBRANCH  21  22
ENDBRANCH  19  21
ENDBRANCH   2  15
TORSDOF 4
ENDMDL
MODEL 6
REMARK VINA RESULT:      -8.3      3.606      8.312
REMARK  Name = 
REMARK  4 active torsions:
REMARK  status: ('A' for Active; 'I' for Inactive)
REMARK    1  A    between atoms: C_2  and  C_3
REMARK    2  A    between atoms: C_2  and  C_15
REMARK    3  A    between atoms: N_19  and  C_20
REMARK    4  A    between atoms: C_20  and  C_21
REMARK                            x       y       z     vdW  Elec       q    Type
REMARK                         _______ _______ _______ _____ _____    ______ ____
ROOT
ATOM      1  O   UNL     1       1.741   8.712  20.500  0.00  0.00    +0.000 OA
ATOM      2  C   UNL     1       1.700   8.455  19.295  0.00  0.00    +0.000 C 
ENDROOT
BRANCH   2   3
ATOM      3  C   UNL     1       2.427   7.199  18.827  0.00  0.00    +0.000 A 
ATOM      4  C   UNL     1       3.391   7.415  17.808  0.00  0.00    +0.000 A 
ATOM      5  C   UNL     1       4.155   6.386  17.235  0.00  0.00    +0.000 A 
ATOM      6  C   UNL     1       3.908   5.110  17.707  0.00  0.00    +0.000 A 
ATOM      7  C   UNL     1       2.967   4.874  18.692  0.00  0.00    +0.000 A 
ATOM      8  C   UNL     1       2.889   3.515  18.967  0.00  0.00    +0.000 A 
ATOM      9  C   UNL     1       2.029   3.024  19.937  0.00  0.00    +0.000 A 
ATOM     10  C   UNL     1       1.317   3.983  20.666  0.00  0.00    +0.000 A 
ATOM     11  C   UNL     1       1.422   5.368  20.381  0.00  0.00    +0.000 A 
ATOM     12  C   UNL     1       2.230   5.861  19.318  0.00  0.00    +0.000 A 
ATOM     13  C   UNL     1       3.830   2.741  18.115  0.00  0.00    +0.000 C 
ATOM     14  C   UNL     1       4.584   3.836  17.303  0.00  0.00    +0.000 C 
ENDBRANCH   2   3
BRANCH   2  15
ATOM     15  C   UNL     1       0.984   9.396  18.298  0.00  0.00    +0.000 C 
ATOM     16  C   UNL     1       1.873  10.562  17.886  0.00  0.00    +0.000 C 
ATOM     17  C   UNL     1       1.965  11.550  19.039  0.00  0.00    +0.000 C 
ATOM     18  C   UNL     1       0.598  12.164  19.298  0.00  0.00    +0.000 C 
ATOM     19  N   UNL     1      -0.457  11.182  19.585  0.00  0.00    +0.000 NA
ATOM     20  C   UNL     1      -0.408   9.962  18.739  0.00  0.00    +0.000 C 
BRANCH  19  21
ATOM     21  C   UNL     1      -1.764  11.905  19.466  0.00  0.00    +0.000 C 
BRANCH  21  22
ATOM     22  C   UNL     1      -2.647  11.555  18.285  0.00  0.00    +0.000 A 
ATOM     23  C   UNL     1      -2.097  11.348  17.025  0.00  0.00    +0.000 A 
ATOM     24  C   UNL     1      -2.953  11.094  15.957  0.00  0.00    +0.000 A 
ATOM     25  C   UNL     1      -4.323  11.028  16.177  0.00  0.00    +0.000 A 
ATOM     26  C   UNL     1      -4.786  11.198  17.470  0.00  0.00    +0.000 A 
ATOM     27  N   UNL     1      -3.984  11.461  18.523  0.00  0.00    +0.000 NA
ENDBRANCH  21  22
ENDBRANCH  19  21
ENDBRANCH   2  15
TORSDOF 4
ENDMDL
MODEL 7
REMARK VINA RESULT:      -8.3      3.874      8.876
REMARK  Name = 
REMARK  4 active torsions:
REMARK  status: ('A' for Active; 'I' for Inactive)
REMARK    1  A    between atoms: C_2  and  C_3
REMARK    2  A    between atoms: C_2  and  C_15
REMARK    3  A    between atoms: N_19  and  C_20
REMARK    4  A    between atoms: C_20  and  C_21
REMARK                            x       y       z     vdW  Elec       q    Type
REMARK                         _______ _______ _______ _____ _____    ______ ____
ROOT
ATOM      1  O   UNL     1       1.117   8.803  20.289  0.00  0.00    +0.000 OA
ATOM      2  C   UNL     1       1.545   8.739  19.134  0.00  0.00    +0.000 C 
ENDROOT
BRANCH   2   3
ATOM      3  C   UNL     1       2.408   7.534  18.780  0.00  0.00    +0.000 A 
ATOM      4  C   UNL     1       3.317   7.748  17.711  0.00  0.00    +0.000 A 
ATOM      5  C   UNL     1       4.187   6.758  17.226  0.00  0.00    +0.000 A 
ATOM      6  C   UNL     1       4.106   5.522  17.841  0.00  0.00    +0.000 A 
ATOM      7  C   UNL     1       3.221   5.288  18.876  0.00  0.00    +0.000 A 
ATOM      8  C   UNL     1       3.313   3.968  19.298  0.00  0.00    +0.000 A 
ATOM      9  C   UNL     1       2.540   3.490  20.344  0.00  0.00    +0.000 A 
ATOM     10  C   UNL     1       1.733   4.433  20.990  0.00  0.00    +0.000 A 
ATOM     11  C   UNL     1       1.664   5.781  20.554  0.00  0.00    +0.000 A 
ATOM     12  C   UNL     1       2.384   6.244  19.418  0.00  0.00    +0.000 A 
ATOM     13  C   UNL     1       4.323   3.220  18.503  0.00  0.00    +0.000 C 
ATOM     14  C   UNL     1       4.922   4.299  17.552  0.00  0.00    +0.000 C 
ENDBRANCH   2   3
BRANCH   2  15
ATOM     15  C   UNL     1       1.259   9.862  18.109  0.00  0.00    +0.000 C 
ATOM     16  C   UNL     1       1.821  11.201  18.569  0.00  0.00    +0.000 C 
ATOM     17  C   UNL     1       0.949  11.748  19.690  0.00  0.00    +0.000 C 
ATOM     18  C   UNL     1      -0.439  12.062  19.154  0.00  0.00    +0.000 C 
ATOM     19  N   UNL     1      -1.115  10.915  18.530  0.00  0.00    +0.000 NA
ATOM     20  C   UNL     1      -0.235  10.066  17.686  0.00  0.00    +0.000 C 
BRANCH  19  21
ATOM     21  C   UNL     1      -2.279  11.465  17.764  0.00  0.00    +0.000 C 
BRANCH  21  22
ATOM     22  C   UNL     1      -3.610  11.544  18.484  0.00  0.00    +0.000 A 
ATOM     23  C   UNL     1      -4.715  10.843  18.012  0.00  0.00    +0.000 A 
ATOM     24  C   UNL     1      -5.933  10.998  18.665  0.00  0.00    +0.000 A 
ATOM     25  C   UNL     1      -6.013  11.822  19.782  0.00  0.00    +0.000 A 
ATOM     26  C   UNL     1      -4.857  12.447  20.216  0.00  0.00    +0.000 A 
ATOM     27  N   UNL     1      -3.664  12.329  19.595  0.00  0.00    +0.000 NA
ENDBRANCH  21  22
ENDBRANCH  19  21
ENDBRANCH   2  15
TORSDOF 4
ENDMDL
MODEL 8
REMARK VINA RESULT:      -8.3      3.207      8.839
REMARK  Name = 
REMARK  4 active torsions:
REMARK  status: ('A' for Active; 'I' for Inactive)
REMARK    1  A    between atoms: C_2  and  C_3
REMARK    2  A    between atoms: C_2  and  C_15
REMARK    3  A    between atoms: N_19  and  C_20
REMARK    4  A    between atoms: C_20  and  C_21
REMARK                            x       y       z     vdW  Elec       q    Type
REMARK                         _______ _______ _______ _____ _____    ______ ____
ROOT
ATOM      1  O   UNL     1       1.843   8.622  20.771  0.00  0.00    +0.000 OA
ATOM      2  C   UNL     1       1.638   8.335  19.590  0.00  0.00    +0.000 C 
ENDROOT
BRANCH   2   3
ATOM      3  C   UNL     1       2.359   7.111  19.037  0.00  0.00    +0.000 A 
ATOM      4  C   UNL     1       3.323   7.392  18.035  0.00  0.00    +0.000 A 
ATOM      5  C   UNL     1       4.082   6.400  17.392  0.00  0.00    +0.000 A 
ATOM      6  C   UNL     1       3.829   5.095  17.776  0.00  0.00    +0.000 A 
ATOM      7  C   UNL     1       2.887   4.799  18.743  0.00  0.00    +0.000 A 
ATOM      8  C   UNL     1       2.802   3.424  18.924  0.00  0.00    +0.000 A 
ATOM      9  C   UNL     1       1.941   2.872  19.859  0.00  0.00    +0.000 A 
ATOM     10  C   UNL     1       1.234   3.782  20.653  0.00  0.00    +0.000 A 
ATOM     11  C   UNL     1       1.345   5.183  20.463  0.00  0.00    +0.000 A 
ATOM     12  C   UNL     1       2.155   5.743  19.436  0.00  0.00    +0.000 A 
ATOM     13  C   UNL     1       3.739   2.705  18.021  0.00  0.00    +0.000 C 
ATOM     14  C   UNL     1       4.498   3.849  17.285  0.00  0.00    +0.000 C 
ENDBRANCH   2   3
BRANCH   2  15
ATOM     15  C   UNL     1       0.729   9.213  18.697  0.00  0.00    +0.000 C 
ATOM     16  C   UNL     1       1.524   9.930  17.615  0.00  0.00    +0.000 C 
ATOM     17  C   UNL     1       2.314  11.066  18.248  0.00  0.00    +0.000 C 
ATOM     18  C   UNL     1       1.357  12.112  18.797  0.00  0.00    +0.000 C 
ATOM     19  N   UNL     1       0.393  11.590  19.775  0.00  0.00    +0.000 NA
ATOM     20  C   UNL     1      -0.176  10.261  19.429  0.00  0.00    +0.000 C 
BRANCH  19  21
ATOM     21  C   UNL     1      -0.666  12.636  19.939  0.00  0.00    +0.000 C 
BRANCH  21  22
ATOM     22  C   UNL     1      -1.606  12.496  21.120  0.00  0.00    +0.000 A 
ATOM     23  C   UNL     1      -2.965  12.753  20.978  0.00  0.00    +0.000 A 
ATOM     24  C   UNL     1      -3.780  12.677  22.104  0.00  0.00    +0.000 A 
ATOM     25  C   UNL     1      -3.226  12.323  23.328  0.00  0.00    +0.000 A 
ATOM     26  C   UNL     1      -1.873  12.036  23.375  0.00  0.00    +0.000 A 
ATOM     27  N   UNL     1      -1.054  12.116  22.305  0.00  0.00    +0.000 NA
ENDBRANCH  21  22
ENDBRANCH  19  21
ENDBRANCH   2  15
TORSDOF 4
ENDMDL
MODEL 9
REMARK VINA RESULT:      -8.2      1.059      1.442
REMARK  Name = 
REMARK  4 active torsions:
REMARK  status: ('A' for Active; 'I' for Inactive)
REMARK    1  A    between atoms: C_2  and  C_3
REMARK    2  A    between atoms: C_2  and  C_15
REMARK    3  A    between atoms: N_19  and  C_20
REMARK    4  A    between atoms: C_20  and  C_21
REMARK                            x       y       z     vdW  Elec       q    Type
REMARK                         _______ _______ _______ _____ _____    ______ ____
ROOT
ATOM      1  O   UNL     1       2.433   6.078  21.325  0.00  0.00    +0.000 OA
ATOM      2  C   UNL     1       1.869   6.315  20.255  0.00  0.00    +0.000 C 
ENDROOT
BRANCH   2   3
ATOM      3  C   UNL     1       1.540   7.772  19.951  0.00  0.00    +0.000 A 
ATOM      4  C   UNL     1       2.001   8.235  18.691  0.00  0.00    +0.000 A 
ATOM      5  C   UNL     1       1.811   9.549  18.233  0.00  0.00    +0.000 A 
ATOM      6  C   UNL     1       1.151  10.405  19.095  0.00  0.00    +0.000 A 
ATOM      7  C   UNL     1       0.703   9.979  20.331  0.00  0.00    +0.000 A 
ATOM      8  C   UNL     1       0.103  11.030  21.013  0.00  0.00    +0.000 A 
ATOM      9  C   UNL     1      -0.448  10.851  22.272  0.00  0.00    +0.000 A 
ATOM     10  C   UNL     1      -0.434   9.542  22.767  0.00  0.00    +0.000 A 
ATOM     11  C   UNL     1       0.170   8.479  22.049  0.00  0.00    +0.000 A 
ATOM     12  C   UNL     1       0.823   8.685  20.801  0.00  0.00    +0.000 A 
ATOM     13  C   UNL     1       0.138  12.280  20.209  0.00  0.00    +0.000 C 
ATOM     14  C   UNL     1       0.789  11.840  18.864  0.00  0.00    +0.000 C 
ENDBRANCH   2   3
BRANCH   2  15
ATOM     15  C   UNL     1       1.466   5.175  19.290  0.00  0.00    +0.000 C 
ATOM     16  C   UNL     1       1.043   3.921  20.044  0.00  0.00    +0.000 C 
ATOM     17  C   UNL     1       2.278   3.247  20.622  0.00  0.00    +0.000 C 
ATOM     18  C   UNL     1       3.167   2.751  19.493  0.00  0.00    +0.000 C 
ATOM     19  N   UNL     1       3.584   3.800  18.551  0.00  0.00    +0.000 NA
ATOM     20  C   UNL     1       2.516   4.771  18.200  0.00  0.00    +0.000 C 
BRANCH  19  21
ATOM     21  C   UNL     1       4.137   3.103  17.346  0.00  0.00    +0.000 C 
BRANCH  21  22
ATOM     22  C   UNL     1       5.224   3.816  16.567  0.00  0.00    +0.000 A 
ATOM     23  C   UNL     1       5.191   3.857  15.178  0.00  0.00    +0.000 A 
ATOM     24  C   UNL     1       6.245   4.465  14.502  0.00  0.00    +0.000 A 
ATOM     25  C   UNL     1       7.284   5.036  15.226  0.00  0.00    +0.000 A 
ATOM     26  C   UNL     1       7.218   4.996  16.608  0.00  0.00    +0.000 A 
ATOM     27  N   UNL     1       6.218   4.400  17.291  0.00  0.00    +0.000 NA
ENDBRANCH  21  22
ENDBRANCH  19  21
ENDBRANCH   2  15
TORSDOF 4
ENDMDL
