MODEL 1
REMARK VINA RESULT:      -8.0      0.000      0.000
REMARK  Name = 
REMARK  4 active torsions:
REMARK  status: ('A' for Active; 'I' for Inactive)
REMARK    1  A    between atoms: C_2  and  C_11
REMARK    2  A    between atoms: N_3  and  C_4
REMARK    3  A    between atoms: C_4  and  C_5
REMARK    4  A    between atoms: C_12  and  C_13
REMARK                            x       y       z     vdW  Elec       q    Type
REMARK                         _______ _______ _______ _____ _____    ______ ____
ROOT
ATOM      1  C   UNL     1       2.891   4.989  19.491  0.00  0.00    +0.000 A 
ATOM      2  C   UNL     1       4.083   4.330  19.085  0.00  0.00    +0.000 A 
ATOM      3  C   UNL     1       4.320   3.056  19.657  0.00  0.00    +0.000 A 
ATOM      4  C   UNL     1       3.446   2.473  20.582  0.00  0.00    +0.000 A 
ATOM      5  C   UNL     1       2.291   3.146  20.955  0.00  0.00    +0.000 A 
ATOM      6 CL   UNL     1       1.227   2.419  22.100  0.00  0.00    +0.000 Cl
ATOM      7  C   UNL     1       2.013   4.396  20.414  0.00  0.00    +0.000 A 
ATOM      8  F   UNL     1       0.911   5.049  20.823  0.00  0.00    +0.000 F 
ENDROOT
BRANCH   2   9
ATOM      9  C   UNL     1       5.087   4.875  18.123  0.00  0.00    +0.000 A 
ATOM     10  C   UNL     1       6.094   5.782  18.502  0.00  0.00    +0.000 A 
ATOM     11  C   UNL     1       7.103   6.182  17.618  0.00  0.00    +0.000 A 
ATOM     12  C   UNL     1       7.076   5.760  16.294  0.00  0.00    +0.000 A 
ATOM     13  C   UNL     1       6.048   4.933  15.867  0.00  0.00    +0.000 A 
ATOM     14 CL   UNL     1       5.962   4.460  14.213  0.00  0.00    +0.000 Cl
ATOM     15  C   UNL     1       5.084   4.473  16.769  0.00  0.00    +0.000 A 
ENDBRANCH   2   9
BRANCH   1  17
ATOM     16  O   UNL     1       2.372   6.560  17.819  0.00  0.00    +0.000 OA
ATOM     17  C   UNL     1       2.475   6.332  19.012  0.00  0.00    +0.000 C 
ATOM     18  N   UNL     1       2.240   7.273  19.994  0.00  0.00    +0.000 N 
ATOM     19  H   UNL     1       2.425   7.035  20.961  0.00  0.00    +0.000 HD
BRANCH  18  20
ATOM     20  C   UNL     1       1.931   8.655  19.696  0.00  0.00    +0.000 C 
BRANCH  20  21
ATOM     21  C   UNL     1       0.469   8.939  20.055  0.00  0.00    +0.000 C 
ATOM     22  C   UNL     1       0.130  10.431  19.887  0.00  0.00    +0.000 C 
ATOM     23  C   UNL     1       0.723  11.283  21.007  0.00  0.00    +0.000 C 
ATOM     24  N   UNL     1       0.280  10.806  22.316  0.00  0.00    +0.000 NA
ATOM     25  C   UNL     1       0.705   9.424  22.543  0.00  0.00    +0.000 C 
ATOM     26  C   UNL     1       0.139   8.480  21.483  0.00  0.00    +0.000 C 
ATOM     27  H   UNL     1      -0.740  10.850  22.355  0.00  0.00    +0.000 HD
ENDBRANCH  20  21
ENDBRANCH  18  20
ENDBRANCH   1  17
TORSDOF 4
ENDMDL
MODEL 2
REMARK VINA RESULT:      -8.0      1.072      1.437
REMARK  Name = 
REMARK  4 active torsions:
REMARK  status: ('A' for Active; 'I' for Inactive)
REMARK    1  A    between atoms: C_2  and  C_11
REMARK    2  A    between atoms: N_3  and  C_4
REMARK    3  A    between atoms: C_4  and  C_5
REMARK    4  A    between atoms: C_12  and  C_13
REMARK                            x       y       z     vdW  Elec       q    Type
REMARK                         _______ _______ _______ _____ _____    ______ ____
ROOT
ATOM      1  C   UNL     1       2.848   4.980  19.431  0.00  0.00    +0.000 A 
ATOM      2  C   UNL     1       4.027   4.337  18.966  0.00  0.00    +0.000 A 
ATOM      3  C   UNL     1       4.300   3.058  19.511  0.00  0.00    +0.000 A 
ATOM      4  C   UNL     1       3.473   2.457  20.467  0.00  0.00    +0.000 A 
ATOM      5  C   UNL     1       2.329   3.115  20.898  0.00  0.00    +0.000 A 
ATOM      6 CL   UNL     1       1.323   2.366  22.080  0.00  0.00    +0.000 Cl
ATOM      7  C   UNL     1       2.017   4.369  20.385  0.00  0.00    +0.000 A 
ATOM      8  F   UNL     1       0.929   5.007  20.849  0.00  0.00    +0.000 F 
ENDROOT
BRANCH   2   9
ATOM      9  C   UNL     1       4.983   4.902  17.966  0.00  0.00    +0.000 A 
ATOM     10  C   UNL     1       4.999   4.506  16.616  0.00  0.00    +0.000 A 
ATOM     11  C   UNL     1       5.812   5.137  15.667  0.00  0.00    +0.000 A 
ATOM     12  C   UNL     1       6.708   6.122  16.064  0.00  0.00    +0.000 A 
ATOM     13  C   UNL     1       6.777   6.477  17.403  0.00  0.00    +0.000 A 
ATOM     14 CL   UNL     1       7.932   7.645  17.919  0.00  0.00    +0.000 Cl
ATOM     15  C   UNL     1       5.911   5.900  18.337  0.00  0.00    +0.000 A 
ENDBRANCH   2   9
BRANCH   1  17
ATOM     16  O   UNL     1       2.207   6.554  17.805  0.00  0.00    +0.000 OA
ATOM     17  C   UNL     1       2.400   6.325  18.986  0.00  0.00    +0.000 C 
ATOM     18  N   UNL     1       2.242   7.265  19.984  0.00  0.00    +0.000 N 
ATOM     19  H   UNL     1       2.500   7.025  20.934  0.00  0.00    +0.000 HD
BRANCH  18  20
ATOM     20  C   UNL     1       1.915   8.648  19.713  0.00  0.00    +0.000 C 
BRANCH  20  21
ATOM     21  C   UNL     1       0.451   8.908  20.085  0.00  0.00    +0.000 C 
ATOM     22  C   UNL     1       0.082  10.391  19.906  0.00  0.00    +0.000 C 
ATOM     23  C   UNL     1       0.671  11.265  21.011  0.00  0.00    +0.000 C 
ATOM     24  N   UNL     1       0.252  10.792  22.330  0.00  0.00    +0.000 NA
ATOM     25  C   UNL     1       0.705   9.421  22.565  0.00  0.00    +0.000 C 
ATOM     26  C   UNL     1       0.146   8.457  21.521  0.00  0.00    +0.000 C 
ATOM     27  H   UNL     1      -0.769  10.818  22.379  0.00  0.00    +0.000 HD
ENDBRANCH  20  21
ENDBRANCH  18  20
ENDBRANCH   1  17
TORSDOF 4
ENDMDL
MODEL 3
REMARK VINA RESULT:      -7.6      2.944      6.408
REMARK  Name = 
REMARK  4 active torsions:
REMARK  status: ('A' for Active; 'I' for Inactive)
REMARK    1  A    between atoms: C_2  and  C_11
REMARK    2  A    between atoms: N_3  and  C_4
REMARK    3  A    between atoms: C_4  and  C_5
REMARK    4  A    between atoms: C_12  and  C_13
REMARK                            x       y       z     vdW  Elec       q    Type
REMARK                         _______ _______ _______ _____ _____    ______ ____
ROOT
ATOM      1  C   UNL     1       2.134   7.642  19.117  0.00  0.00    +0.000 A 
ATOM      2  C   UNL     1       1.788   6.471  19.843  0.00  0.00    +0.000 A 
ATOM      3  C   UNL     1       1.067   6.670  21.047  0.00  0.00    +0.000 A 
ATOM      4  C   UNL     1       0.723   7.944  21.514  0.00  0.00    +0.000 A 
ATOM      5  C   UNL     1       1.077   9.066  20.777  0.00  0.00    +0.000 A 
ATOM      6 CL   UNL     1       0.652  10.629  21.366  0.00  0.00    +0.000 Cl
ATOM      7  C   UNL     1       1.779   8.918  19.585  0.00  0.00    +0.000 A 
ATOM      8  F   UNL     1       2.150  10.020  18.911  0.00  0.00    +0.000 F 
ENDROOT
BRANCH   2   9
ATOM      9  C   UNL     1       2.126   5.073  19.441  0.00  0.00    +0.000 A 
ATOM     10  C   UNL     1       1.568   4.447  18.311  0.00  0.00    +0.000 A 
ATOM     11  C   UNL     1       1.992   3.186  17.875  0.00  0.00    +0.000 A 
ATOM     12  C   UNL     1       2.922   2.469  18.620  0.00  0.00    +0.000 A 
ATOM     13  C   UNL     1       3.429   3.023  19.786  0.00  0.00    +0.000 A 
ATOM     14 CL   UNL     1       4.527   2.118  20.755  0.00  0.00    +0.000 Cl
ATOM     15  C   UNL     1       3.062   4.314  20.179  0.00  0.00    +0.000 A 
ENDBRANCH   2   9
BRANCH   1  17
ATOM     16  O   UNL     1       2.508   8.289  16.886  0.00  0.00    +0.000 OA
ATOM     17  C   UNL     1       2.896   7.639  17.841  0.00  0.00    +0.000 C 
ATOM     18  N   UNL     1       4.029   6.851  17.822  0.00  0.00    +0.000 N 
ATOM     19  H   UNL     1       4.244   6.275  18.627  0.00  0.00    +0.000 HD
BRANCH  18  20
ATOM     20  C   UNL     1       4.824   6.653  16.629  0.00  0.00    +0.000 C 
BRANCH  20  21
ATOM     21  C   UNL     1       4.973   5.151  16.361  0.00  0.00    +0.000 C 
ATOM     22  C   UNL     1       5.782   4.460  17.473  0.00  0.00    +0.000 C 
ATOM     23  C   UNL     1       7.274   4.774  17.375  0.00  0.00    +0.000 C 
ATOM     24  N   UNL     1       7.800   4.408  16.061  0.00  0.00    +0.000 NA
ATOM     25  C   UNL     1       7.124   5.152  14.998  0.00  0.00    +0.000 C 
ATOM     26  C   UNL     1       5.619   4.884  14.993  0.00  0.00    +0.000 C 
ATOM     27  H   UNL     1       7.650   3.408  15.914  0.00  0.00    +0.000 HD
ENDBRANCH  20  21
ENDBRANCH  18  20
ENDBRANCH   1  17
TORSDOF 4
ENDMDL
MODEL 4
REMARK VINA RESULT:      -7.5      2.660      6.513
REMARK  Name = 
REMARK  4 active torsions:
REMARK  status: ('A' for Active; 'I' for Inactive)
REMARK    1  A    between atoms: C_2  and  C_11
REMARK    2  A    between atoms: N_3  and  C_4
REMARK    3  A    between atoms: C_4  and  C_5
REMARK    4  A    between atoms: C_12  and  C_13
REMARK                            x       y       z     vdW  Elec       q    Type
REMARK                         _______ _______ _______ _____ _____    ______ ____
ROOT
ATOM      1  C   UNL     1       3.289   5.614  17.578  0.00  0.00    +0.000 A 
ATOM      2  C   UNL     1       3.464   7.017  17.711  0.00  0.00    +0.000 A 
ATOM      3  C   UNL     1       4.670   7.551  17.192  0.00  0.00    +0.000 A 
ATOM      4  C   UNL     1       5.649   6.749  16.594  0.00  0.00    +0.000 A 
ATOM      5  C   UNL     1       5.444   5.380  16.481  0.00  0.00    +0.000 A 
ATOM      6 CL   UNL     1       6.661   4.405  15.748  0.00  0.00    +0.000 Cl
ATOM      7  C   UNL     1       4.272   4.814  16.970  0.00  0.00    +0.000 A 
ATOM      8  F   UNL     1       4.113   3.482  16.890  0.00  0.00    +0.000 F 
ENDROOT
BRANCH   2   9
ATOM      9  C   UNL     1       2.491   7.953  18.350  0.00  0.00    +0.000 A 
ATOM     10  C   UNL     1       1.774   8.922  17.623  0.00  0.00    +0.000 A 
ATOM     11  C   UNL     1       0.773   9.703  18.214  0.00  0.00    +0.000 A 
ATOM     12  C   UNL     1       0.528   9.603  19.579  0.00  0.00    +0.000 A 
ATOM     13  C   UNL     1       1.276   8.717  20.339  0.00  0.00    +0.000 A 
ATOM     14 CL   UNL     1       1.032   8.635  22.041  0.00  0.00    +0.000 Cl
ATOM     15  C   UNL     1       2.223   7.884  19.734  0.00  0.00    +0.000 A 
ENDBRANCH   2   9
BRANCH   1  17
ATOM     16  O   UNL     1       1.192   4.582  17.306  0.00  0.00    +0.000 OA
ATOM     17  C   UNL     1       2.099   4.870  18.068  0.00  0.00    +0.000 C 
ATOM     18  N   UNL     1       2.098   4.560  19.413  0.00  0.00    +0.000 N 
ATOM     19  H   UNL     1       2.849   4.904  20.000  0.00  0.00    +0.000 HD
BRANCH  18  20
ATOM     20  C   UNL     1       0.971   3.935  20.071  0.00  0.00    +0.000 C 
BRANCH  20  21
ATOM     21  C   UNL     1       1.397   2.571  20.624  0.00  0.00    +0.000 C 
ATOM     22  C   UNL     1       2.744   2.662  21.364  0.00  0.00    +0.000 C 
ATOM     23  C   UNL     1       3.919   2.801  20.398  0.00  0.00    +0.000 C 
ATOM     24  N   UNL     1       3.939   1.698  19.438  0.00  0.00    +0.000 NA
ATOM     25  C   UNL     1       2.714   1.675  18.639  0.00  0.00    +0.000 C 
ATOM     26  C   UNL     1       1.473   1.512  19.515  0.00  0.00    +0.000 C 
ATOM     27  H   UNL     1       4.019   0.818  19.950  0.00  0.00    +0.000 HD
ENDBRANCH  20  21
ENDBRANCH  18  20
ENDBRANCH   1  17
TORSDOF 4
ENDMDL
MODEL 5
REMARK VINA RESULT:      -7.5      2.733      5.227
REMARK  Name = 
REMARK  4 active torsions:
REMARK  status: ('A' for Active; 'I' for Inactive)
REMARK    1  A    between atoms: C_2  and  C_11
REMARK    2  A    between atoms: N_3  and  C_4
REMARK    3  A    between atoms: C_4  and  C_5
REMARK    4  A    between atoms: C_12  and  C_13
REMARK                            x       y       z     vdW  Elec       q    Type
REMARK                         _______ _______ _______ _____ _____    ______ ____
ROOT
ATOM      1  C   UNL     1       3.186   6.674  19.109  0.00  0.00    +0.000 A 
ATOM      2  C   UNL     1       3.778   7.190  17.925  0.00  0.00    +0.000 A 
ATOM      3  C   UNL     1       3.238   8.405  17.433  0.00  0.00    +0.000 A 
ATOM      4  C   UNL     1       2.171   9.060  18.060  0.00  0.00    +0.000 A 
ATOM      5  C   UNL     1       1.618   8.526  19.215  0.00  0.00    +0.000 A 
ATOM      6 CL   UNL     1       0.302   9.341  19.972  0.00  0.00    +0.000 Cl
ATOM      7  C   UNL     1       2.121   7.340  19.738  0.00  0.00    +0.000 A 
ATOM      8  F   UNL     1       1.542   6.817  20.833  0.00  0.00    +0.000 F 
ENDROOT
BRANCH   2   9
ATOM      9  C   UNL     1       4.902   6.557  17.173  0.00  0.00    +0.000 A 
ATOM     10  C   UNL     1       6.254   6.746  17.518  0.00  0.00    +0.000 A 
ATOM     11  C   UNL     1       7.286   6.044  16.885  0.00  0.00    +0.000 A 
ATOM     12  C   UNL     1       7.002   5.202  15.816  0.00  0.00    +0.000 A 
ATOM     13  C   UNL     1       5.688   5.059  15.396  0.00  0.00    +0.000 A 
ATOM     14 CL   UNL     1       5.329   4.076  14.029  0.00  0.00    +0.000 Cl
ATOM     15  C   UNL     1       4.649   5.702  16.078  0.00  0.00    +0.000 A 
ENDBRANCH   2   9
BRANCH   1  17
ATOM     16  O   UNL     1       4.785   5.186  19.983  0.00  0.00    +0.000 OA
ATOM     17  C   UNL     1       3.606   5.410  19.770  0.00  0.00    +0.000 C 
ATOM     18  N   UNL     1       2.589   4.536  20.094  0.00  0.00    +0.000 N 
ATOM     19  H   UNL     1       1.641   4.755  19.811  0.00  0.00    +0.000 HD
BRANCH  18  20
ATOM     20  C   UNL     1       2.833   3.220  20.643  0.00  0.00    +0.000 C 
BRANCH  20  21
ATOM     21  C   UNL     1       2.221   2.161  19.719  0.00  0.00    +0.000 C 
ATOM     22  C   UNL     1       3.256   1.632  18.710  0.00  0.00    +0.000 C 
ATOM     23  C   UNL     1       3.543   2.644  17.602  0.00  0.00    +0.000 C 
ATOM     24  N   UNL     1       2.311   3.029  16.914  0.00  0.00    +0.000 NA
ATOM     25  C   UNL     1       1.364   3.648  17.840  0.00  0.00    +0.000 C 
ATOM     26  C   UNL     1       0.989   2.702  18.979  0.00  0.00    +0.000 C 
ATOM     27  H   UNL     1       1.885   2.192  16.512  0.00  0.00    +0.000 HD
ENDBRANCH  20  21
ENDBRANCH  18  20
ENDBRANCH   1  17
TORSDOF 4
ENDMDL
MODEL 6
REMARK VINA RESULT:      -7.5      1.491      2.117
REMARK  Name = 
REMARK  4 active torsions:
REMARK  status: ('A' for Active; 'I' for Inactive)
REMARK    1  A    between atoms: C_2  and  C_11
REMARK    2  A    between atoms: N_3  and  C_4
REMARK    3  A    between atoms: C_4  and  C_5
REMARK    4  A    between atoms: C_12  and  C_13
REMARK                            x       y       z     vdW  Elec       q    Type
REMARK                         _______ _______ _______ _____ _____    ______ ____
ROOT
ATOM      1  C   UNL     1       2.698   4.442  19.108  0.00  0.00    +0.000 A 
ATOM      2  C   UNL     1       4.009   3.949  18.868  0.00  0.00    +0.000 A 
ATOM      3  C   UNL     1       4.447   2.896  19.708  0.00  0.00    +0.000 A 
ATOM      4  C   UNL     1       3.648   2.372  20.732  0.00  0.00    +0.000 A 
ATOM      5  C   UNL     1       2.372   2.878  20.938  0.00  0.00    +0.000 A 
ATOM      6 CL   UNL     1       1.404   2.227  22.205  0.00  0.00    +0.000 Cl
ATOM      7  C   UNL     1       1.898   3.907  20.132  0.00  0.00    +0.000 A 
ATOM      8  F   UNL     1       0.677   4.412  20.377  0.00  0.00    +0.000 F 
ENDROOT
BRANCH   2   9
ATOM      9  C   UNL     1       4.943   4.454  17.817  0.00  0.00    +0.000 A 
ATOM     10  C   UNL     1       5.022   3.890  16.530  0.00  0.00    +0.000 A 
ATOM     11  C   UNL     1       5.807   4.455  15.518  0.00  0.00    +0.000 A 
ATOM     12  C   UNL     1       6.617   5.550  15.796  0.00  0.00    +0.000 A 
ATOM     13  C   UNL     1       6.626   6.079  17.078  0.00  0.00    +0.000 A 
ATOM     14 CL   UNL     1       7.677   7.390  17.455  0.00  0.00    +0.000 Cl
ATOM     15  C   UNL     1       5.784   5.561  18.068  0.00  0.00    +0.000 A 
ENDBRANCH   2   9
BRANCH   1  17
ATOM     16  O   UNL     1       1.371   5.308  17.369  0.00  0.00    +0.000 OA
ATOM     17  C   UNL     1       2.068   5.547  18.340  0.00  0.00    +0.000 C 
ATOM     18  N   UNL     1       2.340   6.823  18.792  0.00  0.00    +0.000 N 
ATOM     19  H   UNL     1       2.994   6.947  19.556  0.00  0.00    +0.000 HD
BRANCH  18  20
ATOM     20  C   UNL     1       1.894   8.011  18.097  0.00  0.00    +0.000 C 
BRANCH  20  21
ATOM     21  C   UNL     1       2.028   9.223  19.025  0.00  0.00    +0.000 C 
ATOM     22  C   UNL     1       1.428   8.936  20.413  0.00  0.00    +0.000 C 
ATOM     23  C   UNL     1      -0.099   8.938  20.389  0.00  0.00    +0.000 C 
ATOM     24  N   UNL     1      -0.611  10.205  19.866  0.00  0.00    +0.000 NA
ATOM     25  C   UNL     1      -0.149  10.433  18.497  0.00  0.00    +0.000 C 
ATOM     26  C   UNL     1       1.376  10.474  18.416  0.00  0.00    +0.000 C 
ATOM     27  H   UNL     1      -0.276  10.965  20.461  0.00  0.00    +0.000 HD
ENDBRANCH  20  21
ENDBRANCH  18  20
ENDBRANCH   1  17
TORSDOF 4
ENDMDL
MODEL 7
REMARK VINA RESULT:      -7.4      2.949      6.420
REMARK  Name = 
REMARK  4 active torsions:
REMARK  status: ('A' for Active; 'I' for Inactive)
REMARK    1  A    between atoms: C_2  and  C_11
REMARK    2  A    between atoms: N_3  and  C_4
REMARK    3  A    between atoms: C_4  and  C_5
REMARK    4  A    between atoms: C_12  and  C_13
REMARK                            x       y       z     vdW  Elec       q    Type
REMARK                         _______ _______ _______ _____ _____    ______ ____
ROOT
ATOM      1  C   UNL     1       2.049   7.667  19.235  0.00  0.00    +0.000 A 
ATOM      2  C   UNL     1       1.725   6.746  20.268  0.00  0.00    +0.000 A 
ATOM      3  C   UNL     1       1.052   7.280  21.395  0.00  0.00    +0.000 A 
ATOM      4  C   UNL     1       0.731   8.638  21.504  0.00  0.00    +0.000 A 
ATOM      5  C   UNL     1       1.063   9.509  20.474  0.00  0.00    +0.000 A 
ATOM      6 CL   UNL     1       0.667  11.179  20.624  0.00  0.00    +0.000 Cl
ATOM      7  C   UNL     1       1.718   9.028  19.346  0.00  0.00    +0.000 A 
ATOM      8  F   UNL     1       2.068   9.895  18.381  0.00  0.00    +0.000 F 
ENDROOT
BRANCH   2   9
ATOM      9  C   UNL     1       2.042   5.286  20.256  0.00  0.00    +0.000 A 
ATOM     10  C   UNL     1       2.312   4.554  21.427  0.00  0.00    +0.000 A 
ATOM     11  C   UNL     1       2.479   3.164  21.410  0.00  0.00    +0.000 A 
ATOM     12  C   UNL     1       2.478   2.477  20.202  0.00  0.00    +0.000 A 
ATOM     13  C   UNL     1       2.298   3.182  19.021  0.00  0.00    +0.000 A 
ATOM     14 CL   UNL     1       2.365   2.355  17.513  0.00  0.00    +0.000 Cl
ATOM     15  C   UNL     1       2.055   4.560  19.045  0.00  0.00    +0.000 A 
ENDBRANCH   2   9
BRANCH   1  17
ATOM     16  O   UNL     1       2.144   7.128  16.947  0.00  0.00    +0.000 OA
ATOM     17  C   UNL     1       2.762   7.300  17.984  0.00  0.00    +0.000 C 
ATOM     18  N   UNL     1       4.130   7.159  18.093  0.00  0.00    +0.000 N 
ATOM     19  H   UNL     1       4.564   7.238  19.005  0.00  0.00    +0.000 HD
BRANCH  18  20
ATOM     20  C   UNL     1       4.960   6.704  16.998  0.00  0.00    +0.000 C 
BRANCH  20  21
ATOM     21  C   UNL     1       4.996   5.172  16.989  0.00  0.00    +0.000 C 
ATOM     22  C   UNL     1       5.790   4.623  18.188  0.00  0.00    +0.000 C 
ATOM     23  C   UNL     1       7.296   4.805  18.010  0.00  0.00    +0.000 C 
ATOM     24  N   UNL     1       7.754   4.183  16.769  0.00  0.00    +0.000 NA
ATOM     25  C   UNL     1       7.098   4.782  15.607  0.00  0.00    +0.000 C 
ATOM     26  C   UNL     1       5.579   4.629  15.676  0.00  0.00    +0.000 C 
ATOM     27  H   UNL     1       7.530   3.186  16.799  0.00  0.00    +0.000 HD
ENDBRANCH  20  21
ENDBRANCH  18  20
ENDBRANCH   1  17
TORSDOF 4
ENDMDL
MODEL 8
REMARK VINA RESULT:      -7.3      1.157      1.644
REMARK  Name = 
REMARK  4 active torsions:
REMARK  status: ('A' for Active; 'I' for Inactive)
REMARK    1  A    between atoms: C_2  and  C_11
REMARK    2  A    between atoms: N_3  and  C_4
REMARK    3  A    between atoms: C_4  and  C_5
REMARK    4  A    between atoms: C_12  and  C_13
REMARK                            x       y       z     vdW  Elec       q    Type
REMARK                         _______ _______ _______ _____ _____    ______ ____
ROOT
ATOM      1  C   UNL     1       2.733   4.450  19.107  0.00  0.00    +0.000 A 
ATOM      2  C   UNL     1       4.052   3.970  18.886  0.00  0.00    +0.000 A 
ATOM      3  C   UNL     1       4.484   2.916  19.729  0.00  0.00    +0.000 A 
ATOM      4  C   UNL     1       3.674   2.380  20.737  0.00  0.00    +0.000 A 
ATOM      5  C   UNL     1       2.390   2.874  20.923  0.00  0.00    +0.000 A 
ATOM      6 CL   UNL     1       1.406   2.208  22.171  0.00  0.00    +0.000 Cl
ATOM      7  C   UNL     1       1.921   3.903  20.115  0.00  0.00    +0.000 A 
ATOM      8  F   UNL     1       0.691   4.397  20.342  0.00  0.00    +0.000 F 
ENDROOT
BRANCH   2   9
ATOM      9  C   UNL     1       4.999   4.488  17.854  0.00  0.00    +0.000 A 
ATOM     10  C   UNL     1       6.041   5.385  18.155  0.00  0.00    +0.000 A 
ATOM     11  C   UNL     1       6.997   5.759  17.203  0.00  0.00    +0.000 A 
ATOM     12  C   UNL     1       6.879   5.320  15.889  0.00  0.00    +0.000 A 
ATOM     13  C   UNL     1       5.815   4.501  15.541  0.00  0.00    +0.000 A 
ATOM     14 CL   UNL     1       5.617   4.008  13.903  0.00  0.00    +0.000 Cl
ATOM     15  C   UNL     1       4.904   4.067  16.510  0.00  0.00    +0.000 A 
ENDBRANCH   2   9
BRANCH   1  17
ATOM     16  O   UNL     1       1.417   5.313  17.359  0.00  0.00    +0.000 OA
ATOM     17  C   UNL     1       2.106   5.554  18.334  0.00  0.00    +0.000 C 
ATOM     18  N   UNL     1       2.375   6.830  18.786  0.00  0.00    +0.000 N 
ATOM     19  H   UNL     1       3.023   6.956  19.555  0.00  0.00    +0.000 HD
BRANCH  18  20
ATOM     20  C   UNL     1       1.932   8.017  18.088  0.00  0.00    +0.000 C 
BRANCH  20  21
ATOM     21  C   UNL     1       2.051   9.229  19.019  0.00  0.00    +0.000 C 
ATOM     22  C   UNL     1       1.457   8.931  20.407  0.00  0.00    +0.000 C 
ATOM     23  C   UNL     1      -0.070   8.912  20.385  0.00  0.00    +0.000 C 
ATOM     24  N   UNL     1      -0.600  10.173  19.866  0.00  0.00    +0.000 NA
ATOM     25  C   UNL     1      -0.144  10.410  18.497  0.00  0.00    +0.000 C 
ATOM     26  C   UNL     1       1.381  10.472  18.413  0.00  0.00    +0.000 C 
ATOM     27  H   UNL     1      -0.274  10.936  20.462  0.00  0.00    +0.000 HD
ENDBRANCH  20  21
ENDBRANCH  18  20
ENDBRANCH   1  17
TORSDOF 4
ENDMDL
MODEL 9
REMARK VINA RESULT:      -7.2      2.903      6.560
REMARK  Name = 
REMARK  4 active torsions:
REMARK  status: ('A' for Active; 'I' for Inactive)
REMARK    1  A    between atoms: C_2  and  C_11
REMARK    2  A    between atoms: N_3  and  C_4
REMARK    3  A    between atoms: C_4  and  C_5
REMARK    4  A    between atoms: C_12  and  C_13
REMARK                            x       y       z     vdW  Elec       q    Type
REMARK                         _______ _______ _______ _____ _____    ______ ____
ROOT
ATOM      1  C   UNL     1       2.010   7.449  19.210  0.00  0.00    +0.000 A 
ATOM      2  C   UNL     1       1.642   6.633  20.313  0.00  0.00    +0.000 A 
ATOM      3  C   UNL     1       1.082   7.303  21.430  0.00  0.00    +0.000 A 
ATOM      4  C   UNL     1       0.910   8.692  21.462  0.00  0.00    +0.000 A 
ATOM      5  C   UNL     1       1.281   9.457  20.366  0.00  0.00    +0.000 A 
ATOM      6 CL   UNL     1       1.069  11.167  20.423  0.00  0.00    +0.000 Cl
ATOM      7  C   UNL     1       1.828   8.842  19.246  0.00  0.00    +0.000 A 
ATOM      8  F   UNL     1       2.222   9.607  18.213  0.00  0.00    +0.000 F 
ENDROOT
BRANCH   2   9
ATOM      9  C   UNL     1       1.804   5.149  20.383  0.00  0.00    +0.000 A 
ATOM     10  C   UNL     1       0.716   4.269  20.540  0.00  0.00    +0.000 A 
ATOM     11  C   UNL     1       0.871   2.880  20.474  0.00  0.00    +0.000 A 
ATOM     12  C   UNL     1       2.140   2.326  20.347  0.00  0.00    +0.000 A 
ATOM     13  C   UNL     1       3.242   3.165  20.275  0.00  0.00    +0.000 A 
ATOM     14 CL   UNL     1       4.825   2.493  20.190  0.00  0.00    +0.000 Cl
ATOM     15  C   UNL     1       3.079   4.555  20.265  0.00  0.00    +0.000 A 
ENDBRANCH   2   9
BRANCH   1  17
ATOM     16  O   UNL     1       1.948   6.322  17.146  0.00  0.00    +0.000 OA
ATOM     17  C   UNL     1       2.621   6.934  17.958  0.00  0.00    +0.000 C 
ATOM     18  N   UNL     1       3.971   7.180  17.803  0.00  0.00    +0.000 N 
ATOM     19  H   UNL     1       4.481   7.623  18.558  0.00  0.00    +0.000 HD
BRANCH  18  20
ATOM     20  C   UNL     1       4.740   6.657  16.696  0.00  0.00    +0.000 C 
BRANCH  20  21
ATOM     21  C   UNL     1       4.984   5.158  16.907  0.00  0.00    +0.000 C 
ATOM     22  C   UNL     1       5.976   4.908  18.057  0.00  0.00    +0.000 C 
ATOM     23  C   UNL     1       7.413   5.235  17.655  0.00  0.00    +0.000 C 
ATOM     24  N   UNL     1       7.808   4.476  16.468  0.00  0.00    +0.000 NA
ATOM     25  C   UNL     1       6.948   4.797  15.329  0.00  0.00    +0.000 C 
ATOM     26  C   UNL     1       5.483   4.481  15.622  0.00  0.00    +0.000 C 
ATOM     27  H   UNL     1       7.727   3.479  16.675  0.00  0.00    +0.000 HD
ENDBRANCH  20  21
ENDBRANCH  18  20
ENDBRANCH   1  17
TORSDOF 4
ENDMDL
