MODEL 1
REMARK VINA RESULT:      -8.9      0.000      0.000
REMARK  Name = 
REMARK  4 active torsions:
REMARK  status: ('A' for Active; 'I' for Inactive)
REMARK    1  A    between atoms: C_1  and  N_2
REMARK    2  A    between atoms: C_4  and  C_5
REMARK    3  A    between atoms: C_9  and  C_10
REMARK    4  A    between atoms: C_13  and  N_14
REMARK                            x       y       z     vdW  Elec       q    Type
REMARK                         _______ _______ _______ _____ _____    ______ ____
ROOT
ATOM      1  C   UNL     1       2.176   7.860  19.134  0.00  0.00    +0.000 A 
ATOM      2  N   UNL     1       1.852   8.000  20.390  0.00  0.00    +0.000 NA
ATOM      3  N   UNL     1       1.229   9.193  20.460  0.00  0.00    +0.000 N 
ATOM      4  C   UNL     1       0.527   9.777  21.464  0.00  0.00    +0.000 A 
ATOM      5  C   UNL     1      -0.101  10.856  20.853  0.00  0.00    +0.000 A 
ATOM      6  N   UNL     1       0.284  10.983  19.526  0.00  0.00    +0.000 NA
ATOM      7  C   UNL     1       1.074   9.960  19.355  0.00  0.00    +0.000 A 
ATOM      8  S   UNL     1       1.796   9.189  18.013  0.00  0.00    +0.000 S 
ENDROOT
BRANCH   1  12
ATOM      9  C   UNL     1       4.944   4.820  16.340  0.00  0.00    +0.000 C 
ATOM     10  N   UNL     1       4.030   5.276  17.365  0.00  0.00    +0.000 N 
ATOM     11  C   UNL     1       3.637   6.574  17.527  0.00  0.00    +0.000 A 
ATOM     12  C   UNL     1       2.796   6.655  18.626  0.00  0.00    +0.000 A 
ATOM     13  C   UNL     1       2.662   5.312  19.126  0.00  0.00    +0.000 A 
ATOM     14  C   UNL     1       1.949   4.727  20.199  0.00  0.00    +0.000 A 
ATOM     15  C   UNL     1       2.062   3.354  20.438  0.00  0.00    +0.000 A 
ATOM     16 CL   UNL     1       1.215   2.653  21.765  0.00  0.00    +0.000 Cl
ATOM     17  C   UNL     1       2.858   2.550  19.632  0.00  0.00    +0.000 A 
ATOM     18  C   UNL     1       3.561   3.096  18.555  0.00  0.00    +0.000 A 
ATOM     19  C   UNL     1       3.452   4.479  18.325  0.00  0.00    +0.000 A 
ENDBRANCH   1  12
BRANCH   5  20
ATOM     20  C   UNL     1      -1.205  11.595  21.440  0.00  0.00    +0.000 A 
ATOM     21  C   UNL     1      -1.483  11.521  22.811  0.00  0.00    +0.000 A 
ATOM     22  C   UNL     1      -2.685  12.013  23.315  0.00  0.00    +0.000 A 
ATOM     23  C   UNL     1      -3.613  12.602  22.442  0.00  0.00    +0.000 A 
ATOM     24  C   UNL     1      -3.307  12.765  21.085  0.00  0.00    +0.000 A 
ATOM     25  C   UNL     1      -2.100  12.266  20.592  0.00  0.00    +0.000 A 
BRANCH  23  26
ATOM     26  N   UNL     1      -4.936  12.992  22.942  0.00  0.00    +0.000 N 
ATOM     27  O   UNL     1      -4.991  13.928  23.753  0.00  0.00    +0.000 OA
ATOM     28  O   UNL     1      -5.916  12.347  22.545  0.00  0.00    +0.000 OA
ENDBRANCH  23  26
ENDBRANCH   5  20
TORSDOF 3
ENDMDL
MODEL 2
REMARK VINA RESULT:      -8.7      2.028      2.766
REMARK  Name = 
REMARK  4 active torsions:
REMARK  status: ('A' for Active; 'I' for Inactive)
REMARK    1  A    between atoms: C_1  and  N_2
REMARK    2  A    between atoms: C_4  and  C_5
REMARK    3  A    between atoms: C_9  and  C_10
REMARK    4  A    between atoms: C_13  and  N_14
REMARK                            x       y       z     vdW  Elec       q    Type
REMARK                         _______ _______ _______ _____ _____    ______ ____
ROOT
ATOM      1  C   UNL     1       2.176   7.476  18.941  0.00  0.00    +0.000 A 
ATOM      2  N   UNL     1       1.873   7.607  20.203  0.00  0.00    +0.000 NA
ATOM      3  N   UNL     1       1.335   8.838  20.308  0.00  0.00    +0.000 N 
ATOM      4  C   UNL     1       0.684   9.444  21.332  0.00  0.00    +0.000 A 
ATOM      5  C   UNL     1       0.129  10.580  20.754  0.00  0.00    +0.000 A 
ATOM      6  N   UNL     1       0.511  10.714  19.427  0.00  0.00    +0.000 NA
ATOM      7  C   UNL     1       1.226   9.643  19.224  0.00  0.00    +0.000 A 
ATOM      8  S   UNL     1       1.882   8.857  17.857  0.00  0.00    +0.000 S 
ENDROOT
BRANCH   1  12
ATOM      9  C   UNL     1       2.457   2.761  17.391  0.00  0.00    +0.000 C 
ATOM     10  N   UNL     1       2.847   4.118  17.708  0.00  0.00    +0.000 N 
ATOM     11  C   UNL     1       2.020   5.047  18.274  0.00  0.00    +0.000 A 
ATOM     12  C   UNL     1       2.706   6.244  18.397  0.00  0.00    +0.000 A 
ATOM     13  C   UNL     1       4.034   5.997  17.898  0.00  0.00    +0.000 A 
ATOM     14  C   UNL     1       5.198   6.789  17.762  0.00  0.00    +0.000 A 
ATOM     15  C   UNL     1       6.349   6.234  17.191  0.00  0.00    +0.000 A 
ATOM     16 CL   UNL     1       7.754   7.213  17.000  0.00  0.00    +0.000 Cl
ATOM     17  C   UNL     1       6.371   4.912  16.766  0.00  0.00    +0.000 A 
ATOM     18  C   UNL     1       5.242   4.101  16.903  0.00  0.00    +0.000 A 
ATOM     19  C   UNL     1       4.085   4.666  17.467  0.00  0.00    +0.000 A 
ENDBRANCH   1  12
BRANCH   5  20
ATOM     20  C   UNL     1      -0.915  11.380  21.370  0.00  0.00    +0.000 A 
ATOM     21  C   UNL     1      -1.191  11.287  22.741  0.00  0.00    +0.000 A 
ATOM     22  C   UNL     1      -2.352  11.850  23.267  0.00  0.00    +0.000 A 
ATOM     23  C   UNL     1      -3.239  12.528  22.418  0.00  0.00    +0.000 A 
ATOM     24  C   UNL     1      -2.930  12.707  21.063  0.00  0.00    +0.000 A 
ATOM     25  C   UNL     1      -1.765  12.136  20.548  0.00  0.00    +0.000 A 
BRANCH  23  26
ATOM     26  N   UNL     1      -4.528  12.998  22.938  0.00  0.00    +0.000 N 
ATOM     27  O   UNL     1      -5.546  12.375  22.603  0.00  0.00    +0.000 OA
ATOM     28  O   UNL     1      -4.526  14.003  23.661  0.00  0.00    +0.000 OA
ENDBRANCH  23  26
ENDBRANCH   5  20
TORSDOF 3
ENDMDL
MODEL 3
REMARK VINA RESULT:      -8.4      0.728      1.171
REMARK  Name = 
REMARK  4 active torsions:
REMARK  status: ('A' for Active; 'I' for Inactive)
REMARK    1  A    between atoms: C_1  and  N_2
REMARK    2  A    between atoms: C_4  and  C_5
REMARK    3  A    between atoms: C_9  and  C_10
REMARK    4  A    between atoms: C_13  and  N_14
REMARK                            x       y       z     vdW  Elec       q    Type
REMARK                         _______ _______ _______ _____ _____    ______ ____
ROOT
ATOM      1  C   UNL     1       2.196   7.788  19.079  0.00  0.00    +0.000 A 
ATOM      2  N   UNL     1       1.835   7.924  20.325  0.00  0.00    +0.000 NA
ATOM      3  N   UNL     1       1.196   9.110  20.377  0.00  0.00    +0.000 N 
ATOM      4  C   UNL     1       0.459   9.685  21.360  0.00  0.00    +0.000 A 
ATOM      5  C   UNL     1      -0.163  10.758  20.732  0.00  0.00    +0.000 A 
ATOM      6  N   UNL     1       0.259  10.890  19.416  0.00  0.00    +0.000 NA
ATOM      7  C   UNL     1       1.065   9.876  19.268  0.00  0.00    +0.000 A 
ATOM      8  S   UNL     1       1.835   9.114  17.948  0.00  0.00    +0.000 S 
ENDROOT
BRANCH   1  12
ATOM      9  C   UNL     1       5.053   4.776  16.345  0.00  0.00    +0.000 C 
ATOM     10  N   UNL     1       4.119   5.223  17.355  0.00  0.00    +0.000 N 
ATOM     11  C   UNL     1       3.700   6.516  17.501  0.00  0.00    +0.000 A 
ATOM     12  C   UNL     1       2.845   6.591  18.588  0.00  0.00    +0.000 A 
ATOM     13  C   UNL     1       2.729   5.250  19.098  0.00  0.00    +0.000 A 
ATOM     14  C   UNL     1       2.013   4.661  20.167  0.00  0.00    +0.000 A 
ATOM     15  C   UNL     1       2.148   3.292  20.419  0.00  0.00    +0.000 A 
ATOM     16 CL   UNL     1       1.297   2.587  21.742  0.00  0.00    +0.000 Cl
ATOM     17  C   UNL     1       2.968   2.496  19.629  0.00  0.00    +0.000 A 
ATOM     18  C   UNL     1       3.674   3.046  18.557  0.00  0.00    +0.000 A 
ATOM     19  C   UNL     1       3.543   4.425  18.314  0.00  0.00    +0.000 A 
ENDBRANCH   1  12
BRANCH   5  20
ATOM     20  C   UNL     1      -1.291  11.484  21.287  0.00  0.00    +0.000 A 
ATOM     21  C   UNL     1      -2.089  12.313  20.486  0.00  0.00    +0.000 A 
ATOM     22  C   UNL     1      -2.991  13.200  21.068  0.00  0.00    +0.000 A 
ATOM     23  C   UNL     1      -3.111  13.250  22.465  0.00  0.00    +0.000 A 
ATOM     24  C   UNL     1      -2.386  12.363  23.272  0.00  0.00    +0.000 A 
ATOM     25  C   UNL     1      -1.484  11.480  22.677  0.00  0.00    +0.000 A 
BRANCH  23  26
ATOM     26  N   UNL     1      -3.952  14.278  23.087  0.00  0.00    +0.000 N 
ATOM     27  O   UNL     1      -4.043  14.278  24.323  0.00  0.00    +0.000 OA
ATOM     28  O   UNL     1      -4.542  15.071  22.340  0.00  0.00    +0.000 OA
ENDBRANCH  23  26
ENDBRANCH   5  20
TORSDOF 3
ENDMDL
MODEL 4
REMARK VINA RESULT:      -8.4      1.191      1.540
REMARK  Name = 
REMARK  4 active torsions:
REMARK  status: ('A' for Active; 'I' for Inactive)
REMARK    1  A    between atoms: C_1  and  N_2
REMARK    2  A    between atoms: C_4  and  C_5
REMARK    3  A    between atoms: C_9  and  C_10
REMARK    4  A    between atoms: C_13  and  N_14
REMARK                            x       y       z     vdW  Elec       q    Type
REMARK                         _______ _______ _______ _____ _____    ______ ____
ROOT
ATOM      1  C   UNL     1       2.516   7.689  18.656  0.00  0.00    +0.000 A 
ATOM      2  N   UNL     1       2.159   7.672  19.911  0.00  0.00    +0.000 NA
ATOM      3  N   UNL     1       1.500   8.831  20.103  0.00  0.00    +0.000 N 
ATOM      4  C   UNL     1       0.757   9.274  21.149  0.00  0.00    +0.000 A 
ATOM      5  C   UNL     1       0.114  10.401  20.652  0.00  0.00    +0.000 A 
ATOM      6  N   UNL     1       0.527  10.695  19.361  0.00  0.00    +0.000 NA
ATOM      7  C   UNL     1       1.350   9.720  19.092  0.00  0.00    +0.000 A 
ATOM      8  S   UNL     1       2.126   9.132  17.689  0.00  0.00    +0.000 S 
ENDROOT
BRANCH   1  12
ATOM      9  C   UNL     1       5.841   5.051  16.067  0.00  0.00    +0.000 C 
ATOM     10  N   UNL     1       4.669   5.374  16.852  0.00  0.00    +0.000 N 
ATOM     11  C   UNL     1       4.339   6.635  17.265  0.00  0.00    +0.000 A 
ATOM     12  C   UNL     1       3.184   6.569  18.027  0.00  0.00    +0.000 A 
ATOM     13  C   UNL     1       2.791   5.185  18.039  0.00  0.00    +0.000 A 
ATOM     14  C   UNL     1       1.715   4.472  18.618  0.00  0.00    +0.000 A 
ATOM     15  C   UNL     1       1.640   3.084  18.460  0.00  0.00    +0.000 A 
ATOM     16 CL   UNL     1       0.344   2.217  19.194  0.00  0.00    +0.000 Cl
ATOM     17  C   UNL     1       2.602   2.393  17.734  0.00  0.00    +0.000 A 
ATOM     18  C   UNL     1       3.666   3.073  17.137  0.00  0.00    +0.000 A 
ATOM     19  C   UNL     1       3.743   4.466  17.307  0.00  0.00    +0.000 A 
ENDBRANCH   1  12
BRANCH   5  20
ATOM     20  C   UNL     1      -1.024  11.038  21.292  0.00  0.00    +0.000 A 
ATOM     21  C   UNL     1      -1.878  11.889  20.579  0.00  0.00    +0.000 A 
ATOM     22  C   UNL     1      -2.797  12.693  21.251  0.00  0.00    +0.000 A 
ATOM     23  C   UNL     1      -2.874  12.634  22.651  0.00  0.00    +0.000 A 
ATOM     24  C   UNL     1      -2.091  11.721  23.368  0.00  0.00    +0.000 A 
ATOM     25  C   UNL     1      -1.173  10.922  22.683  0.00  0.00    +0.000 A 
BRANCH  23  26
ATOM     26  N   UNL     1      -3.735  13.578  23.372  0.00  0.00    +0.000 N 
ATOM     27  O   UNL     1      -4.244  13.196  24.436  0.00  0.00    +0.000 OA
ATOM     28  O   UNL     1      -3.924  14.691  22.863  0.00  0.00    +0.000 OA
ENDBRANCH  23  26
ENDBRANCH   5  20
TORSDOF 3
ENDMDL
MODEL 5
REMARK VINA RESULT:      -8.2      2.184      2.989
REMARK  Name = 
REMARK  4 active torsions:
REMARK  status: ('A' for Active; 'I' for Inactive)
REMARK    1  A    between atoms: C_1  and  N_2
REMARK    2  A    between atoms: C_4  and  C_5
REMARK    3  A    between atoms: C_9  and  C_10
REMARK    4  A    between atoms: C_13  and  N_14
REMARK                            x       y       z     vdW  Elec       q    Type
REMARK                         _______ _______ _______ _____ _____    ______ ____
ROOT
ATOM      1  C   UNL     1       2.189   7.377  18.948  0.00  0.00    +0.000 A 
ATOM      2  N   UNL     1       1.866   7.502  20.206  0.00  0.00    +0.000 NA
ATOM      3  N   UNL     1       1.313   8.726  20.305  0.00  0.00    +0.000 N 
ATOM      4  C   UNL     1       0.639   9.323  21.321  0.00  0.00    +0.000 A 
ATOM      5  C   UNL     1       0.079  10.453  20.736  0.00  0.00    +0.000 A 
ATOM      6  N   UNL     1       0.480  10.594  19.415  0.00  0.00    +0.000 NA
ATOM      7  C   UNL     1       1.210   9.531  19.221  0.00  0.00    +0.000 A 
ATOM      8  S   UNL     1       1.896   8.756  17.862  0.00  0.00    +0.000 S 
ENDROOT
BRANCH   1  12
ATOM      9  C   UNL     1       2.558   2.659  17.424  0.00  0.00    +0.000 C 
ATOM     10  N   UNL     1       2.922   4.025  17.733  0.00  0.00    +0.000 N 
ATOM     11  C   UNL     1       2.078   4.941  18.295  0.00  0.00    +0.000 A 
ATOM     12  C   UNL     1       2.742   6.152  18.410  0.00  0.00    +0.000 A 
ATOM     13  C   UNL     1       4.073   5.927  17.910  0.00  0.00    +0.000 A 
ATOM     14  C   UNL     1       5.221   6.740  17.767  0.00  0.00    +0.000 A 
ATOM     15  C   UNL     1       6.382   6.205  17.198  0.00  0.00    +0.000 A 
ATOM     16 CL   UNL     1       7.768   7.209  16.998  0.00  0.00    +0.000 Cl
ATOM     17  C   UNL     1       6.428   4.881  16.779  0.00  0.00    +0.000 A 
ATOM     18  C   UNL     1       5.315   4.050  16.923  0.00  0.00    +0.000 A 
ATOM     19  C   UNL     1       4.148   4.595  17.486  0.00  0.00    +0.000 A 
ENDBRANCH   1  12
BRANCH   5  20
ATOM     20  C   UNL     1      -0.983  11.240  21.338  0.00  0.00    +0.000 A 
ATOM     21  C   UNL     1      -1.705  12.180  20.590  0.00  0.00    +0.000 A 
ATOM     22  C   UNL     1      -2.529  13.105  21.228  0.00  0.00    +0.000 A 
ATOM     23  C   UNL     1      -2.646  13.082  22.626  0.00  0.00    +0.000 A 
ATOM     24  C   UNL     1      -2.002  12.090  23.376  0.00  0.00    +0.000 A 
ATOM     25  C   UNL     1      -1.178  11.169  22.726  0.00  0.00    +0.000 A 
BRANCH  23  26
ATOM     26  N   UNL     1      -3.397  14.140  23.310  0.00  0.00    +0.000 N 
ATOM     27  O   UNL     1      -3.769  13.922  24.473  0.00  0.00    +0.000 OA
ATOM     28  O   UNL     1      -3.637  15.178  22.680  0.00  0.00    +0.000 OA
ENDBRANCH  23  26
ENDBRANCH   5  20
TORSDOF 3
ENDMDL
MODEL 6
REMARK VINA RESULT:      -8.2      4.214      5.187
REMARK  Name = 
REMARK  4 active torsions:
REMARK  status: ('A' for Active; 'I' for Inactive)
REMARK    1  A    between atoms: C_1  and  N_2
REMARK    2  A    between atoms: C_4  and  C_5
REMARK    3  A    between atoms: C_9  and  C_10
REMARK    4  A    between atoms: C_13  and  N_14
REMARK                            x       y       z     vdW  Elec       q    Type
REMARK                         _______ _______ _______ _____ _____    ______ ____
ROOT
ATOM      1  C   UNL     1       1.809   7.764  19.696  0.00  0.00    +0.000 A 
ATOM      2  N   UNL     1       2.024   8.475  18.623  0.00  0.00    +0.000 NA
ATOM      3  N   UNL     1       1.603   9.716  18.937  0.00  0.00    +0.000 N 
ATOM      4  C   UNL     1       1.743  10.898  18.285  0.00  0.00    +0.000 A 
ATOM      5  C   UNL     1       1.356  11.848  19.223  0.00  0.00    +0.000 A 
ATOM      6  N   UNL     1       0.901  11.254  20.391  0.00  0.00    +0.000 NA
ATOM      7  C   UNL     1       1.078   9.983  20.156  0.00  0.00    +0.000 A 
ATOM      8  S   UNL     1       1.034   8.554  21.089  0.00  0.00    +0.000 S 
ENDROOT
BRANCH   1  12
ATOM      9  C   UNL     1       2.225   3.103  21.374  0.00  0.00    +0.000 C 
ATOM     10  N   UNL     1       2.412   4.277  20.551  0.00  0.00    +0.000 N 
ATOM     11  C   UNL     1       1.854   5.498  20.807  0.00  0.00    +0.000 A 
ATOM     12  C   UNL     1       2.209   6.376  19.796  0.00  0.00    +0.000 A 
ATOM     13  C   UNL     1       3.055   5.632  18.900  0.00  0.00    +0.000 A 
ATOM     14  C   UNL     1       3.740   5.947  17.703  0.00  0.00    +0.000 A 
ATOM     15  C   UNL     1       4.473   4.955  17.043  0.00  0.00    +0.000 A 
ATOM     16 CL   UNL     1       5.280   5.338  15.569  0.00  0.00    +0.000 Cl
ATOM     17  C   UNL     1       4.549   3.664  17.551  0.00  0.00    +0.000 A 
ATOM     18  C   UNL     1       3.896   3.328  18.739  0.00  0.00    +0.000 A 
ATOM     19  C   UNL     1       3.152   4.326  19.393  0.00  0.00    +0.000 A 
ENDBRANCH   1  12
BRANCH   5  20
ATOM     20  C   UNL     1       1.631  13.269  19.103  0.00  0.00    +0.000 A 
ATOM     21  C   UNL     1       0.647  14.227  19.380  0.00  0.00    +0.000 A 
ATOM     22  C   UNL     1       0.833  15.558  19.012  0.00  0.00    +0.000 A 
ATOM     23  C   UNL     1       2.023  15.940  18.375  0.00  0.00    +0.000 A 
ATOM     24  C   UNL     1       3.052  15.011  18.174  0.00  0.00    +0.000 A 
ATOM     25  C   UNL     1       2.852  13.680  18.546  0.00  0.00    +0.000 A 
BRANCH  23  26
ATOM     26  N   UNL     1       2.165  17.306  17.858  0.00  0.00    +0.000 N 
ATOM     27  O   UNL     1       1.833  18.240  18.603  0.00  0.00    +0.000 OA
ATOM     28  O   UNL     1       2.584  17.445  16.701  0.00  0.00    +0.000 OA
ENDBRANCH  23  26
ENDBRANCH   5  20
TORSDOF 3
ENDMDL
MODEL 7
REMARK VINA RESULT:      -8.1      5.565     10.151
REMARK  Name = 
REMARK  4 active torsions:
REMARK  status: ('A' for Active; 'I' for Inactive)
REMARK    1  A    between atoms: C_1  and  N_2
REMARK    2  A    between atoms: C_4  and  C_5
REMARK    3  A    between atoms: C_9  and  C_10
REMARK    4  A    between atoms: C_13  and  N_14
REMARK                            x       y       z     vdW  Elec       q    Type
REMARK                         _______ _______ _______ _____ _____    ______ ____
ROOT
ATOM      1  C   UNL     1       0.459  10.422  20.383  0.00  0.00    +0.000 A 
ATOM      2  N   UNL     1       0.875   9.296  20.894  0.00  0.00    +0.000 NA
ATOM      3  N   UNL     1       1.404   8.617  19.858  0.00  0.00    +0.000 N 
ATOM      4  C   UNL     1       2.140   7.477  19.820  0.00  0.00    +0.000 A 
ATOM      5  C   UNL     1       2.625   7.432  18.519  0.00  0.00    +0.000 A 
ATOM      6  N   UNL     1       2.121   8.472  17.752  0.00  0.00    +0.000 NA
ATOM      7  C   UNL     1       1.403   9.142  18.610  0.00  0.00    +0.000 A 
ATOM      8  S   UNL     1       0.634  10.667  18.629  0.00  0.00    +0.000 S 
ENDROOT
BRANCH   1  12
ATOM      9  C   UNL     1      -2.571  12.862  23.479  0.00  0.00    +0.000 C 
ATOM     10  N   UNL     1      -1.470  12.591  22.580  0.00  0.00    +0.000 N 
ATOM     11  C   UNL     1      -1.271  11.400  21.940  0.00  0.00    +0.000 A 
ATOM     12  C   UNL     1      -0.104  11.479  21.197  0.00  0.00    +0.000 A 
ATOM     13  C   UNL     1       0.402  12.813  21.389  0.00  0.00    +0.000 A 
ATOM     14  C   UNL     1       1.530  13.517  20.906  0.00  0.00    +0.000 A 
ATOM     15  C   UNL     1       1.755  14.833  21.323  0.00  0.00    +0.000 A 
ATOM     16 CL   UNL     1       3.148  15.674  20.756  0.00  0.00    +0.000 Cl
ATOM     17  C   UNL     1       0.881  15.465  22.198  0.00  0.00    +0.000 A 
ATOM     18  C   UNL     1      -0.250  14.801  22.678  0.00  0.00    +0.000 A 
ATOM     19  C   UNL     1      -0.466  13.475  22.264  0.00  0.00    +0.000 A 
ENDBRANCH   1  12
BRANCH   5  20
ATOM     20  C   UNL     1       3.712   6.572  18.084  0.00  0.00    +0.000 A 
ATOM     21  C   UNL     1       4.060   5.420  18.802  0.00  0.00    +0.000 A 
ATOM     22  C   UNL     1       5.255   4.755  18.533  0.00  0.00    +0.000 A 
ATOM     23  C   UNL     1       6.104   5.237  17.524  0.00  0.00    +0.000 A 
ATOM     24  C   UNL     1       5.724   6.332  16.738  0.00  0.00    +0.000 A 
ATOM     25  C   UNL     1       4.525   6.990  17.019  0.00  0.00    +0.000 A 
BRANCH  23  26
ATOM     26  N   UNL     1       7.425   4.628  17.334  0.00  0.00    +0.000 N 
ATOM     27  O   UNL     1       8.099   4.389  18.346  0.00  0.00    +0.000 OA
ATOM     28  O   UNL     1       7.799   4.412  16.173  0.00  0.00    +0.000 OA
ENDBRANCH  23  26
ENDBRANCH   5  20
TORSDOF 3
ENDMDL
MODEL 8
REMARK VINA RESULT:      -8.1      2.632      2.979
REMARK  Name = 
REMARK  4 active torsions:
REMARK  status: ('A' for Active; 'I' for Inactive)
REMARK    1  A    between atoms: C_1  and  N_2
REMARK    2  A    between atoms: C_4  and  C_5
REMARK    3  A    between atoms: C_9  and  C_10
REMARK    4  A    between atoms: C_13  and  N_14
REMARK                            x       y       z     vdW  Elec       q    Type
REMARK                         _______ _______ _______ _____ _____    ______ ____
ROOT
ATOM      1  C   UNL     1       2.156   7.879  18.828  0.00  0.00    +0.000 A 
ATOM      2  N   UNL     1       1.753   8.967  18.231  0.00  0.00    +0.000 NA
ATOM      3  N   UNL     1       1.089   9.660  19.177  0.00  0.00    +0.000 N 
ATOM      4  C   UNL     1       0.612  10.930  19.185  0.00  0.00    +0.000 A 
ATOM      5  C   UNL     1       0.285  11.160  20.516  0.00  0.00    +0.000 A 
ATOM      6  N   UNL     1       0.470  10.023  21.288  0.00  0.00    +0.000 NA
ATOM      7  C   UNL     1       0.954   9.167  20.432  0.00  0.00    +0.000 A 
ATOM      8  S   UNL     1       1.691   7.630  20.528  0.00  0.00    +0.000 S 
ENDROOT
BRANCH   1  12
ATOM      9  C   UNL     1       5.922   5.853  16.294  0.00  0.00    +0.000 C 
ATOM     10  N   UNL     1       4.674   5.977  17.014  0.00  0.00    +0.000 N 
ATOM     11  C   UNL     1       4.173   7.154  17.496  0.00  0.00    +0.000 A 
ATOM     12  C   UNL     1       2.988   6.897  18.166  0.00  0.00    +0.000 A 
ATOM     13  C   UNL     1       2.759   5.481  18.045  0.00  0.00    +0.000 A 
ATOM     14  C   UNL     1       1.740   4.607  18.490  0.00  0.00    +0.000 A 
ATOM     15  C   UNL     1       1.838   3.237  18.224  0.00  0.00    +0.000 A 
ATOM     16 CL   UNL     1       0.609   2.174  18.794  0.00  0.00    +0.000 Cl
ATOM     17  C   UNL     1       2.918   2.721  17.518  0.00  0.00    +0.000 A 
ATOM     18  C   UNL     1       3.931   3.562  17.053  0.00  0.00    +0.000 A 
ATOM     19  C   UNL     1       3.833   4.937  17.332  0.00  0.00    +0.000 A 
ENDBRANCH   1  12
BRANCH   5  20
ATOM     20  C   UNL     1       0.031  12.475  21.077  0.00  0.00    +0.000 A 
ATOM     21  C   UNL     1       0.784  13.591  20.687  0.00  0.00    +0.000 A 
ATOM     22  C   UNL     1       0.715  14.778  21.413  0.00  0.00    +0.000 A 
ATOM     23  C   UNL     1      -0.129  14.858  22.532  0.00  0.00    +0.000 A 
ATOM     24  C   UNL     1      -0.955  13.781  22.877  0.00  0.00    +0.000 A 
ATOM     25  C   UNL     1      -0.875  12.596  22.142  0.00  0.00    +0.000 A 
BRANCH  23  26
ATOM     26  N   UNL     1      -0.099  16.053  23.381  0.00  0.00    +0.000 N 
ATOM     27  O   UNL     1       0.102  15.893  24.593  0.00  0.00    +0.000 OA
ATOM     28  O   UNL     1      -0.302  17.149  22.842  0.00  0.00    +0.000 OA
ENDBRANCH  23  26
ENDBRANCH   5  20
TORSDOF 3
ENDMDL
MODEL 9
REMARK VINA RESULT:      -8.1      4.130      5.167
REMARK  Name = 
REMARK  4 active torsions:
REMARK  status: ('A' for Active; 'I' for Inactive)
REMARK    1  A    between atoms: C_1  and  N_2
REMARK    2  A    between atoms: C_4  and  C_5
REMARK    3  A    between atoms: C_9  and  C_10
REMARK    4  A    between atoms: C_13  and  N_14
REMARK                            x       y       z     vdW  Elec       q    Type
REMARK                         _______ _______ _______ _____ _____    ______ ____
ROOT
ATOM      1  C   UNL     1       1.871   7.574  19.593  0.00  0.00    +0.000 A 
ATOM      2  N   UNL     1       2.024   8.219  18.469  0.00  0.00    +0.000 NA
ATOM      3  N   UNL     1       1.618   9.477  18.729  0.00  0.00    +0.000 N 
ATOM      4  C   UNL     1       1.718  10.617  17.999  0.00  0.00    +0.000 A 
ATOM      5  C   UNL     1       1.383  11.623  18.897  0.00  0.00    +0.000 A 
ATOM      6  N   UNL     1       0.996  11.101  20.124  0.00  0.00    +0.000 NA
ATOM      7  C   UNL     1       1.162   9.819  19.957  0.00  0.00    +0.000 A 
ATOM      8  S   UNL     1       1.174   8.449  20.977  0.00  0.00    +0.000 S 
ENDROOT
BRANCH   1  12
ATOM      9  C   UNL     1       2.343   3.007  21.497  0.00  0.00    +0.000 C 
ATOM     10  N   UNL     1       2.508   4.138  20.611  0.00  0.00    +0.000 N 
ATOM     11  C   UNL     1       1.950   5.369  20.817  0.00  0.00    +0.000 A 
ATOM     12  C   UNL     1       2.279   6.195  19.754  0.00  0.00    +0.000 A 
ATOM     13  C   UNL     1       3.109   5.409  18.880  0.00  0.00    +0.000 A 
ATOM     14  C   UNL     1       3.767   5.666  17.654  0.00  0.00    +0.000 A 
ATOM     15  C   UNL     1       4.491   4.644  17.030  0.00  0.00    +0.000 A 
ATOM     16 CL   UNL     1       5.264   4.954  15.522  0.00  0.00    +0.000 Cl
ATOM     17  C   UNL     1       4.583   3.381  17.601  0.00  0.00    +0.000 A 
ATOM     18  C   UNL     1       3.958   3.103  18.819  0.00  0.00    +0.000 A 
ATOM     19  C   UNL     1       3.223   4.130  19.437  0.00  0.00    +0.000 A 
ENDBRANCH   1  12
BRANCH   5  20
ATOM     20  C   UNL     1       1.647  13.034  18.676  0.00  0.00    +0.000 A 
ATOM     21  C   UNL     1       2.903  13.480  18.242  0.00  0.00    +0.000 A 
ATOM     22  C   UNL     1       3.224  14.835  18.288  0.00  0.00    +0.000 A 
ATOM     23  C   UNL     1       2.276  15.757  18.756  0.00  0.00    +0.000 A 
ATOM     24  C   UNL     1       0.987  15.335  19.105  0.00  0.00    +0.000 A 
ATOM     25  C   UNL     1       0.678  13.974  19.057  0.00  0.00    +0.000 A 
BRANCH  23  26
ATOM     26  N   UNL     1       2.657  17.162  18.939  0.00  0.00    +0.000 N 
ATOM     27  O   UNL     1       1.818  18.028  18.650  0.00  0.00    +0.000 OA
ATOM     28  O   UNL     1       3.801  17.401  19.348  0.00  0.00    +0.000 OA
ENDBRANCH  23  26
ENDBRANCH   5  20
TORSDOF 3
ENDMDL
