MODEL 1
REMARK VINA RESULT:      -7.3      0.000      0.000
REMARK  Name = 
REMARK  5 active torsions:
REMARK  status: ('A' for Active; 'I' for Inactive)
REMARK    1  A    between atoms: C_2  and  C_3
REMARK    2  A    between atoms: C_3  and  N_4
REMARK    3  A    between atoms: C_15  and  C_16
REMARK    4  A    between atoms: C_15  and  C_21
REMARK    5  A    between atoms: C_17  and  C_18
REMARK                            x       y       z     vdW  Elec       q    Type
REMARK                         _______ _______ _______ _____ _____    ______ ____
ROOT
ATOM      1  N   UNL     1       3.592   3.999  19.712  0.00  0.00    +0.000 N 
ATOM      2  C   UNL     1       4.526   4.787  19.030  0.00  0.00    +0.000 A 
ATOM      3  C   UNL     1       5.875   4.894  19.415  0.00  0.00    +0.000 A 
ATOM      4  C   UNL     1       6.778   5.699  18.709  0.00  0.00    +0.000 A 
ATOM      5 CL   UNL     1       8.426   5.766  19.204  0.00  0.00    +0.000 Cl
ATOM      6  C   UNL     1       6.363   6.439  17.609  0.00  0.00    +0.000 A 
ATOM      7  C   UNL     1       5.041   6.347  17.190  0.00  0.00    +0.000 A 
ATOM      8  C   UNL     1       4.149   5.519  17.881  0.00  0.00    +0.000 A 
ATOM      9  N   UNL     1       2.867   5.361  17.348  0.00  0.00    +0.000 N 
ATOM     10  C   UNL     1       1.878   4.633  17.974  0.00  0.00    +0.000 C 
ATOM     11  O   UNL     1       0.854   4.405  17.331  0.00  0.00    +0.000 OA
ATOM     12  C   UNL     1       2.109   4.323  19.487  0.00  0.00    +0.000 C 
ATOM     13  H   UNL     1       2.652   5.700  16.420  0.00  0.00    +0.000 HD
ENDROOT
BRANCH  12  14
ATOM     14  C   UNL     1       1.016   3.269  19.947  0.00  0.00    +0.000 C 
ATOM     15  F   UNL     1       1.208   2.779  21.196  0.00  0.00    +0.000 F 
ATOM     16  F   UNL     1      -0.231   3.819  19.990  0.00  0.00    +0.000 F 
ATOM     17  F   UNL     1       0.907   2.168  19.169  0.00  0.00    +0.000 F 
ENDBRANCH  12  14
BRANCH  12  18
ATOM     18  C   UNL     1       1.840   5.622  20.205  0.00  0.00    +0.000 C 
ATOM     19  C   UNL     1       1.626   6.695  20.700  0.00  0.00    +0.000 C 
BRANCH  19  20
ATOM     20  C   UNL     1       1.370   7.992  21.260  0.00  0.00    +0.000 C 
ATOM     21  C   UNL     1       0.851   9.084  20.359  0.00  0.00    +0.000 C 
ATOM     22  C   UNL     1      -0.055   8.471  21.386  0.00  0.00    +0.000 C 
ENDBRANCH  19  20
ENDBRANCH  12  18
BRANCH   1  23
ATOM     23  C   UNL     1       4.007   2.876  20.540  0.00  0.00    +0.000 C 
BRANCH  23  25
ATOM     24  C   UNL     1       3.822   1.354  18.530  0.00  0.00    +0.000 C 
ATOM     25  C   UNL     1       4.460   1.762  19.635  0.00  0.00    +0.000 C 
ENDBRANCH  23  25
ENDBRANCH   1  23
TORSDOF 5
ENDMDL
MODEL 2
REMARK VINA RESULT:      -6.7      2.721      5.343
REMARK  Name = 
REMARK  5 active torsions:
REMARK  status: ('A' for Active; 'I' for Inactive)
REMARK    1  A    between atoms: C_2  and  C_3
REMARK    2  A    between atoms: C_3  and  N_4
REMARK    3  A    between atoms: C_15  and  C_16
REMARK    4  A    between atoms: C_15  and  C_21
REMARK    5  A    between atoms: C_17  and  C_18
REMARK                            x       y       z     vdW  Elec       q    Type
REMARK                         _______ _______ _______ _____ _____    ______ ____
ROOT
ATOM      1  N   UNL     1       4.313   5.930  17.728  0.00  0.00    +0.000 N 
ATOM      2  C   UNL     1       5.629   6.321  18.006  0.00  0.00    +0.000 A 
ATOM      3  C   UNL     1       6.123   7.612  17.746  0.00  0.00    +0.000 A 
ATOM      4  C   UNL     1       7.448   7.962  18.033  0.00  0.00    +0.000 A 
ATOM      5 CL   UNL     1       7.991   9.567  17.726  0.00  0.00    +0.000 Cl
ATOM      6  C   UNL     1       8.330   7.033  18.571  0.00  0.00    +0.000 A 
ATOM      7  C   UNL     1       7.873   5.751  18.855  0.00  0.00    +0.000 A 
ATOM      8  C   UNL     1       6.540   5.414  18.593  0.00  0.00    +0.000 A 
ATOM      9  N   UNL     1       6.095   4.158  19.013  0.00  0.00    +0.000 N 
ATOM     10  C   UNL     1       4.829   3.682  18.748  0.00  0.00    +0.000 C 
ATOM     11  O   UNL     1       4.484   2.650  19.321  0.00  0.00    +0.000 OA
ATOM     12  C   UNL     1       4.040   4.425  17.623  0.00  0.00    +0.000 C 
ATOM     13  H   UNL     1       6.667   3.588  19.621  0.00  0.00    +0.000 HD
ENDROOT
BRANCH  12  14
ATOM     14  C   UNL     1       2.539   3.914  17.655  0.00  0.00    +0.000 C 
ATOM     15  F   UNL     1       1.687   4.644  16.892  0.00  0.00    +0.000 F 
ATOM     16  F   UNL     1       2.424   2.646  17.165  0.00  0.00    +0.000 F 
ATOM     17  F   UNL     1       1.958   3.892  18.876  0.00  0.00    +0.000 F 
ENDBRANCH  12  14
BRANCH  12  18
ATOM     18  C   UNL     1       4.666   3.965  16.329  0.00  0.00    +0.000 C 
ATOM     19  C   UNL     1       5.234   3.641  15.322  0.00  0.00    +0.000 C 
BRANCH  19  20
ATOM     20  C   UNL     1       5.943   3.271  14.129  0.00  0.00    +0.000 C 
ATOM     21  C   UNL     1       5.399   3.712  12.794  0.00  0.00    +0.000 C 
ATOM     22  C   UNL     1       6.652   4.337  13.334  0.00  0.00    +0.000 C 
ENDBRANCH  19  20
ENDBRANCH  12  18
BRANCH   1  23
ATOM     23  C   UNL     1       3.239   6.907  17.617  0.00  0.00    +0.000 C 
BRANCH  23  25
ATOM     24  C   UNL     1       1.903   8.183  19.341  0.00  0.00    +0.000 C 
ATOM     25  C   UNL     1       2.670   7.144  18.990  0.00  0.00    +0.000 C 
ENDBRANCH  23  25
ENDBRANCH   1  23
TORSDOF 5
ENDMDL
MODEL 3
REMARK VINA RESULT:      -6.0      7.409      9.928
REMARK  Name = 
REMARK  5 active torsions:
REMARK  status: ('A' for Active; 'I' for Inactive)
REMARK    1  A    between atoms: C_2  and  C_3
REMARK    2  A    between atoms: C_3  and  N_4
REMARK    3  A    between atoms: C_15  and  C_16
REMARK    4  A    between atoms: C_15  and  C_21
REMARK    5  A    between atoms: C_17  and  C_18
REMARK                            x       y       z     vdW  Elec       q    Type
REMARK                         _______ _______ _______ _____ _____    ______ ____
ROOT
ATOM      1  N   UNL     1      -0.888  11.845  21.357  0.00  0.00    +0.000 N 
ATOM      2  C   UNL     1      -2.060  12.478  21.787  0.00  0.00    +0.000 A 
ATOM      3  C   UNL     1      -2.771  12.089  22.937  0.00  0.00    +0.000 A 
ATOM      4  C   UNL     1      -3.945  12.745  23.331  0.00  0.00    +0.000 A 
ATOM      5 CL   UNL     1      -4.757  12.249  24.766  0.00  0.00    +0.000 Cl
ATOM      6  C   UNL     1      -4.459  13.796  22.582  0.00  0.00    +0.000 A 
ATOM      7  C   UNL     1      -3.775  14.218  21.448  0.00  0.00    +0.000 A 
ATOM      8  C   UNL     1      -2.587  13.579  21.074  0.00  0.00    +0.000 A 
ATOM      9  N   UNL     1      -1.870  14.119  20.003  0.00  0.00    +0.000 N 
ATOM     10  C   UNL     1      -0.729  13.538  19.495  0.00  0.00    +0.000 C 
ATOM     11  O   UNL     1      -0.078  14.193  18.681  0.00  0.00    +0.000 OA
ATOM     12  C   UNL     1      -0.483  12.048  19.892  0.00  0.00    +0.000 C 
ATOM     13  H   UNL     1      -2.117  15.023  19.625  0.00  0.00    +0.000 HD
ENDROOT
BRANCH  12  14
ATOM     14  C   UNL     1       0.985  11.653  19.440  0.00  0.00    +0.000 C 
ATOM     15  F   UNL     1       1.279  10.338  19.592  0.00  0.00    +0.000 F 
ATOM     16  F   UNL     1       1.190  11.891  18.113  0.00  0.00    +0.000 F 
ATOM     17  F   UNL     1       1.985  12.295  20.088  0.00  0.00    +0.000 F 
ENDBRANCH  12  14
BRANCH  12  18
ATOM     18  C   UNL     1      -1.459  11.250  19.063  0.00  0.00    +0.000 C 
ATOM     19  C   UNL     1      -2.224  10.671  18.340  0.00  0.00    +0.000 C 
BRANCH  19  20
ATOM     20  C   UNL     1      -3.131  10.002  17.451  0.00  0.00    +0.000 C 
ATOM     21  C   UNL     1      -3.854  10.811  16.404  0.00  0.00    +0.000 C 
ATOM     22  C   UNL     1      -2.766   9.863  15.994  0.00  0.00    +0.000 C 
ENDBRANCH  19  20
ENDBRANCH  12  18
BRANCH   1  23
ATOM     23  C   UNL     1      -0.052  11.089  22.279  0.00  0.00    +0.000 C 
BRANCH  23  25
ATOM     24  C   UNL     1      -0.111   8.614  21.773  0.00  0.00    +0.000 C 
ATOM     25  C   UNL     1      -0.607   9.695  22.388  0.00  0.00    +0.000 C 
ENDBRANCH  23  25
ENDBRANCH   1  23
TORSDOF 5
ENDMDL
MODEL 4
REMARK VINA RESULT:      -5.9      9.942     11.456
REMARK  Name = 
REMARK  5 active torsions:
REMARK  status: ('A' for Active; 'I' for Inactive)
REMARK    1  A    between atoms: C_2  and  C_3
REMARK    2  A    between atoms: C_3  and  N_4
REMARK    3  A    between atoms: C_15  and  C_16
REMARK    4  A    between atoms: C_15  and  C_21
REMARK    5  A    between atoms: C_17  and  C_18
REMARK                            x       y       z     vdW  Elec       q    Type
REMARK                         _______ _______ _______ _____ _____    ______ ____
ROOT
ATOM      1  N   UNL     1       9.892  12.409  19.968  0.00  0.00    +0.000 N 
ATOM      2  C   UNL     1       9.458  12.831  21.230  0.00  0.00    +0.000 A 
ATOM      3  C   UNL     1       8.707  12.020  22.100  0.00  0.00    +0.000 A 
ATOM      4  C   UNL     1       8.285  12.481  23.353  0.00  0.00    +0.000 A 
ATOM      5 CL   UNL     1       7.397  11.433  24.392  0.00  0.00    +0.000 Cl
ATOM      6  C   UNL     1       8.581  13.771  23.773  0.00  0.00    +0.000 A 
ATOM      7  C   UNL     1       9.334  14.597  22.947  0.00  0.00    +0.000 A 
ATOM      8  C   UNL     1       9.778  14.123  21.707  0.00  0.00    +0.000 A 
ATOM      9  N   UNL     1      10.637  14.941  20.970  0.00  0.00    +0.000 N 
ATOM     10  C   UNL     1      11.081  14.618  19.706  0.00  0.00    +0.000 C 
ATOM     11  O   UNL     1      11.975  15.315  19.228  0.00  0.00    +0.000 OA
ATOM     12  C   UNL     1      10.281  13.501  18.963  0.00  0.00    +0.000 C 
ATOM     13  H   UNL     1      11.045  15.765  21.389  0.00  0.00    +0.000 HD
ENDROOT
BRANCH  12  14
ATOM     14  C   UNL     1      11.094  13.094  17.664  0.00  0.00    +0.000 C 
ATOM     15  F   UNL     1      11.336  14.123  16.814  0.00  0.00    +0.000 F 
ATOM     16  F   UNL     1      12.333  12.614  17.970  0.00  0.00    +0.000 F 
ATOM     17  F   UNL     1      10.514  12.150  16.887  0.00  0.00    +0.000 F 
ENDBRANCH  12  14
BRANCH  12  18
ATOM     18  C   UNL     1       8.995  14.158  18.525  0.00  0.00    +0.000 C 
ATOM     19  C   UNL     1       7.978  14.638  18.104  0.00  0.00    +0.000 C 
BRANCH  19  20
ATOM     20  C   UNL     1       6.766  15.193  17.570  0.00  0.00    +0.000 C 
ATOM     21  C   UNL     1       5.453  14.532  17.906  0.00  0.00    +0.000 C 
ATOM     22  C   UNL     1       5.791  15.866  18.504  0.00  0.00    +0.000 C 
ENDBRANCH  19  20
ENDBRANCH  12  18
BRANCH   1  23
ATOM     23  C   UNL     1      10.039  10.996  19.649  0.00  0.00    +0.000 C 
BRANCH  23  25
ATOM     24  C   UNL     1       8.642   9.355  18.328  0.00  0.00    +0.000 C 
ATOM     25  C   UNL     1       8.799  10.543  18.926  0.00  0.00    +0.000 C 
ENDBRANCH  23  25
ENDBRANCH   1  23
TORSDOF 5
ENDMDL
MODEL 5
REMARK VINA RESULT:      -5.8      6.984      9.581
REMARK  Name = 
REMARK  5 active torsions:
REMARK  status: ('A' for Active; 'I' for Inactive)
REMARK    1  A    between atoms: C_2  and  C_3
REMARK    2  A    between atoms: C_3  and  N_4
REMARK    3  A    between atoms: C_15  and  C_16
REMARK    4  A    between atoms: C_15  and  C_21
REMARK    5  A    between atoms: C_17  and  C_18
REMARK                            x       y       z     vdW  Elec       q    Type
REMARK                         _______ _______ _______ _____ _____    ______ ____
ROOT
ATOM      1  N   UNL     1      -1.222  11.079  19.344  0.00  0.00    +0.000 N 
ATOM      2  C   UNL     1      -2.236  11.121  18.379  0.00  0.00    +0.000 A 
ATOM      3  C   UNL     1      -2.139  10.483  17.129  0.00  0.00    +0.000 A 
ATOM      4  C   UNL     1      -3.173  10.554  16.187  0.00  0.00    +0.000 A 
ATOM      5 CL   UNL     1      -3.016   9.724  14.686  0.00  0.00    +0.000 Cl
ATOM      6  C   UNL     1      -4.328  11.279  16.451  0.00  0.00    +0.000 A 
ATOM      7  C   UNL     1      -4.465  11.911  17.681  0.00  0.00    +0.000 A 
ATOM      8  C   UNL     1      -3.442  11.814  18.631  0.00  0.00    +0.000 A 
ATOM      9  N   UNL     1      -3.679  12.357  19.896  0.00  0.00    +0.000 N 
ATOM     10  C   UNL     1      -2.724  12.389  20.890  0.00  0.00    +0.000 C 
ATOM     11  O   UNL     1      -3.095  12.717  22.016  0.00  0.00    +0.000 OA
ATOM     12  C   UNL     1      -1.249  12.162  20.431  0.00  0.00    +0.000 C 
ATOM     13  H   UNL     1      -4.606  12.659  20.159  0.00  0.00    +0.000 HD
ENDROOT
BRANCH  12  14
ATOM     14  C   UNL     1      -0.354  11.970  21.726  0.00  0.00    +0.000 C 
ATOM     15  F   UNL     1       0.967  11.799  21.469  0.00  0.00    +0.000 F 
ATOM     16  F   UNL     1      -0.397  13.064  22.540  0.00  0.00    +0.000 F 
ATOM     17  F   UNL     1      -0.680  10.916  22.508  0.00  0.00    +0.000 F 
ENDBRANCH  12  14
BRANCH  12  18
ATOM     18  C   UNL     1      -0.838  13.451  19.762  0.00  0.00    +0.000 C 
ATOM     19  C   UNL     1      -0.434  14.467  19.266  0.00  0.00    +0.000 C 
BRANCH  19  20
ATOM     20  C   UNL     1       0.081  15.676  18.687  0.00  0.00    +0.000 C 
ATOM     21  C   UNL     1      -0.775  16.917  18.716  0.00  0.00    +0.000 C 
ATOM     22  C   UNL     1       0.441  16.829  19.591  0.00  0.00    +0.000 C 
ENDBRANCH  19  20
ENDBRANCH  12  18
BRANCH   1  23
ATOM     23  C   UNL     1      -0.232  10.012  19.358  0.00  0.00    +0.000 C 
BRANCH  23  25
ATOM     24  C   UNL     1       1.825   9.653  17.934  0.00  0.00    +0.000 C 
ATOM     25  C   UNL     1       0.961  10.463  18.559  0.00  0.00    +0.000 C 
ENDBRANCH  23  25
ENDBRANCH   1  23
TORSDOF 5
ENDMDL
MODEL 6
REMARK VINA RESULT:      -5.7      7.252     10.373
REMARK  Name = 
REMARK  5 active torsions:
REMARK  status: ('A' for Active; 'I' for Inactive)
REMARK    1  A    between atoms: C_2  and  C_3
REMARK    2  A    between atoms: C_3  and  N_4
REMARK    3  A    between atoms: C_15  and  C_16
REMARK    4  A    between atoms: C_15  and  C_21
REMARK    5  A    between atoms: C_17  and  C_18
REMARK                            x       y       z     vdW  Elec       q    Type
REMARK                         _______ _______ _______ _____ _____    ______ ____
ROOT
ATOM      1  N   UNL     1      -2.545  12.803  20.196  0.00  0.00    +0.000 N 
ATOM      2  C   UNL     1      -3.248  12.183  19.156  0.00  0.00    +0.000 A 
ATOM      3  C   UNL     1      -4.604  11.821  19.248  0.00  0.00    +0.000 A 
ATOM      4  C   UNL     1      -5.271  11.197  18.186  0.00  0.00    +0.000 A 
ATOM      5 CL   UNL     1      -6.941  10.806  18.341  0.00  0.00    +0.000 Cl
ATOM      6  C   UNL     1      -4.604  10.894  17.006  0.00  0.00    +0.000 A 
ATOM      7  C   UNL     1      -3.267  11.250  16.873  0.00  0.00    +0.000 A 
ATOM      8  C   UNL     1      -2.612  11.900  17.925  0.00  0.00    +0.000 A 
ATOM      9  N   UNL     1      -1.310  12.352  17.698  0.00  0.00    +0.000 N 
ATOM     10  C   UNL     1      -0.536  12.938  18.677  0.00  0.00    +0.000 C 
ATOM     11  O   UNL     1       0.518  13.463  18.322  0.00  0.00    +0.000 OA
ATOM     12  C   UNL     1      -1.014  12.722  20.148  0.00  0.00    +0.000 C 
ATOM     13  H   UNL     1      -0.922  12.351  16.765  0.00  0.00    +0.000 HD
ENDROOT
BRANCH  12  14
ATOM     14  C   UNL     1      -0.166  13.679  21.087  0.00  0.00    +0.000 C 
ATOM     15  F   UNL     1      -0.406  13.514  22.411  0.00  0.00    +0.000 F 
ATOM     16  F   UNL     1       1.174  13.459  20.959  0.00  0.00    +0.000 F 
ATOM     17  F   UNL     1      -0.343  15.004  20.879  0.00  0.00    +0.000 F 
ENDBRANCH  12  14
BRANCH  12  18
ATOM     18  C   UNL     1      -0.649  11.296  20.479  0.00  0.00    +0.000 C 
ATOM     19  C   UNL     1      -0.305  10.192  20.801  0.00  0.00    +0.000 C 
BRANCH  19  20
ATOM     20  C   UNL     1       0.129   8.885  21.210  0.00  0.00    +0.000 C 
ATOM     21  C   UNL     1       1.393   8.318  20.614  0.00  0.00    +0.000 C 
ATOM     22  C   UNL     1       1.373   8.752  22.050  0.00  0.00    +0.000 C 
ENDBRANCH  19  20
ENDBRANCH  12  18
BRANCH   1  23
ATOM     23  C   UNL     1      -3.234  13.553  21.236  0.00  0.00    +0.000 C 
BRANCH  23  25
ATOM     24  C   UNL     1      -3.691  13.022  23.664  0.00  0.00    +0.000 C 
ATOM     25  C   UNL     1      -3.481  12.632  22.401  0.00  0.00    +0.000 C 
ENDBRANCH  23  25
ENDBRANCH   1  23
TORSDOF 5
ENDMDL
MODEL 7
REMARK VINA RESULT:      -5.7      5.839      8.205
REMARK  Name = 
REMARK  5 active torsions:
REMARK  status: ('A' for Active; 'I' for Inactive)
REMARK    1  A    between atoms: C_2  and  C_3
REMARK    2  A    between atoms: C_3  and  N_4
REMARK    3  A    between atoms: C_15  and  C_16
REMARK    4  A    between atoms: C_15  and  C_21
REMARK    5  A    between atoms: C_17  and  C_18
REMARK                            x       y       z     vdW  Elec       q    Type
REMARK                         _______ _______ _______ _____ _____    ______ ____
ROOT
ATOM      1  N   UNL     1       1.020  11.436  18.711  0.00  0.00    +0.000 N 
ATOM      2  C   UNL     1       1.411  10.114  18.956  0.00  0.00    +0.000 A 
ATOM      3  C   UNL     1       2.287   9.400  18.118  0.00  0.00    +0.000 A 
ATOM      4  C   UNL     1       2.649   8.076  18.394  0.00  0.00    +0.000 A 
ATOM      5 CL   UNL     1       3.752   7.260  17.353  0.00  0.00    +0.000 Cl
ATOM      6  C   UNL     1       2.136   7.413  19.501  0.00  0.00    +0.000 A 
ATOM      7  C   UNL     1       1.279   8.091  20.360  0.00  0.00    +0.000 A 
ATOM      8  C   UNL     1       0.941   9.424  20.096  0.00  0.00    +0.000 A 
ATOM      9  N   UNL     1       0.182  10.101  21.053  0.00  0.00    +0.000 N 
ATOM     10  C   UNL     1      -0.275  11.389  20.875  0.00  0.00    +0.000 C 
ATOM     11  O   UNL     1      -0.771  11.951  21.851  0.00  0.00    +0.000 OA
ATOM     12  C   UNL     1      -0.255  11.927  19.409  0.00  0.00    +0.000 C 
ATOM     13  H   UNL     1       0.023   9.694  21.965  0.00  0.00    +0.000 HD
ENDROOT
BRANCH  12  14
ATOM     14  C   UNL     1      -0.556  13.484  19.451  0.00  0.00    +0.000 C 
ATOM     15  F   UNL     1      -0.470  14.099  18.245  0.00  0.00    +0.000 F 
ATOM     16  F   UNL     1      -1.827  13.744  19.870  0.00  0.00    +0.000 F 
ATOM     17  F   UNL     1       0.253  14.211  20.255  0.00  0.00    +0.000 F 
ENDBRANCH  12  14
BRANCH  12  18
ATOM     18  C   UNL     1      -1.411  11.244  18.720  0.00  0.00    +0.000 C 
ATOM     19  C   UNL     1      -2.281  10.691  18.103  0.00  0.00    +0.000 C 
BRANCH  19  20
ATOM     20  C   UNL     1      -3.299  10.027  17.338  0.00  0.00    +0.000 C 
ATOM     21  C   UNL     1      -4.129  10.836  16.375  0.00  0.00    +0.000 C 
ATOM     22  C   UNL     1      -3.113   9.864  15.851  0.00  0.00    +0.000 C 
ENDBRANCH  19  20
ENDBRANCH  12  18
BRANCH   1  23
ATOM     23  C   UNL     1       1.828  12.327  17.891  0.00  0.00    +0.000 C 
BRANCH  23  25
ATOM     24  C   UNL     1       3.257  14.295  18.580  0.00  0.00    +0.000 C 
ATOM     25  C   UNL     1       2.788  13.058  18.790  0.00  0.00    +0.000 C 
ENDBRANCH  23  25
ENDBRANCH   1  23
TORSDOF 5
ENDMDL
MODEL 8
REMARK VINA RESULT:      -5.5      8.400     10.676
REMARK  Name = 
REMARK  5 active torsions:
REMARK  status: ('A' for Active; 'I' for Inactive)
REMARK    1  A    between atoms: C_2  and  C_3
REMARK    2  A    between atoms: C_3  and  N_4
REMARK    3  A    between atoms: C_15  and  C_16
REMARK    4  A    between atoms: C_15  and  C_21
REMARK    5  A    between atoms: C_17  and  C_18
REMARK                            x       y       z     vdW  Elec       q    Type
REMARK                         _______ _______ _______ _____ _____    ______ ____
ROOT
ATOM      1  N   UNL     1      -1.430  12.576  21.664  0.00  0.00    +0.000 N 
ATOM      2  C   UNL     1      -2.716  13.081  21.893  0.00  0.00    +0.000 A 
ATOM      3  C   UNL     1      -3.558  12.614  22.918  0.00  0.00    +0.000 A 
ATOM      4  C   UNL     1      -4.842  13.140  23.110  0.00  0.00    +0.000 A 
ATOM      5 CL   UNL     1      -5.818  12.554  24.402  0.00  0.00    +0.000 Cl
ATOM      6  C   UNL     1      -5.335  14.135  22.276  0.00  0.00    +0.000 A 
ATOM      7  C   UNL     1      -4.526  14.633  21.262  0.00  0.00    +0.000 A 
ATOM      8  C   UNL     1      -3.233  14.124  21.091  0.00  0.00    +0.000 A 
ATOM      9  N   UNL     1      -2.413  14.742  20.143  0.00  0.00    +0.000 N 
ATOM     10  C   UNL     1      -1.151  14.286  19.832  0.00  0.00    +0.000 C 
ATOM     11  O   UNL     1      -0.450  15.010  19.125  0.00  0.00    +0.000 OA
ATOM     12  C   UNL     1      -0.818  12.828  20.281  0.00  0.00    +0.000 C 
ATOM     13  H   UNL     1      -2.689  15.617  19.719  0.00  0.00    +0.000 HD
ENDROOT
BRANCH  12  14
ATOM     14  C   UNL     1       0.737  12.592  20.076  0.00  0.00    +0.000 C 
ATOM     15  F   UNL     1       1.139  11.315  20.292  0.00  0.00    +0.000 F 
ATOM     16  F   UNL     1       1.126  12.853  18.795  0.00  0.00    +0.000 F 
ATOM     17  F   UNL     1       1.547  13.334  20.866  0.00  0.00    +0.000 F 
ENDBRANCH  12  14
BRANCH  12  18
ATOM     18  C   UNL     1      -1.559  11.936  19.315  0.00  0.00    +0.000 C 
ATOM     19  C   UNL     1      -2.181  11.297  18.511  0.00  0.00    +0.000 C 
BRANCH  19  20
ATOM     20  C   UNL     1      -2.937  10.562  17.536  0.00  0.00    +0.000 C 
ATOM     21  C   UNL     1      -2.887  11.003  16.094  0.00  0.00    +0.000 C 
ATOM     22  C   UNL     1      -2.206   9.732  16.511  0.00  0.00    +0.000 C 
ENDBRANCH  19  20
ENDBRANCH  12  18
BRANCH   1  23
ATOM     23  C   UNL     1      -0.679  11.908  22.718  0.00  0.00    +0.000 C 
BRANCH  23  25
ATOM     24  C   UNL     1      -0.165   9.484  23.218  0.00  0.00    +0.000 C 
ATOM     25  C   UNL     1      -0.850  10.422  22.551  0.00  0.00    +0.000 C 
ENDBRANCH  23  25
ENDBRANCH   1  23
TORSDOF 5
ENDMDL
MODEL 9
REMARK VINA RESULT:      -5.5      7.148      9.760
REMARK  Name = 
REMARK  5 active torsions:
REMARK  status: ('A' for Active; 'I' for Inactive)
REMARK    1  A    between atoms: C_2  and  C_3
REMARK    2  A    between atoms: C_3  and  N_4
REMARK    3  A    between atoms: C_15  and  C_16
REMARK    4  A    between atoms: C_15  and  C_21
REMARK    5  A    between atoms: C_17  and  C_18
REMARK                            x       y       z     vdW  Elec       q    Type
REMARK                         _______ _______ _______ _____ _____    ______ ____
ROOT
ATOM      1  N   UNL     1      -1.000  11.436  19.464  0.00  0.00    +0.000 N 
ATOM      2  C   UNL     1      -2.073  11.331  18.570  0.00  0.00    +0.000 A 
ATOM      3  C   UNL     1      -1.995  10.640  17.348  0.00  0.00    +0.000 A 
ATOM      4  C   UNL     1      -3.089  10.563  16.477  0.00  0.00    +0.000 A 
ATOM      5 CL   UNL     1      -2.949   9.674  15.008  0.00  0.00    +0.000 Cl
ATOM      6  C   UNL     1      -4.290  11.188  16.786  0.00  0.00    +0.000 A 
ATOM      7  C   UNL     1      -4.409  11.868  17.993  0.00  0.00    +0.000 A 
ATOM      8  C   UNL     1      -3.322  11.918  18.873  0.00  0.00    +0.000 A 
ATOM      9  N   UNL     1      -3.529  12.502  20.125  0.00  0.00    +0.000 N 
ATOM     10  C   UNL     1      -2.520  12.677  21.048  0.00  0.00    +0.000 C 
ATOM     11  O   UNL     1      -2.848  13.027  22.181  0.00  0.00    +0.000 OA
ATOM     12  C   UNL     1      -1.062  12.567  20.498  0.00  0.00    +0.000 C 
ATOM     13  H   UNL     1      -4.463  12.729  20.437  0.00  0.00    +0.000 HD
ENDROOT
BRANCH  12  14
ATOM     14  C   UNL     1      -0.071  12.529  21.736  0.00  0.00    +0.000 C 
ATOM     15  F   UNL     1       1.219  12.268  21.407  0.00  0.00    +0.000 F 
ATOM     16  F   UNL     1      -0.015  13.731  22.379  0.00  0.00    +0.000 F 
ATOM     17  F   UNL     1      -0.364  11.615  22.689  0.00  0.00    +0.000 F 
ENDBRANCH  12  14
BRANCH  12  18
ATOM     18  C   UNL     1      -0.824  13.852  19.744  0.00  0.00    +0.000 C 
ATOM     19  C   UNL     1      -0.570  14.891  19.198  0.00  0.00    +0.000 C 
BRANCH  19  20
ATOM     20  C   UNL     1      -0.240  16.138  18.567  0.00  0.00    +0.000 C 
ATOM     21  C   UNL     1      -1.166  17.313  18.751  0.00  0.00    +0.000 C 
ATOM     22  C   UNL     1       0.175  17.308  19.423  0.00  0.00    +0.000 C 
ENDBRANCH  19  20
ENDBRANCH  12  18
BRANCH   1  23
ATOM     23  C   UNL     1       0.089  10.470  19.458  0.00  0.00    +0.000 C 
BRANCH  23  25
ATOM     24  C   UNL     1       0.545   8.771  21.274  0.00  0.00    +0.000 C 
ATOM     25  C   UNL     1      -0.276   9.339  20.381  0.00  0.00    +0.000 C 
ENDBRANCH  23  25
ENDBRANCH   1  23
TORSDOF 5
ENDMDL
