MODEL 1
REMARK VINA RESULT:      -7.7      0.000      0.000
REMARK  Name = 
REMARK  5 active torsions:
REMARK  status: ('A' for Active; 'I' for Inactive)
REMARK    1  A    between atoms: C_2  and  C_3
REMARK    2  A    between atoms: C_14  and  C_15
REMARK    3  A    between atoms: C_15  and  N_16
REMARK    4  A    between atoms: N_16  and  C_17
REMARK    5  A    between atoms: C_17  and  C_18
REMARK                            x       y       z     vdW  Elec       q    Type
REMARK                         _______ _______ _______ _____ _____    ______ ____
ROOT
ATOM      1  O   UNL     1       2.443   9.281  17.211  0.00  0.00    +0.000 OA
ATOM      2  C   UNL     1       2.323   8.438  18.098  0.00  0.00    +0.000 C 
ATOM      3  N   UNL     1       2.925   7.181  18.029  0.00  0.00    +0.000 N 
ATOM      4  C   UNL     1       2.770   6.060  18.959  0.00  0.00    +0.000 C 
ATOM      5  C   UNL     1       4.109   5.790  19.651  0.00  0.00    +0.000 C 
ATOM      6  C   UNL     1       5.225   5.504  18.628  0.00  0.00    +0.000 C 
ATOM      7  C   UNL     1       5.267   6.633  17.571  0.00  0.00    +0.000 C 
ATOM      8  C   UNL     1       3.892   6.919  16.962  0.00  0.00    +0.000 C 
ENDROOT
BRANCH   2   9
ATOM      9  C   UNL     1       1.483   8.819  19.267  0.00  0.00    +0.000 A 
ATOM     10  C   UNL     1       1.671   8.148  20.481  0.00  0.00    +0.000 A 
ATOM     11  C   UNL     1       0.928   8.509  21.612  0.00  0.00    +0.000 A 
ATOM     12  C   UNL     1       0.007   9.558  21.540  0.00  0.00    +0.000 A 
ATOM     13 CL   UNL     1      -0.822  10.012  22.984  0.00  0.00    +0.000 Cl
ATOM     14  C   UNL     1      -0.216  10.198  20.319  0.00  0.00    +0.000 A 
ATOM     15 CL   UNL     1      -1.299  11.534  20.146  0.00  0.00    +0.000 Cl
ATOM     16  C   UNL     1       0.477   9.784  19.179  0.00  0.00    +0.000 A 
ENDBRANCH   2   9
BRANCH   6  17
ATOM     17  C   UNL     1       5.038   4.100  18.020  0.00  0.00    +0.000 C 
BRANCH  17  18
ATOM     18  N   UNL     1       5.295   3.069  19.014  0.00  0.00    +0.000 NA
ATOM     19  H   UNL     1       5.265   3.469  19.952  0.00  0.00    +0.000 HD
BRANCH  18  20
ATOM     20  C   UNL     1       4.322   1.983  18.921  0.00  0.00    +0.000 C 
BRANCH  20  21
ATOM     21  C   UNL     1       3.008   2.396  19.523  0.00  0.00    +0.000 A 
ATOM     22  C   UNL     1       1.847   2.477  18.752  0.00  0.00    +0.000 A 
ATOM     23  C   UNL     1       0.649   2.860  19.347  0.00  0.00    +0.000 A 
ATOM     24  C   UNL     1       0.658   3.152  20.701  0.00  0.00    +0.000 A 
ATOM     25  N   UNL     1       1.759   3.091  21.480  0.00  0.00    +0.000 NA
ATOM     26  C   UNL     1       2.908   2.712  20.872  0.00  0.00    +0.000 A 
ENDBRANCH  20  21
ENDBRANCH  18  20
ENDBRANCH  17  18
ENDBRANCH   6  17
TORSDOF 5
ENDMDL
MODEL 2
REMARK VINA RESULT:      -7.6      2.603      4.352
REMARK  Name = 
REMARK  5 active torsions:
REMARK  status: ('A' for Active; 'I' for Inactive)
REMARK    1  A    between atoms: C_2  and  C_3
REMARK    2  A    between atoms: C_14  and  C_15
REMARK    3  A    between atoms: C_15  and  N_16
REMARK    4  A    between atoms: N_16  and  C_17
REMARK    5  A    between atoms: C_17  and  C_18
REMARK                            x       y       z     vdW  Elec       q    Type
REMARK                         _______ _______ _______ _____ _____    ______ ____
ROOT
ATOM      1  O   UNL     1       2.519   9.360  17.367  0.00  0.00    +0.000 OA
ATOM      2  C   UNL     1       2.304   8.481  18.199  0.00  0.00    +0.000 C 
ATOM      3  N   UNL     1       2.815   7.188  18.080  0.00  0.00    +0.000 N 
ATOM      4  C   UNL     1       2.542   6.033  18.939  0.00  0.00    +0.000 C 
ATOM      5  C   UNL     1       3.829   5.627  19.663  0.00  0.00    +0.000 C 
ATOM      6  C   UNL     1       4.963   5.315  18.667  0.00  0.00    +0.000 C 
ATOM      7  C   UNL     1       5.128   6.494  17.679  0.00  0.00    +0.000 C 
ATOM      8  C   UNL     1       3.803   6.914  17.037  0.00  0.00    +0.000 C 
ENDROOT
BRANCH   2   9
ATOM      9  C   UNL     1       1.446   8.859  19.357  0.00  0.00    +0.000 A 
ATOM     10  C   UNL     1       1.629   8.198  20.577  0.00  0.00    +0.000 A 
ATOM     11  C   UNL     1       0.869   8.557  21.697  0.00  0.00    +0.000 A 
ATOM     12  C   UNL     1      -0.064   9.595  21.608  0.00  0.00    +0.000 A 
ATOM     13 CL   UNL     1      -0.914  10.048  23.040  0.00  0.00    +0.000 Cl
ATOM     14  C   UNL     1      -0.282  10.224  20.381  0.00  0.00    +0.000 A 
ATOM     15 CL   UNL     1      -1.379  11.546  20.187  0.00  0.00    +0.000 Cl
ATOM     16  C   UNL     1       0.429   9.812  19.252  0.00  0.00    +0.000 A 
ENDBRANCH   2   9
BRANCH   6  17
ATOM     17  C   UNL     1       4.699   3.964  17.974  0.00  0.00    +0.000 C 
BRANCH  17  18
ATOM     18  N   UNL     1       5.674   3.726  16.920  0.00  0.00    +0.000 NA
ATOM     19  H   UNL     1       6.161   2.844  17.083  0.00  0.00    +0.000 HD
BRANCH  18  20
ATOM     20  C   UNL     1       5.040   3.691  15.604  0.00  0.00    +0.000 C 
BRANCH  20  21
ATOM     21  C   UNL     1       5.999   4.146  14.540  0.00  0.00    +0.000 A 
ATOM     22  C   UNL     1       5.925   3.656  13.235  0.00  0.00    +0.000 A 
ATOM     23  C   UNL     1       6.829   4.104  12.278  0.00  0.00    +0.000 A 
ATOM     24  C   UNL     1       7.784   5.031  12.665  0.00  0.00    +0.000 A 
ATOM     25  N   UNL     1       7.891   5.525  13.917  0.00  0.00    +0.000 NA
ATOM     26  C   UNL     1       6.995   5.072  14.825  0.00  0.00    +0.000 A 
ENDBRANCH  20  21
ENDBRANCH  18  20
ENDBRANCH  17  18
ENDBRANCH   6  17
TORSDOF 5
ENDMDL
MODEL 3
REMARK VINA RESULT:      -7.5      0.575      1.020
REMARK  Name = 
REMARK  5 active torsions:
REMARK  status: ('A' for Active; 'I' for Inactive)
REMARK    1  A    between atoms: C_2  and  C_3
REMARK    2  A    between atoms: C_14  and  C_15
REMARK    3  A    between atoms: C_15  and  N_16
REMARK    4  A    between atoms: N_16  and  C_17
REMARK    5  A    between atoms: C_17  and  C_18
REMARK                            x       y       z     vdW  Elec       q    Type
REMARK                         _______ _______ _______ _____ _____    ______ ____
ROOT
ATOM      1  O   UNL     1       2.463   9.481  17.216  0.00  0.00    +0.000 OA
ATOM      2  C   UNL     1       2.388   8.567  18.035  0.00  0.00    +0.000 C 
ATOM      3  N   UNL     1       3.018   7.336  17.849  0.00  0.00    +0.000 N 
ATOM      4  C   UNL     1       2.915   6.141  18.690  0.00  0.00    +0.000 C 
ATOM      5  C   UNL     1       4.279   5.852  19.325  0.00  0.00    +0.000 C 
ATOM      6  C   UNL     1       5.374   5.677  18.253  0.00  0.00    +0.000 C 
ATOM      7  C   UNL     1       5.359   6.888  17.290  0.00  0.00    +0.000 C 
ATOM      8  C   UNL     1       3.961   7.185  16.741  0.00  0.00    +0.000 C 
ENDROOT
BRANCH   2   9
ATOM      9  C   UNL     1       1.571   8.832  19.252  0.00  0.00    +0.000 A 
ATOM     10  C   UNL     1       1.811   8.074  20.404  0.00  0.00    +0.000 A 
ATOM     11  C   UNL     1       1.091   8.324  21.578  0.00  0.00    +0.000 A 
ATOM     12  C   UNL     1       0.140   9.349  21.613  0.00  0.00    +0.000 A 
ATOM     13 CL   UNL     1      -0.660   9.665  23.109  0.00  0.00    +0.000 Cl
ATOM     14  C   UNL     1      -0.134  10.075  20.453  0.00  0.00    +0.000 A 
ATOM     15 CL   UNL     1      -1.257  11.389  20.413  0.00  0.00    +0.000 Cl
ATOM     16  C   UNL     1       0.537   9.771  19.266  0.00  0.00    +0.000 A 
ENDBRANCH   2   9
BRANCH   6  17
ATOM     17  C   UNL     1       5.204   4.322  17.540  0.00  0.00    +0.000 C 
BRANCH  17  18
ATOM     18  N   UNL     1       5.164   3.233  18.504  0.00  0.00    +0.000 NA
ATOM     19  H   UNL     1       5.118   3.604  19.453  0.00  0.00    +0.000 HD
BRANCH  18  20
ATOM     20  C   UNL     1       4.017   2.357  18.272  0.00  0.00    +0.000 C 
BRANCH  20  21
ATOM     21  C   UNL     1       2.981   2.544  19.346  0.00  0.00    +0.000 A 
ATOM     22  C   UNL     1       3.327   2.543  20.698  0.00  0.00    +0.000 A 
ATOM     23  C   UNL     1       2.341   2.723  21.662  0.00  0.00    +0.000 A 
ATOM     24  C   UNL     1       1.034   2.896  21.234  0.00  0.00    +0.000 A 
ATOM     25  N   UNL     1       0.659   2.898  19.937  0.00  0.00    +0.000 NA
ATOM     26  C   UNL     1       1.642   2.723  19.023  0.00  0.00    +0.000 A 
ENDBRANCH  20  21
ENDBRANCH  18  20
ENDBRANCH  17  18
ENDBRANCH   6  17
TORSDOF 5
ENDMDL
MODEL 4
REMARK VINA RESULT:      -7.4      4.678      8.342
REMARK  Name = 
REMARK  5 active torsions:
REMARK  status: ('A' for Active; 'I' for Inactive)
REMARK    1  A    between atoms: C_2  and  C_3
REMARK    2  A    between atoms: C_14  and  C_15
REMARK    3  A    between atoms: C_15  and  N_16
REMARK    4  A    between atoms: N_16  and  C_17
REMARK    5  A    between atoms: C_17  and  C_18
REMARK                            x       y       z     vdW  Elec       q    Type
REMARK                         _______ _______ _______ _____ _____    ______ ____
ROOT
ATOM      1  O   UNL     1       2.246   8.820  17.188  0.00  0.00    +0.000 OA
ATOM      2  C   UNL     1       2.176   8.188  18.240  0.00  0.00    +0.000 C 
ATOM      3  N   UNL     1       1.749   8.763  19.437  0.00  0.00    +0.000 N 
ATOM      4  C   UNL     1       1.728   8.151  20.768  0.00  0.00    +0.000 C 
ATOM      5  C   UNL     1       0.276   8.010  21.235  0.00  0.00    +0.000 C 
ATOM      6  C   UNL     1      -0.448   9.371  21.244  0.00  0.00    +0.000 C 
ATOM      7  C   UNL     1      -0.281  10.060  19.869  0.00  0.00    +0.000 C 
ATOM      8  C   UNL     1       1.178  10.110  19.410  0.00  0.00    +0.000 C 
ENDROOT
BRANCH   2   9
ATOM      9  C   UNL     1       2.585   6.757  18.183  0.00  0.00    +0.000 A 
ATOM     10  C   UNL     1       1.594   5.776  18.055  0.00  0.00    +0.000 A 
ATOM     11  C   UNL     1       1.946   4.424  17.956  0.00  0.00    +0.000 A 
ATOM     12  C   UNL     1       3.292   4.048  17.964  0.00  0.00    +0.000 A 
ATOM     13 CL   UNL     1       3.669   2.376  17.759  0.00  0.00    +0.000 Cl
ATOM     14  C   UNL     1       4.280   5.019  18.138  0.00  0.00    +0.000 A 
ATOM     15 CL   UNL     1       5.969   4.653  18.114  0.00  0.00    +0.000 Cl
ATOM     16  C   UNL     1       3.918   6.357  18.308  0.00  0.00    +0.000 A 
ENDBRANCH   2   9
BRANCH   6  17
ATOM     17  C   UNL     1       0.050  10.227  22.425  0.00  0.00    +0.000 C 
BRANCH  17  18
ATOM     18  N   UNL     1      -1.066  10.674  23.245  0.00  0.00    +0.000 NA
ATOM     19  H   UNL     1      -0.891  10.457  24.227  0.00  0.00    +0.000 HD
BRANCH  18  20
ATOM     20  C   UNL     1      -1.292  12.111  23.101  0.00  0.00    +0.000 C 
BRANCH  20  21
ATOM     21  C   UNL     1      -2.748  12.397  22.861  0.00  0.00    +0.000 A 
ATOM     22  C   UNL     1      -3.227  12.721  21.590  0.00  0.00    +0.000 A 
ATOM     23  C   UNL     1      -4.582  12.975  21.408  0.00  0.00    +0.000 A 
ATOM     24  C   UNL     1      -5.414  12.899  22.513  0.00  0.00    +0.000 A 
ATOM     25  N   UNL     1      -4.990  12.594  23.758  0.00  0.00    +0.000 NA
ATOM     26  C   UNL     1      -3.667  12.349  23.902  0.00  0.00    +0.000 A 
ENDBRANCH  20  21
ENDBRANCH  18  20
ENDBRANCH  17  18
ENDBRANCH   6  17
TORSDOF 5
ENDMDL
MODEL 5
REMARK VINA RESULT:      -7.1      4.752      8.554
REMARK  Name = 
REMARK  5 active torsions:
REMARK  status: ('A' for Active; 'I' for Inactive)
REMARK    1  A    between atoms: C_2  and  C_3
REMARK    2  A    between atoms: C_14  and  C_15
REMARK    3  A    between atoms: C_15  and  N_16
REMARK    4  A    between atoms: N_16  and  C_17
REMARK    5  A    between atoms: C_17  and  C_18
REMARK                            x       y       z     vdW  Elec       q    Type
REMARK                         _______ _______ _______ _____ _____    ______ ____
ROOT
ATOM      1  O   UNL     1       2.245   8.687  17.278  0.00  0.00    +0.000 OA
ATOM      2  C   UNL     1       2.169   8.045  18.323  0.00  0.00    +0.000 C 
ATOM      3  N   UNL     1       1.750   8.612  19.527  0.00  0.00    +0.000 N 
ATOM      4  C   UNL     1       1.722   7.987  20.851  0.00  0.00    +0.000 C 
ATOM      5  C   UNL     1       0.270   7.858  21.318  0.00  0.00    +0.000 C 
ATOM      6  C   UNL     1      -0.439   9.227  21.342  0.00  0.00    +0.000 C 
ATOM      7  C   UNL     1      -0.265   9.928  19.975  0.00  0.00    +0.000 C 
ATOM      8  C   UNL     1       1.194   9.966  19.514  0.00  0.00    +0.000 C 
ENDROOT
BRANCH   2   9
ATOM      9  C   UNL     1       2.561   6.610  18.251  0.00  0.00    +0.000 A 
ATOM     10  C   UNL     1       1.571   5.650  18.012  0.00  0.00    +0.000 A 
ATOM     11  C   UNL     1       1.910   4.297  17.896  0.00  0.00    +0.000 A 
ATOM     12  C   UNL     1       3.247   3.898  17.998  0.00  0.00    +0.000 A 
ATOM     13 CL   UNL     1       3.616   2.228  17.768  0.00  0.00    +0.000 Cl
ATOM     14  C   UNL     1       4.230   4.846  18.283  0.00  0.00    +0.000 A 
ATOM     15 CL   UNL     1       5.911   4.454  18.380  0.00  0.00    +0.000 Cl
ATOM     16  C   UNL     1       3.874   6.184  18.468  0.00  0.00    +0.000 A 
ENDBRANCH   2   9
BRANCH   6  17
ATOM     17  C   UNL     1       0.070  10.064  22.532  0.00  0.00    +0.000 C 
BRANCH  17  18
ATOM     18  N   UNL     1      -1.025  10.785  23.162  0.00  0.00    +0.000 NA
ATOM     19  H   UNL     1      -0.955  10.717  24.177  0.00  0.00    +0.000 HD
BRANCH  18  20
ATOM     20  C   UNL     1      -1.030  12.194  22.772  0.00  0.00    +0.000 C 
BRANCH  20  21
ATOM     21  C   UNL     1      -2.385  12.804  23.005  0.00  0.00    +0.000 A 
ATOM     22  C   UNL     1      -3.319  12.200  23.850  0.00  0.00    +0.000 A 
ATOM     23  C   UNL     1      -4.560  12.797  24.042  0.00  0.00    +0.000 A 
ATOM     24  C   UNL     1      -4.825  13.982  23.376  0.00  0.00    +0.000 A 
ATOM     25  N   UNL     1      -3.952  14.593  22.547  0.00  0.00    +0.000 NA
ATOM     26  C   UNL     1      -2.751  13.990  22.383  0.00  0.00    +0.000 A 
ENDBRANCH  20  21
ENDBRANCH  18  20
ENDBRANCH  17  18
ENDBRANCH   6  17
TORSDOF 5
ENDMDL
MODEL 6
REMARK VINA RESULT:      -7.0      4.009      5.702
REMARK  Name = 
REMARK  5 active torsions:
REMARK  status: ('A' for Active; 'I' for Inactive)
REMARK    1  A    between atoms: C_2  and  C_3
REMARK    2  A    between atoms: C_14  and  C_15
REMARK    3  A    between atoms: C_15  and  N_16
REMARK    4  A    between atoms: N_16  and  C_17
REMARK    5  A    between atoms: C_17  and  C_18
REMARK                            x       y       z     vdW  Elec       q    Type
REMARK                         _______ _______ _______ _____ _____    ______ ____
ROOT
ATOM      1  O   UNL     1       1.905   4.768  18.635  0.00  0.00    +0.000 OA
ATOM      2  C   UNL     1       2.666   5.702  18.390  0.00  0.00    +0.000 C 
ATOM      3  N   UNL     1       3.917   5.520  17.799  0.00  0.00    +0.000 N 
ATOM      4  C   UNL     1       4.951   6.529  17.560  0.00  0.00    +0.000 C 
ATOM      5  C   UNL     1       5.141   6.708  16.050  0.00  0.00    +0.000 C 
ATOM      6  C   UNL     1       5.506   5.375  15.367  0.00  0.00    +0.000 C 
ATOM      7  C   UNL     1       4.476   4.289  15.758  0.00  0.00    +0.000 C 
ATOM      8  C   UNL     1       4.263   4.200  17.272  0.00  0.00    +0.000 C 
ENDROOT
BRANCH   2   9
ATOM      9  C   UNL     1       2.191   7.062  18.768  0.00  0.00    +0.000 A 
ATOM     10  C   UNL     1       1.990   8.012  17.759  0.00  0.00    +0.000 A 
ATOM     11  C   UNL     1       1.505   9.287  18.075  0.00  0.00    +0.000 A 
ATOM     12  C   UNL     1       1.196   9.612  19.399  0.00  0.00    +0.000 A 
ATOM     13 CL   UNL     1       0.525  11.170  19.718  0.00  0.00    +0.000 Cl
ATOM     14  C   UNL     1       1.439   8.683  20.413  0.00  0.00    +0.000 A 
ATOM     15 CL   UNL     1       1.045   8.979  22.069  0.00  0.00    +0.000 Cl
ATOM     16  C   UNL     1       1.991   7.439  20.099  0.00  0.00    +0.000 A 
ENDBRANCH   2   9
BRANCH   6  17
ATOM     17  C   UNL     1       6.961   4.992  15.699  0.00  0.00    +0.000 C 
BRANCH  17  18
ATOM     18  N   UNL     1       7.667   4.561  14.502  0.00  0.00    +0.000 NA
ATOM     19  H   UNL     1       7.787   3.548  14.508  0.00  0.00    +0.000 HD
BRANCH  18  20
ATOM     20  C   UNL     1       6.952   4.954  13.289  0.00  0.00    +0.000 C 
BRANCH  20  21
ATOM     21  C   UNL     1       6.601   3.747  12.466  0.00  0.00    +0.000 A 
ATOM     22  C   UNL     1       5.273   3.375  12.248  0.00  0.00    +0.000 A 
ATOM     23  C   UNL     1       4.988   2.253  11.477  0.00  0.00    +0.000 A 
ATOM     24  C   UNL     1       6.051   1.537  10.951  0.00  0.00    +0.000 A 
ATOM     25  N   UNL     1       7.348   1.860  11.143  0.00  0.00    +0.000 NA
ATOM     26  C   UNL     1       7.592   2.959  11.895  0.00  0.00    +0.000 A 
ENDBRANCH  20  21
ENDBRANCH  18  20
ENDBRANCH  17  18
ENDBRANCH   6  17
TORSDOF 5
ENDMDL
MODEL 7
REMARK VINA RESULT:      -7.0      4.624      8.489
REMARK  Name = 
REMARK  5 active torsions:
REMARK  status: ('A' for Active; 'I' for Inactive)
REMARK    1  A    between atoms: C_2  and  C_3
REMARK    2  A    between atoms: C_14  and  C_15
REMARK    3  A    between atoms: C_15  and  N_16
REMARK    4  A    between atoms: N_16  and  C_17
REMARK    5  A    between atoms: C_17  and  C_18
REMARK                            x       y       z     vdW  Elec       q    Type
REMARK                         _______ _______ _______ _____ _____    ______ ____
ROOT
ATOM      1  O   UNL     1       2.331   8.067  17.569  0.00  0.00    +0.000 OA
ATOM      2  C   UNL     1       2.199   7.731  18.744  0.00  0.00    +0.000 C 
ATOM      3  N   UNL     1       1.685   8.586  19.719  0.00  0.00    +0.000 N 
ATOM      4  C   UNL     1       1.583   8.344  21.160  0.00  0.00    +0.000 C 
ATOM      5  C   UNL     1       0.105   8.284  21.558  0.00  0.00    +0.000 C 
ATOM      6  C   UNL     1      -0.637   9.577  21.164  0.00  0.00    +0.000 C 
ATOM      7  C   UNL     1      -0.388   9.886  19.669  0.00  0.00    +0.000 C 
ATOM      8  C   UNL     1       1.098   9.859  19.303  0.00  0.00    +0.000 C 
ENDROOT
BRANCH   2   9
ATOM      9  C   UNL     1       2.632   6.348  19.091  0.00  0.00    +0.000 A 
ATOM     10  C   UNL     1       3.959   5.975  18.849  0.00  0.00    +0.000 A 
ATOM     11  C   UNL     1       4.410   4.697  19.202  0.00  0.00    +0.000 A 
ATOM     12  C   UNL     1       3.541   3.792  19.820  0.00  0.00    +0.000 A 
ATOM     13 CL   UNL     1       4.173   2.261  20.305  0.00  0.00    +0.000 Cl
ATOM     14  C   UNL     1       2.205   4.145  20.020  0.00  0.00    +0.000 A 
ATOM     15 CL   UNL     1       1.072   3.112  20.816  0.00  0.00    +0.000 Cl
ATOM     16  C   UNL     1       1.745   5.395  19.599  0.00  0.00    +0.000 A 
ENDBRANCH   2   9
BRANCH   6  17
ATOM     17  C   UNL     1      -0.232  10.727  22.106  0.00  0.00    +0.000 C 
BRANCH  17  18
ATOM     18  N   UNL     1      -1.338  11.094  22.978  0.00  0.00    +0.000 NA
ATOM     19  H   UNL     1      -1.059  11.008  23.956  0.00  0.00    +0.000 HD
BRANCH  18  20
ATOM     20  C   UNL     1      -1.787  12.461  22.723  0.00  0.00    +0.000 C 
BRANCH  20  21
ATOM     21  C   UNL     1      -3.262  12.592  22.983  0.00  0.00    +0.000 A 
ATOM     22  C   UNL     1      -3.788  12.461  24.270  0.00  0.00    +0.000 A 
ATOM     23  C   UNL     1      -5.158  12.592  24.470  0.00  0.00    +0.000 A 
ATOM     24  C   UNL     1      -5.957  12.848  23.368  0.00  0.00    +0.000 A 
ATOM     25  N   UNL     1      -5.488  12.975  22.108  0.00  0.00    +0.000 NA
ATOM     26  C   UNL     1      -4.150  12.846  21.946  0.00  0.00    +0.000 A 
ENDBRANCH  20  21
ENDBRANCH  18  20
ENDBRANCH  17  18
ENDBRANCH   6  17
TORSDOF 5
ENDMDL
MODEL 8
REMARK VINA RESULT:      -7.0      4.416      8.307
REMARK  Name = 
REMARK  5 active torsions:
REMARK  status: ('A' for Active; 'I' for Inactive)
REMARK    1  A    between atoms: C_2  and  C_3
REMARK    2  A    between atoms: C_14  and  C_15
REMARK    3  A    between atoms: C_15  and  N_16
REMARK    4  A    between atoms: N_16  and  C_17
REMARK    5  A    between atoms: C_17  and  C_18
REMARK                            x       y       z     vdW  Elec       q    Type
REMARK                         _______ _______ _______ _____ _____    ______ ____
ROOT
ATOM      1  O   UNL     1       2.028   9.381  17.329  0.00  0.00    +0.000 OA
ATOM      2  C   UNL     1       2.058   8.603  18.280  0.00  0.00    +0.000 C 
ATOM      3  N   UNL     1       1.648   8.966  19.564  0.00  0.00    +0.000 N 
ATOM      4  C   UNL     1       1.738   8.172  20.792  0.00  0.00    +0.000 C 
ATOM      5  C   UNL     1       0.326   7.848  21.288  0.00  0.00    +0.000 C 
ATOM      6  C   UNL     1      -0.499   9.129  21.521  0.00  0.00    +0.000 C 
ATOM      7  C   UNL     1      -0.452  10.017  20.255  0.00  0.00    +0.000 C 
ATOM      8  C   UNL     1       0.975  10.251  19.753  0.00  0.00    +0.000 C 
ENDROOT
BRANCH   2   9
ATOM      9  C   UNL     1       2.571   7.233  18.001  0.00  0.00    +0.000 A 
ATOM     10  C   UNL     1       3.903   7.080  17.597  0.00  0.00    +0.000 A 
ATOM     11  C   UNL     1       4.430   5.803  17.367  0.00  0.00    +0.000 A 
ATOM     12  C   UNL     1       3.634   4.670  17.562  0.00  0.00    +0.000 A 
ATOM     13 CL   UNL     1       4.360   3.120  17.341  0.00  0.00    +0.000 Cl
ATOM     14  C   UNL     1       2.293   4.822  17.920  0.00  0.00    +0.000 A 
ATOM     15 CL   UNL     1       1.248   3.480  18.227  0.00  0.00    +0.000 Cl
ATOM     16  C   UNL     1       1.755   6.101  18.077  0.00  0.00    +0.000 A 
ENDBRANCH   2   9
BRANCH   6  17
ATOM     17  C   UNL     1      -0.010   9.847  22.794  0.00  0.00    +0.000 C 
BRANCH  17  18
ATOM     18  N   UNL     1      -0.474  11.226  22.819  0.00  0.00    +0.000 NA
ATOM     19  H   UNL     1      -0.446  11.625  21.880  0.00  0.00    +0.000 HD
BRANCH  18  20
ATOM     20  C   UNL     1      -1.834  11.322  23.344  0.00  0.00    +0.000 C 
BRANCH  20  21
ATOM     21  C   UNL     1      -2.613  12.378  22.609  0.00  0.00    +0.000 A 
ATOM     22  C   UNL     1      -2.095  13.006  21.475  0.00  0.00    +0.000 A 
ATOM     23  C   UNL     1      -2.847  13.976  20.821  0.00  0.00    +0.000 A 
ATOM     24  C   UNL     1      -4.098  14.286  21.330  0.00  0.00    +0.000 A 
ATOM     25  N   UNL     1      -4.631  13.705  22.426  0.00  0.00    +0.000 NA
ATOM     26  C   UNL     1      -3.876  12.763  23.039  0.00  0.00    +0.000 A 
ENDBRANCH  20  21
ENDBRANCH  18  20
ENDBRANCH  17  18
ENDBRANCH   6  17
TORSDOF 5
ENDMDL
MODEL 9
REMARK VINA RESULT:      -7.0      4.682      8.509
REMARK  Name = 
REMARK  5 active torsions:
REMARK  status: ('A' for Active; 'I' for Inactive)
REMARK    1  A    between atoms: C_2  and  C_3
REMARK    2  A    between atoms: C_14  and  C_15
REMARK    3  A    between atoms: C_15  and  N_16
REMARK    4  A    between atoms: N_16  and  C_17
REMARK    5  A    between atoms: C_17  and  C_18
REMARK                            x       y       z     vdW  Elec       q    Type
REMARK                         _______ _______ _______ _____ _____    ______ ____
ROOT
ATOM      1  O   UNL     1       2.119   8.996  17.222  0.00  0.00    +0.000 OA
ATOM      2  C   UNL     1       2.130   8.266  18.211  0.00  0.00    +0.000 C 
ATOM      3  N   UNL     1       1.737   8.704  19.476  0.00  0.00    +0.000 N 
ATOM      4  C   UNL     1       1.809   7.970  20.742  0.00  0.00    +0.000 C 
ATOM      5  C   UNL     1       0.390   7.712  21.257  0.00  0.00    +0.000 C 
ATOM      6  C   UNL     1      -0.396   9.027  21.428  0.00  0.00    +0.000 C 
ATOM      7  C   UNL     1      -0.329   9.849  20.120  0.00  0.00    +0.000 C 
ATOM      8  C   UNL     1       1.102  10.016  19.602  0.00  0.00    +0.000 C 
ENDROOT
BRANCH   2   9
ATOM      9  C   UNL     1       2.603   6.869  17.999  0.00  0.00    +0.000 A 
ATOM     10  C   UNL     1       3.936   6.656  17.629  0.00  0.00    +0.000 A 
ATOM     11  C   UNL     1       4.425   5.355  17.463  0.00  0.00    +0.000 A 
ATOM     12  C   UNL     1       3.587   4.257  17.687  0.00  0.00    +0.000 A 
ATOM     13 CL   UNL     1       4.265   2.676  17.546  0.00  0.00    +0.000 Cl
ATOM     14  C   UNL     1       2.246   4.467  18.010  0.00  0.00    +0.000 A 
ATOM     15 CL   UNL     1       1.150   3.175  18.351  0.00  0.00    +0.000 Cl
ATOM     16  C   UNL     1       1.748   5.769  18.104  0.00  0.00    +0.000 A 
ENDBRANCH   2   9
BRANCH   6  17
ATOM     17  C   UNL     1       0.119   9.793  22.663  0.00  0.00    +0.000 C 
BRANCH  17  18
ATOM     18  N   UNL     1      -0.922  10.650  23.210  0.00  0.00    +0.000 NA
ATOM     19  H   UNL     1      -0.827  10.716  24.223  0.00  0.00    +0.000 HD
BRANCH  18  20
ATOM     20  C   UNL     1      -0.868  11.991  22.631  0.00  0.00    +0.000 C 
BRANCH  20  21
ATOM     21  C   UNL     1      -1.847  12.903  23.316  0.00  0.00    +0.000 A 
ATOM     22  C   UNL     1      -1.486  14.193  23.711  0.00  0.00    +0.000 A 
ATOM     23  C   UNL     1      -2.422  15.009  24.338  0.00  0.00    +0.000 A 
ATOM     24  C   UNL     1      -3.692  14.499  24.553  0.00  0.00    +0.000 A 
ATOM     25  N   UNL     1      -4.078  13.257  24.191  0.00  0.00    +0.000 NA
ATOM     26  C   UNL     1      -3.146  12.489  23.580  0.00  0.00    +0.000 A 
ENDBRANCH  20  21
ENDBRANCH  18  20
ENDBRANCH  17  18
ENDBRANCH   6  17
TORSDOF 5
ENDMDL
