MODEL 1
REMARK VINA RESULT:      -8.7      0.000      0.000
REMARK  Name = 
REMARK  4 active torsions:
REMARK  status: ('A' for Active; 'I' for Inactive)
REMARK    1  A    between atoms: N_15  and  C_16
REMARK    2  A    between atoms: C_16  and  C_17
REMARK    3  A    between atoms: C_21  and  O_22
REMARK    4  A    between atoms: O_22  and  C_23
REMARK                            x       y       z     vdW  Elec       q    Type
REMARK                         _______ _______ _______ _____ _____    ______ ____
ROOT
ATOM      1  O   UNL     1       1.267  12.589  21.293  0.00  0.00    +0.000 OA
ATOM      2  C   UNL     1       1.553  12.388  20.115  0.00  0.00    +0.000 C 
ATOM      3  N   UNL     1       2.264  13.268  19.338  0.00  0.00    +0.000 N 
ATOM      4  C   UNL     1       2.713  14.491  19.863  0.00  0.00    +0.000 A 
ATOM      5  C   UNL     1       3.416  14.554  21.060  0.00  0.00    +0.000 A 
ATOM      6  C   UNL     1       3.802  15.801  21.544  0.00  0.00    +0.000 A 
ATOM      7  C   UNL     1       3.444  16.912  20.810  0.00  0.00    +0.000 A 
ATOM      8 CL   UNL     1       3.813  18.496  21.341  0.00  0.00    +0.000 Cl
ATOM      9  N   UNL     1       2.791  16.831  19.634  0.00  0.00    +0.000 NA
ATOM     10  N   UNL     1       2.447  15.598  19.143  0.00  0.00    +0.000 NA
ATOM     11  N   UNL     1       1.138  11.259  19.440  0.00  0.00    +0.000 N 
ATOM     12  C   UNL     1       0.185  10.361  20.063  0.00  0.00    +0.000 C 
ATOM     13  C   UNL     1       0.621   8.987  19.626  0.00  0.00    +0.000 C 
ATOM     14  C   UNL     1       1.776   8.432  20.442  0.00  0.00    +0.000 C 
ATOM     15  N   UNL     1       2.421   7.473  19.531  0.00  0.00    +0.000 NA
ATOM     16  C   UNL     1       2.257   8.031  18.166  0.00  0.00    +0.000 C 
ATOM     17  C   UNL     1       1.262   9.189  18.259  0.00  0.00    +0.000 C 
ATOM     18  C   UNL     1       1.884  10.592  18.371  0.00  0.00    +0.000 C 
ATOM     19  H   UNL     1       1.879  13.369  18.411  0.00  0.00    +0.000 HD
ENDROOT
BRANCH  15  20
ATOM     20  C   UNL     1       1.813   6.134  19.643  0.00  0.00    +0.000 C 
BRANCH  20  21
ATOM     21  C   UNL     1       2.537   5.077  18.834  0.00  0.00    +0.000 A 
ATOM     22  C   UNL     1       1.838   4.124  18.079  0.00  0.00    +0.000 A 
ATOM     23  C   UNL     1       2.530   3.205  17.286  0.00  0.00    +0.000 A 
ATOM     24  C   UNL     1       3.922   3.263  17.197  0.00  0.00    +0.000 A 
ATOM     25  C   UNL     1       4.624   4.224  17.924  0.00  0.00    +0.000 A 
ATOM     26  C   UNL     1       3.937   5.071  18.796  0.00  0.00    +0.000 A 
BRANCH  25  27
ATOM     27  O   UNL     1       5.988   4.274  17.740  0.00  0.00    +0.000 OA
BRANCH  27  28
ATOM     28  C   UNL     1       6.636   5.483  17.902  0.00  0.00    +0.000 A 
ATOM     29  C   UNL     1       6.268   6.500  17.020  0.00  0.00    +0.000 A 
ATOM     30  C   UNL     1       6.900   7.746  17.085  0.00  0.00    +0.000 A 
ATOM     31  C   UNL     1       7.901   7.968  18.029  0.00  0.00    +0.000 A 
ATOM     32 CL   UNL     1       8.709   9.485  18.083  0.00  0.00    +0.000 Cl
ATOM     33  C   UNL     1       8.249   6.971  18.936  0.00  0.00    +0.000 A 
ATOM     34  C   UNL     1       7.591   5.741  18.893  0.00  0.00    +0.000 A 
ENDBRANCH  27  28
ENDBRANCH  25  27
ENDBRANCH  20  21
ENDBRANCH  15  20
TORSDOF 4
ENDMDL
MODEL 2
REMARK VINA RESULT:      -8.7      1.152      1.543
REMARK  Name = 
REMARK  4 active torsions:
REMARK  status: ('A' for Active; 'I' for Inactive)
REMARK    1  A    between atoms: N_15  and  C_16
REMARK    2  A    between atoms: C_16  and  C_17
REMARK    3  A    between atoms: C_21  and  O_22
REMARK    4  A    between atoms: O_22  and  C_23
REMARK                            x       y       z     vdW  Elec       q    Type
REMARK                         _______ _______ _______ _____ _____    ______ ____
ROOT
ATOM      1  O   UNL     1       1.669  13.087  21.283  0.00  0.00    +0.000 OA
ATOM      2  C   UNL     1       1.887  12.728  20.128  0.00  0.00    +0.000 C 
ATOM      3  N   UNL     1       2.685  13.419  19.250  0.00  0.00    +0.000 N 
ATOM      4  C   UNL     1       3.311  14.616  19.634  0.00  0.00    +0.000 A 
ATOM      5  C   UNL     1       4.053  14.704  20.805  0.00  0.00    +0.000 A 
ATOM      6  C   UNL     1       4.619  15.929  21.147  0.00  0.00    +0.000 A 
ATOM      7  C   UNL     1       4.390  16.998  20.305  0.00  0.00    +0.000 A 
ATOM      8 CL   UNL     1       4.986  18.562  20.659  0.00  0.00    +0.000 Cl
ATOM      9  N   UNL     1       3.695  16.887  19.156  0.00  0.00    +0.000 NA
ATOM     10  N   UNL     1       3.172  15.669  18.806  0.00  0.00    +0.000 NA
ATOM     11  N   UNL     1       1.302  11.603  19.584  0.00  0.00    +0.000 N 
ATOM     12  C   UNL     1       0.258  10.913  20.315  0.00  0.00    +0.000 C 
ATOM     13  C   UNL     1       0.491   9.455  20.018  0.00  0.00    +0.000 C 
ATOM     14  C   UNL     1       1.587   8.834  20.868  0.00  0.00    +0.000 C 
ATOM     15  N   UNL     1       2.067   7.707  20.052  0.00  0.00    +0.000 NA
ATOM     16  C   UNL     1       1.937   8.139  18.639  0.00  0.00    +0.000 C 
ATOM     17  C   UNL     1       1.109   9.426  18.627  0.00  0.00    +0.000 C 
ATOM     18  C   UNL     1       1.917  10.735  18.578  0.00  0.00    +0.000 C 
ATOM     19  H   UNL     1       2.287  13.476  18.324  0.00  0.00    +0.000 HD
ENDROOT
BRANCH  15  20
ATOM     20  C   UNL     1       1.289   6.482  20.316  0.00  0.00    +0.000 C 
BRANCH  20  21
ATOM     21  C   UNL     1       2.136   5.226  20.337  0.00  0.00    +0.000 A 
ATOM     22  C   UNL     1       1.706   4.063  20.992  0.00  0.00    +0.000 A 
ATOM     23  C   UNL     1       2.473   2.897  20.938  0.00  0.00    +0.000 A 
ATOM     24  C   UNL     1       3.648   2.865  20.184  0.00  0.00    +0.000 A 
ATOM     25  C   UNL     1       4.070   4.009  19.507  0.00  0.00    +0.000 A 
ATOM     26  C   UNL     1       3.357   5.201  19.651  0.00  0.00    +0.000 A 
BRANCH  25  27
ATOM     27  O   UNL     1       5.198   3.893  18.726  0.00  0.00    +0.000 OA
BRANCH  27  28
ATOM     28  C   UNL     1       5.880   5.040  18.369  0.00  0.00    +0.000 A 
ATOM     29  C   UNL     1       7.079   5.275  19.044  0.00  0.00    +0.000 A 
ATOM     30  C   UNL     1       7.817   6.433  18.776  0.00  0.00    +0.000 A 
ATOM     31  C   UNL     1       7.350   7.352  17.838  0.00  0.00    +0.000 A 
ATOM     32 CL   UNL     1       8.234   8.797  17.538  0.00  0.00    +0.000 Cl
ATOM     33  C   UNL     1       6.173   7.107  17.135  0.00  0.00    +0.000 A 
ATOM     34  C   UNL     1       5.458   5.934  17.377  0.00  0.00    +0.000 A 
ENDBRANCH  27  28
ENDBRANCH  25  27
ENDBRANCH  20  21
ENDBRANCH  15  20
TORSDOF 4
ENDMDL
MODEL 3
REMARK VINA RESULT:      -8.6      4.300      5.367
REMARK  Name = 
REMARK  4 active torsions:
REMARK  status: ('A' for Active; 'I' for Inactive)
REMARK    1  A    between atoms: N_15  and  C_16
REMARK    2  A    between atoms: C_16  and  C_17
REMARK    3  A    between atoms: C_21  and  O_22
REMARK    4  A    between atoms: O_22  and  C_23
REMARK                            x       y       z     vdW  Elec       q    Type
REMARK                         _______ _______ _______ _____ _____    ______ ____
ROOT
ATOM      1  O   UNL     1      -2.352  13.051  20.177  0.00  0.00    +0.000 OA
ATOM      2  C   UNL     1      -2.018  12.509  21.227  0.00  0.00    +0.000 C 
ATOM      3  N   UNL     1      -2.806  12.465  22.350  0.00  0.00    +0.000 N 
ATOM      4  C   UNL     1      -4.077  13.063  22.362  0.00  0.00    +0.000 A 
ATOM      5  C   UNL     1      -5.009  12.808  21.364  0.00  0.00    +0.000 A 
ATOM      6  C   UNL     1      -6.238  13.461  21.415  0.00  0.00    +0.000 A 
ATOM      7  C   UNL     1      -6.452  14.344  22.452  0.00  0.00    +0.000 A 
ATOM      8 CL   UNL     1      -7.901  15.245  22.579  0.00  0.00    +0.000 Cl
ATOM      9  N   UNL     1      -5.549  14.555  23.430  0.00  0.00    +0.000 NA
ATOM     10  N   UNL     1      -4.356  13.881  23.396  0.00  0.00    +0.000 NA
ATOM     11  N   UNL     1      -0.780  11.924  21.392  0.00  0.00    +0.000 N 
ATOM     12  C   UNL     1       0.238  12.103  20.376  0.00  0.00    +0.000 C 
ATOM     13  C   UNL     1       0.966  10.785  20.336  0.00  0.00    +0.000 C 
ATOM     14  C   UNL     1       0.247   9.723  19.521  0.00  0.00    +0.000 C 
ATOM     15  N   UNL     1       0.728   8.456  20.095  0.00  0.00    +0.000 NA
ATOM     16  C   UNL     1       0.949   8.717  21.539  0.00  0.00    +0.000 C 
ATOM     17  C   UNL     1       0.862  10.230  21.750  0.00  0.00    +0.000 C 
ATOM     18  C   UNL     1      -0.502  10.756  22.230  0.00  0.00    +0.000 C 
ATOM     19  H   UNL     1      -2.289  12.650  23.197  0.00  0.00    +0.000 HD
ENDROOT
BRANCH  15  20
ATOM     20  C   UNL     1       1.965   8.001  19.434  0.00  0.00    +0.000 C 
BRANCH  20  21
ATOM     21  C   UNL     1       2.328   6.566  19.761  0.00  0.00    +0.000 A 
ATOM     22  C   UNL     1       1.377   5.665  20.260  0.00  0.00    +0.000 A 
ATOM     23  C   UNL     1       1.719   4.330  20.487  0.00  0.00    +0.000 A 
ATOM     24  C   UNL     1       2.998   3.870  20.166  0.00  0.00    +0.000 A 
ATOM     25  C   UNL     1       3.942   4.753  19.644  0.00  0.00    +0.000 A 
ATOM     26  C   UNL     1       3.629   6.108  19.519  0.00  0.00    +0.000 A 
BRANCH  25  27
ATOM     27  O   UNL     1       5.162   4.223  19.284  0.00  0.00    +0.000 OA
BRANCH  27  28
ATOM     28  C   UNL     1       5.558   4.307  17.963  0.00  0.00    +0.000 A 
ATOM     29  C   UNL     1       6.880   4.701  17.744  0.00  0.00    +0.000 A 
ATOM     30  C   UNL     1       7.357   4.852  16.438  0.00  0.00    +0.000 A 
ATOM     31  C   UNL     1       6.510   4.613  15.357  0.00  0.00    +0.000 A 
ATOM     32 CL   UNL     1       7.082   4.839  13.751  0.00  0.00    +0.000 Cl
ATOM     33  C   UNL     1       5.201   4.186  15.568  0.00  0.00    +0.000 A 
ATOM     34  C   UNL     1       4.738   4.000  16.871  0.00  0.00    +0.000 A 
ENDBRANCH  27  28
ENDBRANCH  25  27
ENDBRANCH  20  21
ENDBRANCH  15  20
TORSDOF 4
ENDMDL
MODEL 4
REMARK VINA RESULT:      -8.4      1.965      2.370
REMARK  Name = 
REMARK  4 active torsions:
REMARK  status: ('A' for Active; 'I' for Inactive)
REMARK    1  A    between atoms: N_15  and  C_16
REMARK    2  A    between atoms: C_16  and  C_17
REMARK    3  A    between atoms: C_21  and  O_22
REMARK    4  A    between atoms: O_22  and  C_23
REMARK                            x       y       z     vdW  Elec       q    Type
REMARK                         _______ _______ _______ _____ _____    ______ ____
ROOT
ATOM      1  O   UNL     1       1.987  13.192  21.145  0.00  0.00    +0.000 OA
ATOM      2  C   UNL     1       2.196  12.896  19.971  0.00  0.00    +0.000 C 
ATOM      3  N   UNL     1       3.015  13.613  19.135  0.00  0.00    +0.000 N 
ATOM      4  C   UNL     1       3.676  14.766  19.590  0.00  0.00    +0.000 A 
ATOM      5  C   UNL     1       4.419  14.762  20.764  0.00  0.00    +0.000 A 
ATOM      6  C   UNL     1       5.020  15.948  21.178  0.00  0.00    +0.000 A 
ATOM      7  C   UNL     1       4.826  17.071  20.400  0.00  0.00    +0.000 A 
ATOM      8 CL   UNL     1       5.467  18.593  20.847  0.00  0.00    +0.000 Cl
ATOM      9  N   UNL     1       4.130  17.049  19.247  0.00  0.00    +0.000 NA
ATOM     10  N   UNL     1       3.571  15.870  18.825  0.00  0.00    +0.000 NA
ATOM     11  N   UNL     1       1.579  11.823  19.361  0.00  0.00    +0.000 N 
ATOM     12  C   UNL     1       0.513  11.123  20.050  0.00  0.00    +0.000 C 
ATOM     13  C   UNL     1       0.703   9.679  19.668  0.00  0.00    +0.000 C 
ATOM     14  C   UNL     1       1.777   8.975  20.480  0.00  0.00    +0.000 C 
ATOM     15  N   UNL     1       2.225   7.885  19.599  0.00  0.00    +0.000 NA
ATOM     16  C   UNL     1       2.110   8.404  18.213  0.00  0.00    +0.000 C 
ATOM     17  C   UNL     1       1.322   9.713  18.277  0.00  0.00    +0.000 C 
ATOM     18  C   UNL     1       2.169  10.998  18.306  0.00  0.00    +0.000 C 
ATOM     19  H   UNL     1       2.621  13.736  18.215  0.00  0.00    +0.000 HD
ENDROOT
BRANCH  15  20
ATOM     20  C   UNL     1       1.410   6.671  19.789  0.00  0.00    +0.000 C 
BRANCH  20  21
ATOM     21  C   UNL     1       2.238   5.419  20.000  0.00  0.00    +0.000 A 
ATOM     22  C   UNL     1       1.668   4.239  20.498  0.00  0.00    +0.000 A 
ATOM     23  C   UNL     1       2.437   3.078  20.616  0.00  0.00    +0.000 A 
ATOM     24  C   UNL     1       3.766   3.071  20.187  0.00  0.00    +0.000 A 
ATOM     25  C   UNL     1       4.333   4.233  19.665  0.00  0.00    +0.000 A 
ATOM     26  C   UNL     1       3.593   5.417  19.648  0.00  0.00    +0.000 A 
BRANCH  25  27
ATOM     27  O   UNL     1       5.625   4.142  19.196  0.00  0.00    +0.000 OA
BRANCH  27  28
ATOM     28  C   UNL     1       5.842   4.205  17.834  0.00  0.00    +0.000 A 
ATOM     29  C   UNL     1       7.131   4.566  17.434  0.00  0.00    +0.000 A 
ATOM     30  C   UNL     1       7.432   4.694  16.075  0.00  0.00    +0.000 A 
ATOM     31  C   UNL     1       6.442   4.465  15.120  0.00  0.00    +0.000 A 
ATOM     32 CL   UNL     1       6.798   4.663  13.449  0.00  0.00    +0.000 Cl
ATOM     33  C   UNL     1       5.165   4.070  15.509  0.00  0.00    +0.000 A 
ATOM     34  C   UNL     1       4.877   3.907  16.864  0.00  0.00    +0.000 A 
ENDBRANCH  27  28
ENDBRANCH  25  27
ENDBRANCH  20  21
ENDBRANCH  15  20
TORSDOF 4
ENDMDL
MODEL 5
REMARK VINA RESULT:      -8.0      2.970      9.152
REMARK  Name = 
REMARK  4 active torsions:
REMARK  status: ('A' for Active; 'I' for Inactive)
REMARK    1  A    between atoms: N_15  and  C_16
REMARK    2  A    between atoms: C_16  and  C_17
REMARK    3  A    between atoms: C_21  and  O_22
REMARK    4  A    between atoms: O_22  and  C_23
REMARK                            x       y       z     vdW  Elec       q    Type
REMARK                         _______ _______ _______ _____ _____    ______ ____
ROOT
ATOM      1  O   UNL     1       2.219   8.923  17.073  0.00  0.00    +0.000 OA
ATOM      2  C   UNL     1       1.853   8.494  18.165  0.00  0.00    +0.000 C 
ATOM      3  N   UNL     1       2.308   7.324  18.720  0.00  0.00    +0.000 N 
ATOM      4  C   UNL     1       3.242   6.523  18.044  0.00  0.00    +0.000 A 
ATOM      5  C   UNL     1       4.417   7.054  17.527  0.00  0.00    +0.000 A 
ATOM      6  C   UNL     1       5.284   6.212  16.836  0.00  0.00    +0.000 A 
ATOM      7  C   UNL     1       4.914   4.892  16.688  0.00  0.00    +0.000 A 
ATOM      8 CL   UNL     1       5.874   3.784  15.807  0.00  0.00    +0.000 Cl
ATOM      9  N   UNL     1       3.786   4.385  17.225  0.00  0.00    +0.000 NA
ATOM     10  N   UNL     1       2.954   5.210  17.936  0.00  0.00    +0.000 NA
ATOM     11  N   UNL     1       0.900   9.139  18.927  0.00  0.00    +0.000 N 
ATOM     12  C   UNL     1       0.164  10.253  18.362  0.00  0.00    +0.000 C 
ATOM     13  C   UNL     1      -0.018  11.206  19.513  0.00  0.00    +0.000 C 
ATOM     14  C   UNL     1       1.204  12.067  19.784  0.00  0.00    +0.000 C 
ATOM     15  N   UNL     1       1.077  12.418  21.208  0.00  0.00    +0.000 NA
ATOM     16  C   UNL     1       0.434  11.252  21.862  0.00  0.00    +0.000 C 
ATOM     17  C   UNL     1      -0.072  10.326  20.754  0.00  0.00    +0.000 C 
ATOM     18  C   UNL     1       0.858   9.155  20.390  0.00  0.00    +0.000 C 
ATOM     19  H   UNL     1       1.569   6.780  19.139  0.00  0.00    +0.000 HD
ENDROOT
BRANCH  15  20
ATOM     20  C   UNL     1       0.281  13.646  21.390  0.00  0.00    +0.000 C 
BRANCH  20  21
ATOM     21  C   UNL     1       0.557  14.702  20.340  0.00  0.00    +0.000 A 
ATOM     22  C   UNL     1      -0.462  15.203  19.518  0.00  0.00    +0.000 A 
ATOM     23  C   UNL     1      -0.195  16.227  18.606  0.00  0.00    +0.000 A 
ATOM     24  C   UNL     1       1.078  16.798  18.545  0.00  0.00    +0.000 A 
ATOM     25  C   UNL     1       2.091  16.324  19.377  0.00  0.00    +0.000 A 
ATOM     26  C   UNL     1       1.848  15.230  20.211  0.00  0.00    +0.000 A 
BRANCH  25  27
ATOM     27  O   UNL     1       3.304  16.974  19.318  0.00  0.00    +0.000 OA
BRANCH  27  28
ATOM     28  C   UNL     1       4.439  16.239  19.040  0.00  0.00    +0.000 A 
ATOM     29  C   UNL     1       5.504  16.394  19.929  0.00  0.00    +0.000 A 
ATOM     30  C   UNL     1       6.707  15.718  19.704  0.00  0.00    +0.000 A 
ATOM     31  C   UNL     1       6.843  14.894  18.588  0.00  0.00    +0.000 A 
ATOM     32 CL   UNL     1       8.336  14.096  18.286  0.00  0.00    +0.000 Cl
ATOM     33  C   UNL     1       5.773  14.706  17.716  0.00  0.00    +0.000 A 
ATOM     34  C   UNL     1       4.561  15.352  17.963  0.00  0.00    +0.000 A 
ENDBRANCH  27  28
ENDBRANCH  25  27
ENDBRANCH  20  21
ENDBRANCH  15  20
TORSDOF 4
ENDMDL
MODEL 6
REMARK VINA RESULT:      -7.9      4.369     10.074
REMARK  Name = 
REMARK  4 active torsions:
REMARK  status: ('A' for Active; 'I' for Inactive)
REMARK    1  A    between atoms: N_15  and  C_16
REMARK    2  A    between atoms: C_16  and  C_17
REMARK    3  A    between atoms: C_21  and  O_22
REMARK    4  A    between atoms: O_22  and  C_23
REMARK                            x       y       z     vdW  Elec       q    Type
REMARK                         _______ _______ _______ _____ _____    ______ ____
ROOT
ATOM      1  O   UNL     1       2.626   8.945  17.056  0.00  0.00    +0.000 OA
ATOM      2  C   UNL     1       2.140   8.426  18.058  0.00  0.00    +0.000 C 
ATOM      3  N   UNL     1       2.538   7.212  18.561  0.00  0.00    +0.000 N 
ATOM      4  C   UNL     1       3.551   6.470  17.932  0.00  0.00    +0.000 A 
ATOM      5  C   UNL     1       4.773   7.042  17.602  0.00  0.00    +0.000 A 
ATOM      6  C   UNL     1       5.722   6.261  16.948  0.00  0.00    +0.000 A 
ATOM      7  C   UNL     1       5.383   4.958  16.647  0.00  0.00    +0.000 A 
ATOM      8 CL   UNL     1       6.448   3.928  15.791  0.00  0.00    +0.000 Cl
ATOM      9  N   UNL     1       4.205   4.409  17.004  0.00  0.00    +0.000 NA
ATOM     10  N   UNL     1       3.289   5.172  17.681  0.00  0.00    +0.000 NA
ATOM     11  N   UNL     1       1.100   9.004  18.756  0.00  0.00    +0.000 N 
ATOM     12  C   UNL     1       0.425  10.163  18.206  0.00  0.00    +0.000 C 
ATOM     13  C   UNL     1       0.102  11.016  19.405  0.00  0.00    +0.000 C 
ATOM     14  C   UNL     1       1.278  11.849  19.888  0.00  0.00    +0.000 C 
ATOM     15  N   UNL     1       0.984  12.077  21.311  0.00  0.00    +0.000 NA
ATOM     16  C   UNL     1       0.280  10.860  21.786  0.00  0.00    +0.000 C 
ATOM     17  C   UNL     1      -0.087  10.032  20.553  0.00  0.00    +0.000 C 
ATOM     18  C   UNL     1       0.889   8.896  20.201  0.00  0.00    +0.000 C 
ATOM     19  H   UNL     1       1.761   6.635  18.844  0.00  0.00    +0.000 HD
ENDROOT
BRANCH  15  20
ATOM     20  C   UNL     1       0.161  13.286  21.504  0.00  0.00    +0.000 C 
BRANCH  20  21
ATOM     21  C   UNL     1      -1.265  12.981  21.914  0.00  0.00    +0.000 A 
ATOM     22  C   UNL     1      -1.608  12.741  23.252  0.00  0.00    +0.000 A 
ATOM     23  C   UNL     1      -2.941  12.532  23.614  0.00  0.00    +0.000 A 
ATOM     24  C   UNL     1      -3.950  12.616  22.652  0.00  0.00    +0.000 A 
ATOM     25  C   UNL     1      -3.621  12.882  21.323  0.00  0.00    +0.000 A 
ATOM     26  C   UNL     1      -2.280  12.984  20.949  0.00  0.00    +0.000 A 
BRANCH  25  27
ATOM     27  O   UNL     1      -4.666  13.021  20.437  0.00  0.00    +0.000 OA
BRANCH  27  28
ATOM     28  C   UNL     1      -4.574  12.413  19.200  0.00  0.00    +0.000 A 
ATOM     29  C   UNL     1      -3.443  11.621  18.989  0.00  0.00    +0.000 A 
ATOM     30  C   UNL     1      -3.245  10.998  17.753  0.00  0.00    +0.000 A 
ATOM     31  C   UNL     1      -4.178  11.173  16.731  0.00  0.00    +0.000 A 
ATOM     32 CL   UNL     1      -3.916  10.442  15.196  0.00  0.00    +0.000 Cl
ATOM     33  C   UNL     1      -5.326  11.931  16.946  0.00  0.00    +0.000 A 
ATOM     34  C   UNL     1      -5.539  12.521  18.192  0.00  0.00    +0.000 A 
ENDBRANCH  27  28
ENDBRANCH  25  27
ENDBRANCH  20  21
ENDBRANCH  15  20
TORSDOF 4
ENDMDL
MODEL 7
REMARK VINA RESULT:      -7.9      4.214      5.381
REMARK  Name = 
REMARK  4 active torsions:
REMARK  status: ('A' for Active; 'I' for Inactive)
REMARK    1  A    between atoms: N_15  and  C_16
REMARK    2  A    between atoms: C_16  and  C_17
REMARK    3  A    between atoms: C_21  and  O_22
REMARK    4  A    between atoms: O_22  and  C_23
REMARK                            x       y       z     vdW  Elec       q    Type
REMARK                         _______ _______ _______ _____ _____    ______ ____
ROOT
ATOM      1  O   UNL     1      -1.822  12.043  17.652  0.00  0.00    +0.000 OA
ATOM      2  C   UNL     1      -1.777  11.802  18.856  0.00  0.00    +0.000 C 
ATOM      3  N   UNL     1      -2.849  11.934  19.703  0.00  0.00    +0.000 N 
ATOM      4  C   UNL     1      -4.095  12.370  19.224  0.00  0.00    +0.000 A 
ATOM      5  C   UNL     1      -4.694  11.786  18.115  0.00  0.00    +0.000 A 
ATOM      6  C   UNL     1      -5.913  12.290  17.670  0.00  0.00    +0.000 A 
ATOM      7  C   UNL     1      -6.451  13.361  18.352  0.00  0.00    +0.000 A 
ATOM      8 CL   UNL     1      -7.913  14.098  17.856  0.00  0.00    +0.000 Cl
ATOM      9  N   UNL     1      -5.873  13.895  19.446  0.00  0.00    +0.000 NA
ATOM     10  N   UNL     1      -4.692  13.371  19.902  0.00  0.00    +0.000 NA
ATOM     11  N   UNL     1      -0.613  11.416  19.487  0.00  0.00    +0.000 N 
ATOM     12  C   UNL     1       0.644  11.466  18.765  0.00  0.00    +0.000 C 
ATOM     13  C   UNL     1       1.409  10.265  19.258  0.00  0.00    +0.000 C 
ATOM     14  C   UNL     1       0.998   8.968  18.582  0.00  0.00    +0.000 C 
ATOM     15  N   UNL     1       1.349   7.933  19.567  0.00  0.00    +0.000 NA
ATOM     16  C   UNL     1       1.139   8.548  20.901  0.00  0.00    +0.000 C 
ATOM     17  C   UNL     1       0.931  10.048  20.687  0.00  0.00    +0.000 C 
ATOM     18  C   UNL     1      -0.535  10.515  20.638  0.00  0.00    +0.000 C 
ATOM     19  H   UNL     1      -2.602  12.368  20.579  0.00  0.00    +0.000 HD
ENDROOT
BRANCH  15  20
ATOM     20  C   UNL     1       2.742   7.478  19.396  0.00  0.00    +0.000 C 
BRANCH  20  21
ATOM     21  C   UNL     1       2.852   6.104  18.766  0.00  0.00    +0.000 A 
ATOM     22  C   UNL     1       1.718   5.407  18.326  0.00  0.00    +0.000 A 
ATOM     23  C   UNL     1       1.852   4.173  17.685  0.00  0.00    +0.000 A 
ATOM     24  C   UNL     1       3.121   3.650  17.429  0.00  0.00    +0.000 A 
ATOM     25  C   UNL     1       4.255   4.349  17.840  0.00  0.00    +0.000 A 
ATOM     26  C   UNL     1       4.114   5.529  18.573  0.00  0.00    +0.000 A 
BRANCH  25  27
ATOM     27  O   UNL     1       5.477   3.815  17.497  0.00  0.00    +0.000 OA
BRANCH  27  28
ATOM     28  C   UNL     1       6.004   4.107  16.254  0.00  0.00    +0.000 A 
ATOM     29  C   UNL     1       7.030   5.055  16.230  0.00  0.00    +0.000 A 
ATOM     30  C   UNL     1       7.596   5.442  15.011  0.00  0.00    +0.000 A 
ATOM     31  C   UNL     1       7.132   4.882  13.821  0.00  0.00    +0.000 A 
ATOM     32 CL   UNL     1       7.797   5.388  12.318  0.00  0.00    +0.000 Cl
ATOM     33  C   UNL     1       6.135   3.911  13.840  0.00  0.00    +0.000 A 
ATOM     34  C   UNL     1       5.597   3.499  15.060  0.00  0.00    +0.000 A 
ENDBRANCH  27  28
ENDBRANCH  25  27
ENDBRANCH  20  21
ENDBRANCH  15  20
TORSDOF 4
ENDMDL
MODEL 8
REMARK VINA RESULT:      -7.9      1.095      1.452
REMARK  Name = 
REMARK  4 active torsions:
REMARK  status: ('A' for Active; 'I' for Inactive)
REMARK    1  A    between atoms: N_15  and  C_16
REMARK    2  A    between atoms: C_16  and  C_17
REMARK    3  A    between atoms: C_21  and  O_22
REMARK    4  A    between atoms: O_22  and  C_23
REMARK                            x       y       z     vdW  Elec       q    Type
REMARK                         _______ _______ _______ _____ _____    ______ ____
ROOT
ATOM      1  O   UNL     1       0.505  12.573  21.509  0.00  0.00    +0.000 OA
ATOM      2  C   UNL     1       0.880  12.269  20.379  0.00  0.00    +0.000 C 
ATOM      3  N   UNL     1       1.577  13.113  19.551  0.00  0.00    +0.000 N 
ATOM      4  C   UNL     1       1.905  14.416  19.961  0.00  0.00    +0.000 A 
ATOM      5  C   UNL     1       2.522  14.660  21.181  0.00  0.00    +0.000 A 
ATOM      6  C   UNL     1       2.787  15.977  21.544  0.00  0.00    +0.000 A 
ATOM      7  C   UNL     1       2.401  16.973  20.671  0.00  0.00    +0.000 A 
ATOM      8 CL   UNL     1       2.624  18.628  21.043  0.00  0.00    +0.000 Cl
ATOM      9  N   UNL     1       1.834  16.717  19.476  0.00  0.00    +0.000 NA
ATOM     10  N   UNL     1       1.609  15.416  19.108  0.00  0.00    +0.000 NA
ATOM     11  N   UNL     1       0.590  11.045  19.812  0.00  0.00    +0.000 N 
ATOM     12  C   UNL     1      -0.336  10.149  20.475  0.00  0.00    +0.000 C 
ATOM     13  C   UNL     1       0.223   8.774  20.220  0.00  0.00    +0.000 C 
ATOM     14  C   UNL     1       1.358   8.399  21.158  0.00  0.00    +0.000 C 
ATOM     15  N   UNL     1       2.126   7.401  20.397  0.00  0.00    +0.000 NA
ATOM     16  C   UNL     1       2.013   7.795  18.971  0.00  0.00    +0.000 C 
ATOM     17  C   UNL     1       0.935   8.876  18.878  0.00  0.00    +0.000 C 
ATOM     18  C   UNL     1       1.449  10.327  18.868  0.00  0.00    +0.000 C 
ATOM     19  H   UNL     1       1.247  13.084  18.598  0.00  0.00    +0.000 HD
ENDROOT
BRANCH  15  20
ATOM     20  C   UNL     1       1.607   6.038  20.623  0.00  0.00    +0.000 C 
BRANCH  20  21
ATOM     21  C   UNL     1       2.620   4.953  20.319  0.00  0.00    +0.000 A 
ATOM     22  C   UNL     1       2.543   3.689  20.921  0.00  0.00    +0.000 A 
ATOM     23  C   UNL     1       3.447   2.683  20.571  0.00  0.00    +0.000 A 
ATOM     24  C   UNL     1       4.401   2.913  19.578  0.00  0.00    +0.000 A 
ATOM     25  C   UNL     1       4.468   4.158  18.954  0.00  0.00    +0.000 A 
ATOM     26  C   UNL     1       3.633   5.192  19.382  0.00  0.00    +0.000 A 
BRANCH  25  27
ATOM     27  O   UNL     1       5.384   4.298  17.935  0.00  0.00    +0.000 OA
BRANCH  27  28
ATOM     28  C   UNL     1       6.154   5.444  17.888  0.00  0.00    +0.000 A 
ATOM     29  C   UNL     1       7.248   5.484  18.755  0.00  0.00    +0.000 A 
ATOM     30  C   UNL     1       8.060   6.621  18.804  0.00  0.00    +0.000 A 
ATOM     31  C   UNL     1       7.774   7.715  17.988  0.00  0.00    +0.000 A 
ATOM     32 CL   UNL     1       8.746   9.130  18.077  0.00  0.00    +0.000 Cl
ATOM     33  C   UNL     1       6.706   7.668  17.095  0.00  0.00    +0.000 A 
ATOM     34  C   UNL     1       5.919   6.519  17.022  0.00  0.00    +0.000 A 
ENDBRANCH  27  28
ENDBRANCH  25  27
ENDBRANCH  20  21
ENDBRANCH  15  20
TORSDOF 4
ENDMDL
MODEL 9
REMARK VINA RESULT:      -7.9      3.129      9.361
REMARK  Name = 
REMARK  4 active torsions:
REMARK  status: ('A' for Active; 'I' for Inactive)
REMARK    1  A    between atoms: N_15  and  C_16
REMARK    2  A    between atoms: C_16  and  C_17
REMARK    3  A    between atoms: C_21  and  O_22
REMARK    4  A    between atoms: O_22  and  C_23
REMARK                            x       y       z     vdW  Elec       q    Type
REMARK                         _______ _______ _______ _____ _____    ______ ____
ROOT
ATOM      1  O   UNL     1       1.375   9.100  17.233  0.00  0.00    +0.000 OA
ATOM      2  C   UNL     1       1.283   8.980  18.452  0.00  0.00    +0.000 C 
ATOM      3  N   UNL     1       1.943   8.020  19.178  0.00  0.00    +0.000 N 
ATOM      4  C   UNL     1       2.781   7.088  18.546  0.00  0.00    +0.000 A 
ATOM      5  C   UNL     1       3.772   7.487  17.657  0.00  0.00    +0.000 A 
ATOM      6  C   UNL     1       4.545   6.510  17.036  0.00  0.00    +0.000 A 
ATOM      7  C   UNL     1       4.268   5.191  17.328  0.00  0.00    +0.000 A 
ATOM      8 CL   UNL     1       5.115   3.908  16.577  0.00  0.00    +0.000 Cl
ATOM      9  N   UNL     1       3.325   4.823  18.218  0.00  0.00    +0.000 NA
ATOM     10  N   UNL     1       2.592   5.790  18.854  0.00  0.00    +0.000 NA
ATOM     11  N   UNL     1       0.459   9.785  19.211  0.00  0.00    +0.000 N 
ATOM     12  C   UNL     1      -0.472  10.680  18.553  0.00  0.00    +0.000 C 
ATOM     13  C   UNL     1      -0.492  11.909  19.423  0.00  0.00    +0.000 C 
ATOM     14  C   UNL     1       0.681  12.843  19.176  0.00  0.00    +0.000 C 
ATOM     15  N   UNL     1       0.825  13.569  20.447  0.00  0.00    +0.000 NA
ATOM     16  C   UNL     1       0.436  12.612  21.513  0.00  0.00    +0.000 C 
ATOM     17  C   UNL     1      -0.209  11.404  20.831  0.00  0.00    +0.000 C 
ATOM     18  C   UNL     1       0.722  10.203  20.589  0.00  0.00    +0.000 C 
ATOM     19  H   UNL     1       1.359   7.594  19.882  0.00  0.00    +0.000 HD
ENDROOT
BRANCH  15  20
ATOM     20  C   UNL     1      -0.019  14.778  20.474  0.00  0.00    +0.000 C 
BRANCH  20  21
ATOM     21  C   UNL     1       0.321  15.772  19.382  0.00  0.00    +0.000 A 
ATOM     22  C   UNL     1      -0.678  16.462  18.682  0.00  0.00    +0.000 A 
ATOM     23  C   UNL     1      -0.337  17.425  17.729  0.00  0.00    +0.000 A 
ATOM     24  C   UNL     1       1.004  17.746  17.506  0.00  0.00    +0.000 A 
ATOM     25  C   UNL     1       2.003  17.085  18.218  0.00  0.00    +0.000 A 
ATOM     26  C   UNL     1       1.662  16.050  19.091  0.00  0.00    +0.000 A 
BRANCH  25  27
ATOM     27  O   UNL     1       3.300  17.496  18.003  0.00  0.00    +0.000 OA
BRANCH  27  28
ATOM     28  C   UNL     1       4.328  16.605  18.243  0.00  0.00    +0.000 A 
ATOM     29  C   UNL     1       5.281  17.007  19.181  0.00  0.00    +0.000 A 
ATOM     30  C   UNL     1       6.379  16.186  19.459  0.00  0.00    +0.000 A 
ATOM     31  C   UNL     1       6.521  14.968  18.795  0.00  0.00    +0.000 A 
ATOM     32 CL   UNL     1       7.892  13.977  19.103  0.00  0.00    +0.000 Cl
ATOM     33  C   UNL     1       5.556  14.545  17.885  0.00  0.00    +0.000 A 
ATOM     34  C   UNL     1       4.443  15.348  17.636  0.00  0.00    +0.000 A 
ENDBRANCH  27  28
ENDBRANCH  25  27
ENDBRANCH  20  21
ENDBRANCH  15  20
TORSDOF 4
ENDMDL
