MODEL 1
REMARK VINA RESULT:      -7.7      0.000      0.000
REMARK  Name = 
REMARK  14 active torsions:
REMARK  status: ('A' for Active; 'I' for Inactive)
REMARK    1  A    between atoms: C_2  and  C_3
REMARK    2  A    between atoms: C_6  and  O_7
REMARK    3  A    between atoms: O_7  and  C_8
REMARK    4  A    between atoms: C_10  and  C_11
REMARK    5  A    between atoms: C_11  and  O_12
REMARK    6  A    between atoms: O_12  and  C_13
REMARK    7  A    between atoms: C_16  and  O_17
REMARK    8  A    between atoms: C_16  and  C_18
REMARK    9  A    between atoms: C_18  and  O_19
REMARK   10  A    between atoms: C_20  and  O_21
REMARK   11  A    between atoms: C_22  and  O_23
REMARK   12  A    between atoms: C_24  and  O_25
REMARK   13  A    between atoms: C_26  and  O_27
REMARK   14  A    between atoms: C_28  and  O_29
REMARK                            x       y       z     vdW  Elec       q    Type
REMARK                         _______ _______ _______ _____ _____    ______ ____
ROOT
ATOM      1  C   UNL     1       2.368   4.911  20.502  0.00  0.00    +0.000 C 
ATOM      2  O   UNL     1       3.677   5.129  19.969  0.00  0.00    +0.000 OA
ATOM      3  C   UNL     1       4.427   3.919  19.787  0.00  0.00    +0.000 C 
ATOM      4  C   UNL     1       3.688   2.973  18.820  0.00  0.00    +0.000 C 
ATOM      5  C   UNL     1       2.265   2.687  19.328  0.00  0.00    +0.000 C 
ATOM      6  C   UNL     1       1.504   4.000  19.596  0.00  0.00    +0.000 C 
ENDROOT
BRANCH   4   7
ATOM      7  O   UNL     1       4.421   1.758  18.650  0.00  0.00    +0.000 OA
ATOM      8  H   UNL     1       5.022   1.852  17.891  0.00  0.00    +0.000 HD
ENDBRANCH   4   7
BRANCH   5   9
ATOM      9  O   UNL     1       1.561   1.858  18.404  0.00  0.00    +0.000 OA
ATOM     10  H   UNL     1       0.717   1.580  18.805  0.00  0.00    +0.000 HD
ENDBRANCH   5   9
BRANCH   6  11
ATOM     11  O   UNL     1       0.226   3.724  20.191  0.00  0.00    +0.000 OA
ATOM     12  H   UNL     1      -0.035   4.474  20.752  0.00  0.00    +0.000 HD
ENDBRANCH   6  11
BRANCH   1  13
ATOM     13  O   UNL     1       1.678   6.123  20.859  0.00  0.00    +0.000 OA
BRANCH  13  17
ATOM     14  C   UNL     1       1.812   9.587  18.552  0.00  0.00    +0.000 A 
ATOM     15  C   UNL     1       2.421   8.432  18.058  0.00  0.00    +0.000 A 
ATOM     16  C   UNL     1       2.396   7.249  18.800  0.00  0.00    +0.000 A 
ATOM     17  C   UNL     1       1.755   7.211  20.038  0.00  0.00    +0.000 A 
ATOM     18  C   UNL     1       1.171   8.386  20.524  0.00  0.00    +0.000 A 
ATOM     19  C   UNL     1       1.190   9.575  19.800  0.00  0.00    +0.000 A 
BRANCH  14  21
ATOM     20  O   UNL     1       2.649  11.723  17.979  0.00  0.00    +0.000 OA
ATOM     21  C   UNL     1       1.837  10.832  17.759  0.00  0.00    +0.000 C 
ENDBRANCH  14  21
BRANCH  18  22
ATOM     22  O   UNL     1       0.548   8.401  21.745  0.00  0.00    +0.000 OA
ATOM     23  H   UNL     1       1.088   8.994  22.302  0.00  0.00    +0.000 HD
ENDBRANCH  18  22
ENDBRANCH  13  17
ENDBRANCH   1  13
BRANCH   3  24
ATOM     24  C   UNL     1       5.818   4.253  19.214  0.00  0.00    +0.000 C 
BRANCH  24  25
ATOM     25  O   UNL     1       5.987   5.666  19.024  0.00  0.00    +0.000 OA
BRANCH  25  26
ATOM     26  C   UNL     1       6.527   5.928  17.726  0.00  0.00    +0.000 C 
ATOM     27  O   UNL     1       5.617   6.717  16.933  0.00  0.00    +0.000 OA
ATOM     28  C   UNL     1       5.387   6.046  15.682  0.00  0.00    +0.000 C 
ATOM     29  C   UNL     1       6.553   5.083  15.513  0.00  0.00    +0.000 C 
ATOM     30  C   UNL     1       6.785   4.627  16.946  0.00  0.00    +0.000 C 
BRANCH  29  31
ATOM     31  O   UNL     1       7.724   5.798  15.042  0.00  0.00    +0.000 OA
ATOM     32  H   UNL     1       8.146   6.230  15.810  0.00  0.00    +0.000 HD
ENDBRANCH  29  31
BRANCH  30  33
ATOM     33  O   UNL     1       8.104   4.111  17.126  0.00  0.00    +0.000 OA
ATOM     34  H   UNL     1       8.316   4.208  18.076  0.00  0.00    +0.000 HD
ENDBRANCH  30  33
BRANCH  29  35
ATOM     35  C   UNL     1       6.273   3.949  14.535  0.00  0.00    +0.000 C 
BRANCH  35  36
ATOM     36  O   UNL     1       5.949   2.758  15.257  0.00  0.00    +0.000 OA
ATOM     37  H   UNL     1       5.612   2.124  14.598  0.00  0.00    +0.000 HD
ENDBRANCH  35  36
ENDBRANCH  29  35
ENDBRANCH  25  26
ENDBRANCH  24  25
ENDBRANCH   3  24
TORSDOF 14
ENDMDL
MODEL 2
REMARK VINA RESULT:      -7.5      2.109      6.389
REMARK  Name = 
REMARK  14 active torsions:
REMARK  status: ('A' for Active; 'I' for Inactive)
REMARK    1  A    between atoms: C_2  and  C_3
REMARK    2  A    between atoms: C_6  and  O_7
REMARK    3  A    between atoms: O_7  and  C_8
REMARK    4  A    between atoms: C_10  and  C_11
REMARK    5  A    between atoms: C_11  and  O_12
REMARK    6  A    between atoms: O_12  and  C_13
REMARK    7  A    between atoms: C_16  and  O_17
REMARK    8  A    between atoms: C_16  and  C_18
REMARK    9  A    between atoms: C_18  and  O_19
REMARK   10  A    between atoms: C_20  and  O_21
REMARK   11  A    between atoms: C_22  and  O_23
REMARK   12  A    between atoms: C_24  and  O_25
REMARK   13  A    between atoms: C_26  and  O_27
REMARK   14  A    between atoms: C_28  and  O_29
REMARK                            x       y       z     vdW  Elec       q    Type
REMARK                         _______ _______ _______ _____ _____    ______ ____
ROOT
ATOM      1  C   UNL     1       4.682   4.064  19.177  0.00  0.00    +0.000 C 
ATOM      2  O   UNL     1       4.069   5.309  19.523  0.00  0.00    +0.000 OA
ATOM      3  C   UNL     1       2.640   5.230  19.632  0.00  0.00    +0.000 C 
ATOM      4  C   UNL     1       2.244   4.207  20.714  0.00  0.00    +0.000 C 
ATOM      5  C   UNL     1       2.866   2.833  20.411  0.00  0.00    +0.000 C 
ATOM      6  C   UNL     1       4.389   2.952  20.215  0.00  0.00    +0.000 C 
ENDROOT
BRANCH   4   7
ATOM      7  O   UNL     1       0.822   4.109  20.815  0.00  0.00    +0.000 OA
ATOM      8  H   UNL     1       0.518   3.339  20.304  0.00  0.00    +0.000 HD
ENDBRANCH   4   7
BRANCH   5   9
ATOM      9  O   UNL     1       2.547   1.900  21.443  0.00  0.00    +0.000 OA
ATOM     10  H   UNL     1       2.386   1.027  21.042  0.00  0.00    +0.000 HD
ENDBRANCH   5   9
BRANCH   6  11
ATOM     11  O   UNL     1       4.940   1.691  19.805  0.00  0.00    +0.000 OA
ATOM     12  H   UNL     1       5.631   1.423  20.435  0.00  0.00    +0.000 HD
ENDBRANCH   6  11
BRANCH   1  13
ATOM     13  O   UNL     1       6.088   4.170  18.885  0.00  0.00    +0.000 OA
BRANCH  13  17
ATOM     14  C   UNL     1       7.861   7.802  17.880  0.00  0.00    +0.000 A 
ATOM     15  C   UNL     1       6.844   7.306  17.061  0.00  0.00    +0.000 A 
ATOM     16  C   UNL     1       6.222   6.093  17.365  0.00  0.00    +0.000 A 
ATOM     17  C   UNL     1       6.607   5.371  18.495  0.00  0.00    +0.000 A 
ATOM     18  C   UNL     1       7.644   5.875  19.288  0.00  0.00    +0.000 A 
ATOM     19  C   UNL     1       8.278   7.080  18.998  0.00  0.00    +0.000 A 
BRANCH  14  21
ATOM     20  O   UNL     1       8.419  10.061  18.296  0.00  0.00    +0.000 OA
ATOM     21  C   UNL     1       8.509   9.088  17.556  0.00  0.00    +0.000 C 
ENDBRANCH  14  21
BRANCH  18  22
ATOM     22  O   UNL     1       8.070   5.188  20.396  0.00  0.00    +0.000 OA
ATOM     23  H   UNL     1       9.042   5.281  20.397  0.00  0.00    +0.000 HD
ENDBRANCH  18  22
ENDBRANCH  13  17
ENDBRANCH   1  13
BRANCH   3  24
ATOM     24  C   UNL     1       2.073   6.614  20.003  0.00  0.00    +0.000 C 
BRANCH  24  25
ATOM     25  O   UNL     1       2.075   7.506  18.878  0.00  0.00    +0.000 OA
BRANCH  25  26
ATOM     26  C   UNL     1       1.802   8.843  19.308  0.00  0.00    +0.000 C 
ATOM     27  O   UNL     1       0.978   8.852  20.491  0.00  0.00    +0.000 OA
ATOM     28  C   UNL     1      -0.170   9.684  20.252  0.00  0.00    +0.000 C 
ATOM     29  C   UNL     1       0.211  10.583  19.086  0.00  0.00    +0.000 C 
ATOM     30  C   UNL     1       1.046   9.641  18.231  0.00  0.00    +0.000 C 
BRANCH  29  31
ATOM     31  O   UNL     1       1.046  11.675  19.551  0.00  0.00    +0.000 OA
ATOM     32  H   UNL     1       1.778  11.296  20.075  0.00  0.00    +0.000 HD
ENDBRANCH  29  31
BRANCH  30  33
ATOM     33  O   UNL     1       1.909  10.358  17.348  0.00  0.00    +0.000 OA
ATOM     34  H   UNL     1       1.686  11.305  17.445  0.00  0.00    +0.000 HD
ENDBRANCH  30  33
BRANCH  29  35
ATOM     35  C   UNL     1      -0.986  11.186  18.361  0.00  0.00    +0.000 C 
BRANCH  35  36
ATOM     36  O   UNL     1      -1.822  10.141  17.859  0.00  0.00    +0.000 OA
ATOM     37  H   UNL     1      -1.916  10.305  16.902  0.00  0.00    +0.000 HD
ENDBRANCH  35  36
ENDBRANCH  29  35
ENDBRANCH  25  26
ENDBRANCH  24  25
ENDBRANCH   3  24
TORSDOF 14
ENDMDL
MODEL 3
REMARK VINA RESULT:      -7.4      1.674      7.060
REMARK  Name = 
REMARK  14 active torsions:
REMARK  status: ('A' for Active; 'I' for Inactive)
REMARK    1  A    between atoms: C_2  and  C_3
REMARK    2  A    between atoms: C_6  and  O_7
REMARK    3  A    between atoms: O_7  and  C_8
REMARK    4  A    between atoms: C_10  and  C_11
REMARK    5  A    between atoms: C_11  and  O_12
REMARK    6  A    between atoms: O_12  and  C_13
REMARK    7  A    between atoms: C_16  and  O_17
REMARK    8  A    between atoms: C_16  and  C_18
REMARK    9  A    between atoms: C_18  and  O_19
REMARK   10  A    between atoms: C_20  and  O_21
REMARK   11  A    between atoms: C_22  and  O_23
REMARK   12  A    between atoms: C_24  and  O_25
REMARK   13  A    between atoms: C_26  and  O_27
REMARK   14  A    between atoms: C_28  and  O_29
REMARK                            x       y       z     vdW  Elec       q    Type
REMARK                         _______ _______ _______ _____ _____    ______ ____
ROOT
ATOM      1  C   UNL     1       4.116   4.076  18.701  0.00  0.00    +0.000 C 
ATOM      2  O   UNL     1       3.717   5.343  19.233  0.00  0.00    +0.000 OA
ATOM      3  C   UNL     1       2.301   5.455  19.440  0.00  0.00    +0.000 C 
ATOM      4  C   UNL     1       1.819   4.371  20.424  0.00  0.00    +0.000 C 
ATOM      5  C   UNL     1       2.210   2.972  19.919  0.00  0.00    +0.000 C 
ATOM      6  C   UNL     1       3.719   2.897  19.623  0.00  0.00    +0.000 C 
ENDROOT
BRANCH   4   7
ATOM      7  O   UNL     1       0.407   4.464  20.620  0.00  0.00    +0.000 OA
ATOM      8  H   UNL     1      -0.046   4.232  19.791  0.00  0.00    +0.000 HD
ENDBRANCH   4   7
BRANCH   5   9
ATOM      9  O   UNL     1       1.814   1.972  20.858  0.00  0.00    +0.000 OA
ATOM     10  H   UNL     1       1.634   1.142  20.380  0.00  0.00    +0.000 HD
ENDBRANCH   5   9
BRANCH   6  11
ATOM     11  O   UNL     1       4.051   1.631  19.031  0.00  0.00    +0.000 OA
ATOM     12  H   UNL     1       3.326   1.003  19.191  0.00  0.00    +0.000 HD
ENDBRANCH   6  11
BRANCH   1  13
ATOM     13  O   UNL     1       5.502   4.018  18.319  0.00  0.00    +0.000 OA
BRANCH  13  17
ATOM     14  C   UNL     1       6.836   4.765  14.445  0.00  0.00    +0.000 A 
ATOM     15  C   UNL     1       5.485   4.467  14.640  0.00  0.00    +0.000 A 
ATOM     16  C   UNL     1       4.998   4.212  15.925  0.00  0.00    +0.000 A 
ATOM     17  C   UNL     1       5.856   4.263  17.023  0.00  0.00    +0.000 A 
ATOM     18  C   UNL     1       7.209   4.542  16.801  0.00  0.00    +0.000 A 
ATOM     19  C   UNL     1       7.713   4.794  15.529  0.00  0.00    +0.000 A 
BRANCH  14  21
ATOM     20  O   UNL     1       8.249   5.839  12.883  0.00  0.00    +0.000 OA
ATOM     21  C   UNL     1       7.342   5.040  13.086  0.00  0.00    +0.000 C 
ENDBRANCH  14  21
BRANCH  18  22
ATOM     22  O   UNL     1       8.093   4.581  17.850  0.00  0.00    +0.000 OA
ATOM     23  H   UNL     1       7.542   4.495  18.652  0.00  0.00    +0.000 HD
ENDBRANCH  18  22
ENDBRANCH  13  17
ENDBRANCH   1  13
BRANCH   3  24
ATOM     24  C   UNL     1       1.970   6.848  20.010  0.00  0.00    +0.000 C 
BRANCH  24  25
ATOM     25  O   UNL     1       1.947   7.849  18.981  0.00  0.00    +0.000 OA
BRANCH  25  26
ATOM     26  C   UNL     1       1.637   9.127  19.542  0.00  0.00    +0.000 C 
ATOM     27  O   UNL     1       0.841   8.992  20.737  0.00  0.00    +0.000 OA
ATOM     28  C   UNL     1      -0.341   9.799  20.602  0.00  0.00    +0.000 C 
ATOM     29  C   UNL     1      -0.019  10.819  19.520  0.00  0.00    +0.000 C 
ATOM     30  C   UNL     1       0.828   9.995  18.563  0.00  0.00    +0.000 C 
BRANCH  29  31
ATOM     31  O   UNL     1       0.787  11.892  20.072  0.00  0.00    +0.000 OA
ATOM     32  H   UNL     1       1.530  12.059  19.461  0.00  0.00    +0.000 HD
ENDBRANCH  29  31
BRANCH  30  33
ATOM     33  O   UNL     1       1.644  10.825  17.735  0.00  0.00    +0.000 OA
ATOM     34  H   UNL     1       2.555  10.760  18.085  0.00  0.00    +0.000 HD
ENDBRANCH  30  33
BRANCH  29  35
ATOM     35  C   UNL     1      -1.254  11.443  18.881  0.00  0.00    +0.000 C 
BRANCH  35  36
ATOM     36  O   UNL     1      -1.116  11.436  17.458  0.00  0.00    +0.000 OA
ATOM     37  H   UNL     1      -1.195  12.365  17.173  0.00  0.00    +0.000 HD
ENDBRANCH  35  36
ENDBRANCH  29  35
ENDBRANCH  25  26
ENDBRANCH  24  25
ENDBRANCH   3  24
TORSDOF 14
ENDMDL
MODEL 4
REMARK VINA RESULT:      -7.3      1.582      2.573
REMARK  Name = 
REMARK  14 active torsions:
REMARK  status: ('A' for Active; 'I' for Inactive)
REMARK    1  A    between atoms: C_2  and  C_3
REMARK    2  A    between atoms: C_6  and  O_7
REMARK    3  A    between atoms: O_7  and  C_8
REMARK    4  A    between atoms: C_10  and  C_11
REMARK    5  A    between atoms: C_11  and  O_12
REMARK    6  A    between atoms: O_12  and  C_13
REMARK    7  A    between atoms: C_16  and  O_17
REMARK    8  A    between atoms: C_16  and  C_18
REMARK    9  A    between atoms: C_18  and  O_19
REMARK   10  A    between atoms: C_20  and  O_21
REMARK   11  A    between atoms: C_22  and  O_23
REMARK   12  A    between atoms: C_24  and  O_25
REMARK   13  A    between atoms: C_26  and  O_27
REMARK   14  A    between atoms: C_28  and  O_29
REMARK                            x       y       z     vdW  Elec       q    Type
REMARK                         _______ _______ _______ _____ _____    ______ ____
ROOT
ATOM      1  C   UNL     1       2.974   6.001  19.375  0.00  0.00    +0.000 C 
ATOM      2  O   UNL     1       4.343   5.930  18.967  0.00  0.00    +0.000 OA
ATOM      3  C   UNL     1       5.091   4.916  19.653  0.00  0.00    +0.000 C 
ATOM      4  C   UNL     1       4.466   3.530  19.402  0.00  0.00    +0.000 C 
ATOM      5  C   UNL     1       2.985   3.523  19.818  0.00  0.00    +0.000 C 
ATOM      6  C   UNL     1       2.217   4.670  19.136  0.00  0.00    +0.000 C 
ENDROOT
BRANCH   4   7
ATOM      7  O   UNL     1       5.194   2.517  20.098  0.00  0.00    +0.000 OA
ATOM      8  H   UNL     1       4.679   2.228  20.871  0.00  0.00    +0.000 HD
ENDBRANCH   4   7
BRANCH   5   9
ATOM      9  O   UNL     1       2.390   2.257  19.533  0.00  0.00    +0.000 OA
ATOM     10  H   UNL     1       2.508   2.058  18.586  0.00  0.00    +0.000 HD
ENDBRANCH   5   9
BRANCH   6  11
ATOM     11  O   UNL     1       0.870   4.735  19.630  0.00  0.00    +0.000 OA
ATOM     12  H   UNL     1       0.723   4.004  20.255  0.00  0.00    +0.000 HD
ENDBRANCH   6  11
BRANCH   1  13
ATOM     13  O   UNL     1       2.264   7.128  18.831  0.00  0.00    +0.000 OA
BRANCH  13  17
ATOM     14  C   UNL     1       0.461  10.048  21.190  0.00  0.00    +0.000 A 
ATOM     15  C   UNL     1       0.856   8.852  21.793  0.00  0.00    +0.000 A 
ATOM     16  C   UNL     1       1.467   7.849  21.037  0.00  0.00    +0.000 A 
ATOM     17  C   UNL     1       1.694   8.038  19.674  0.00  0.00    +0.000 A 
ATOM     18  C   UNL     1       1.269   9.235  19.086  0.00  0.00    +0.000 A 
ATOM     19  C   UNL     1       0.655  10.243  19.823  0.00  0.00    +0.000 A 
BRANCH  14  21
ATOM     20  O   UNL     1      -0.399  10.962  23.194  0.00  0.00    +0.000 OA
ATOM     21  C   UNL     1      -0.178  11.106  21.997  0.00  0.00    +0.000 C 
ENDBRANCH  14  21
BRANCH  18  22
ATOM     22  O   UNL     1       1.452   9.454  17.745  0.00  0.00    +0.000 OA
ATOM     23  H   UNL     1       2.419   9.425  17.610  0.00  0.00    +0.000 HD
ENDBRANCH  18  22
ENDBRANCH  13  17
ENDBRANCH   1  13
BRANCH   3  24
ATOM     24  C   UNL     1       6.548   4.919  19.152  0.00  0.00    +0.000 C 
BRANCH  24  25
ATOM     25  O   UNL     1       6.724   4.045  18.027  0.00  0.00    +0.000 OA
BRANCH  25  26
ATOM     26  C   UNL     1       6.195   4.650  16.845  0.00  0.00    +0.000 C 
ATOM     27  O   UNL     1       5.399   3.713  16.092  0.00  0.00    +0.000 OA
ATOM     28  C   UNL     1       5.881   3.674  14.738  0.00  0.00    +0.000 C 
ATOM     29  C   UNL     1       6.663   4.965  14.544  0.00  0.00    +0.000 C 
ATOM     30  C   UNL     1       7.315   5.137  15.908  0.00  0.00    +0.000 C 
BRANCH  29  31
ATOM     31  O   UNL     1       5.750   6.068  14.307  0.00  0.00    +0.000 OA
ATOM     32  H   UNL     1       5.856   6.712  15.033  0.00  0.00    +0.000 HD
ENDBRANCH  29  31
BRANCH  30  33
ATOM     33  O   UNL     1       7.696   6.493  16.141  0.00  0.00    +0.000 OA
ATOM     34  H   UNL     1       6.906   7.041  15.965  0.00  0.00    +0.000 HD
ENDBRANCH  30  33
BRANCH  29  35
ATOM     35  C   UNL     1       7.649   4.916  13.384  0.00  0.00    +0.000 C 
BRANCH  35  36
ATOM     36  O   UNL     1       8.648   5.924  13.556  0.00  0.00    +0.000 OA
ATOM     37  H   UNL     1       8.310   6.720  13.106  0.00  0.00    +0.000 HD
ENDBRANCH  35  36
ENDBRANCH  29  35
ENDBRANCH  25  26
ENDBRANCH  24  25
ENDBRANCH   3  24
TORSDOF 14
ENDMDL
MODEL 5
REMARK VINA RESULT:      -7.3      3.408      6.657
REMARK  Name = 
REMARK  14 active torsions:
REMARK  status: ('A' for Active; 'I' for Inactive)
REMARK    1  A    between atoms: C_2  and  C_3
REMARK    2  A    between atoms: C_6  and  O_7
REMARK    3  A    between atoms: O_7  and  C_8
REMARK    4  A    between atoms: C_10  and  C_11
REMARK    5  A    between atoms: C_11  and  O_12
REMARK    6  A    between atoms: O_12  and  C_13
REMARK    7  A    between atoms: C_16  and  O_17
REMARK    8  A    between atoms: C_16  and  C_18
REMARK    9  A    between atoms: C_18  and  O_19
REMARK   10  A    between atoms: C_20  and  O_21
REMARK   11  A    between atoms: C_22  and  O_23
REMARK   12  A    between atoms: C_24  and  O_25
REMARK   13  A    between atoms: C_26  and  O_27
REMARK   14  A    between atoms: C_28  and  O_29
REMARK                            x       y       z     vdW  Elec       q    Type
REMARK                         _______ _______ _______ _____ _____    ______ ____
ROOT
ATOM      1  C   UNL     1       0.507  10.835  20.430  0.00  0.00    +0.000 C 
ATOM      2  O   UNL     1       1.054   9.701  21.107  0.00  0.00    +0.000 OA
ATOM      3  C   UNL     1       1.090   8.516  20.299  0.00  0.00    +0.000 C 
ATOM      4  C   UNL     1       1.946   8.755  19.040  0.00  0.00    +0.000 C 
ATOM      5  C   UNL     1       1.417   9.965  18.250  0.00  0.00    +0.000 C 
ATOM      6  C   UNL     1       1.307  11.206  19.156  0.00  0.00    +0.000 C 
ENDROOT
BRANCH   4   7
ATOM      7  O   UNL     1       1.970   7.585  18.220  0.00  0.00    +0.000 OA
ATOM      8  H   UNL     1       2.443   6.876  18.689  0.00  0.00    +0.000 HD
ENDBRANCH   4   7
BRANCH   5   9
ATOM      9  O   UNL     1       2.244  10.222  17.115  0.00  0.00    +0.000 OA
ATOM     10  H   UNL     1       2.610  11.122  17.187  0.00  0.00    +0.000 HD
ENDBRANCH   5   9
BRANCH   6  11
ATOM     11  O   UNL     1       0.692  12.292  18.445  0.00  0.00    +0.000 OA
ATOM     12  H   UNL     1       0.194  12.844  19.071  0.00  0.00    +0.000 HD
ENDBRANCH   6  11
BRANCH   1  13
ATOM     13  O   UNL     1       0.296  11.975  21.283  0.00  0.00    +0.000 OA
BRANCH  13  17
ATOM     14  C   UNL     1      -3.501  12.761  22.800  0.00  0.00    +0.000 A 
ATOM     15  C   UNL     1      -3.097  13.422  21.638  0.00  0.00    +0.000 A 
ATOM     16  C   UNL     1      -1.831  13.184  21.096  0.00  0.00    +0.000 A 
ATOM     17  C   UNL     1      -0.965  12.277  21.707  0.00  0.00    +0.000 A 
ATOM     18  C   UNL     1      -1.384  11.644  22.883  0.00  0.00    +0.000 A 
ATOM     19  C   UNL     1      -2.639  11.872  23.439  0.00  0.00    +0.000 A 
BRANCH  14  21
ATOM     20  O   UNL     1      -5.447  12.158  24.000  0.00  0.00    +0.000 OA
ATOM     21  C   UNL     1      -4.843  13.013  23.362  0.00  0.00    +0.000 C 
ENDBRANCH  14  21
BRANCH  18  22
ATOM     22  O   UNL     1      -0.557  10.761  23.530  0.00  0.00    +0.000 OA
ATOM     23  H   UNL     1      -1.136  10.027  23.812  0.00  0.00    +0.000 HD
ENDBRANCH  18  22
ENDBRANCH  13  17
ENDBRANCH   1  13
BRANCH   3  24
ATOM     24  C   UNL     1       1.689   7.352  21.112  0.00  0.00    +0.000 C 
BRANCH  24  25
ATOM     25  O   UNL     1       1.079   6.098  20.769  0.00  0.00    +0.000 OA
BRANCH  25  26
ATOM     26  C   UNL     1       2.057   5.054  20.780  0.00  0.00    +0.000 C 
ATOM     27  O   UNL     1       3.215   5.418  20.003  0.00  0.00    +0.000 OA
ATOM     28  C   UNL     1       3.474   4.381  19.040  0.00  0.00    +0.000 C 
ATOM     29  C   UNL     1       2.759   3.146  19.567  0.00  0.00    +0.000 C 
ATOM     30  C   UNL     1       1.504   3.753  20.175  0.00  0.00    +0.000 C 
BRANCH  29  31
ATOM     31  O   UNL     1       3.547   2.524  20.614  0.00  0.00    +0.000 OA
ATOM     32  H   UNL     1       3.747   3.202  21.288  0.00  0.00    +0.000 HD
ENDBRANCH  29  31
BRANCH  30  33
ATOM     33  O   UNL     1       0.916   2.883  21.143  0.00  0.00    +0.000 OA
ATOM     34  H   UNL     1      -0.052   3.008  21.082  0.00  0.00    +0.000 HD
ENDBRANCH  30  33
BRANCH  29  35
ATOM     35  C   UNL     1       2.489   2.094  18.498  0.00  0.00    +0.000 C 
BRANCH  35  36
ATOM     36  O   UNL     1       1.124   1.674  18.570  0.00  0.00    +0.000 OA
ATOM     37  H   UNL     1       0.879   1.709  19.513  0.00  0.00    +0.000 HD
ENDBRANCH  35  36
ENDBRANCH  29  35
ENDBRANCH  25  26
ENDBRANCH  24  25
ENDBRANCH   3  24
TORSDOF 14
ENDMDL
MODEL 6
REMARK VINA RESULT:      -7.3      1.875      7.387
REMARK  Name = 
REMARK  14 active torsions:
REMARK  status: ('A' for Active; 'I' for Inactive)
REMARK    1  A    between atoms: C_2  and  C_3
REMARK    2  A    between atoms: C_6  and  O_7
REMARK    3  A    between atoms: O_7  and  C_8
REMARK    4  A    between atoms: C_10  and  C_11
REMARK    5  A    between atoms: C_11  and  O_12
REMARK    6  A    between atoms: O_12  and  C_13
REMARK    7  A    between atoms: C_16  and  O_17
REMARK    8  A    between atoms: C_16  and  C_18
REMARK    9  A    between atoms: C_18  and  O_19
REMARK   10  A    between atoms: C_20  and  O_21
REMARK   11  A    between atoms: C_22  and  O_23
REMARK   12  A    between atoms: C_24  and  O_25
REMARK   13  A    between atoms: C_26  and  O_27
REMARK   14  A    between atoms: C_28  and  O_29
REMARK                            x       y       z     vdW  Elec       q    Type
REMARK                         _______ _______ _______ _____ _____    ______ ____
ROOT
ATOM      1  C   UNL     1       4.476   4.890  18.506  0.00  0.00    +0.000 C 
ATOM      2  O   UNL     1       3.926   6.107  19.019  0.00  0.00    +0.000 OA
ATOM      3  C   UNL     1       2.563   5.981  19.449  0.00  0.00    +0.000 C 
ATOM      4  C   UNL     1       2.451   4.920  20.562  0.00  0.00    +0.000 C 
ATOM      5  C   UNL     1       3.022   3.575  20.085  0.00  0.00    +0.000 C 
ATOM      6  C   UNL     1       4.456   3.746  19.550  0.00  0.00    +0.000 C 
ENDROOT
BRANCH   4   7
ATOM      7  O   UNL     1       1.093   4.776  20.981  0.00  0.00    +0.000 OA
ATOM      8  H   UNL     1       0.504   4.986  20.235  0.00  0.00    +0.000 HD
ENDBRANCH   4   7
BRANCH   5   9
ATOM      9  O   UNL     1       2.971   2.608  21.134  0.00  0.00    +0.000 OA
ATOM     10  H   UNL     1       2.586   1.783  20.787  0.00  0.00    +0.000 HD
ENDBRANCH   5   9
BRANCH   6  11
ATOM     11  O   UNL     1       4.932   2.513  18.988  0.00  0.00    +0.000 OA
ATOM     12  H   UNL     1       5.216   1.922  19.706  0.00  0.00    +0.000 HD
ENDBRANCH   6  11
BRANCH   1  13
ATOM     13  O   UNL     1       5.774   5.048  17.905  0.00  0.00    +0.000 OA
BRANCH  13  17
ATOM     14  C   UNL     1       6.510   4.335  13.869  0.00  0.00    +0.000 A 
ATOM     15  C   UNL     1       5.514   3.592  14.507  0.00  0.00    +0.000 A 
ATOM     16  C   UNL     1       5.236   3.803  15.860  0.00  0.00    +0.000 A 
ATOM     17  C   UNL     1       5.944   4.764  16.581  0.00  0.00    +0.000 A 
ATOM     18  C   UNL     1       6.952   5.481  15.926  0.00  0.00    +0.000 A 
ATOM     19  C   UNL     1       7.247   5.281  14.581  0.00  0.00    +0.000 A 
BRANCH  14  21
ATOM     20  O   UNL     1       6.789   2.989  11.945  0.00  0.00    +0.000 OA
ATOM     21  C   UNL     1       6.794   4.112  12.438  0.00  0.00    +0.000 C 
ENDBRANCH  14  21
BRANCH  18  22
ATOM     22  O   UNL     1       7.689   6.420  16.601  0.00  0.00    +0.000 OA
ATOM     23  H   UNL     1       7.550   6.223  17.547  0.00  0.00    +0.000 HD
ENDBRANCH  18  22
ENDBRANCH  13  17
ENDBRANCH   1  13
BRANCH   3  24
ATOM     24  C   UNL     1       2.059   7.337  19.980  0.00  0.00    +0.000 C 
BRANCH  24  25
ATOM     25  O   UNL     1       1.901   8.294  18.923  0.00  0.00    +0.000 OA
BRANCH  25  26
ATOM     26  C   UNL     1       1.410   9.531  19.446  0.00  0.00    +0.000 C 
ATOM     27  O   UNL     1       0.371   9.309  20.420  0.00  0.00    +0.000 OA
ATOM     28  C   UNL     1      -0.787  10.078  20.048  0.00  0.00    +0.000 C 
ATOM     29  C   UNL     1      -0.276  11.159  19.108  0.00  0.00    +0.000 C 
ATOM     30  C   UNL     1       0.805  10.414  18.340  0.00  0.00    +0.000 C 
BRANCH  29  31
ATOM     31  O   UNL     1       0.331  12.234  19.871  0.00  0.00    +0.000 OA
ATOM     32  H   UNL     1       1.292  12.226  19.697  0.00  0.00    +0.000 HD
ENDBRANCH  29  31
BRANCH  30  33
ATOM     33  O   UNL     1       1.748  11.313  17.755  0.00  0.00    +0.000 OA
ATOM     34  H   UNL     1       1.912  12.016  18.414  0.00  0.00    +0.000 HD
ENDBRANCH  30  33
BRANCH  29  35
ATOM     35  C   UNL     1      -1.361  11.766  18.227  0.00  0.00    +0.000 C 
BRANCH  35  36
ATOM     36  O   UNL     1      -0.840  12.902  17.534  0.00  0.00    +0.000 OA
ATOM     37  H   UNL     1      -1.399  13.019  16.744  0.00  0.00    +0.000 HD
ENDBRANCH  35  36
ENDBRANCH  29  35
ENDBRANCH  25  26
ENDBRANCH  24  25
ENDBRANCH   3  24
TORSDOF 14
ENDMDL
MODEL 7
REMARK VINA RESULT:      -7.2      2.004      6.333
REMARK  Name = 
REMARK  14 active torsions:
REMARK  status: ('A' for Active; 'I' for Inactive)
REMARK    1  A    between atoms: C_2  and  C_3
REMARK    2  A    between atoms: C_6  and  O_7
REMARK    3  A    between atoms: O_7  and  C_8
REMARK    4  A    between atoms: C_10  and  C_11
REMARK    5  A    between atoms: C_11  and  O_12
REMARK    6  A    between atoms: O_12  and  C_13
REMARK    7  A    between atoms: C_16  and  O_17
REMARK    8  A    between atoms: C_16  and  C_18
REMARK    9  A    between atoms: C_18  and  O_19
REMARK   10  A    between atoms: C_20  and  O_21
REMARK   11  A    between atoms: C_22  and  O_23
REMARK   12  A    between atoms: C_24  and  O_25
REMARK   13  A    between atoms: C_26  and  O_27
REMARK   14  A    between atoms: C_28  and  O_29
REMARK                            x       y       z     vdW  Elec       q    Type
REMARK                         _______ _______ _______ _____ _____    ______ ____
ROOT
ATOM      1  C   UNL     1       4.350   3.695  18.525  0.00  0.00    +0.000 C 
ATOM      2  O   UNL     1       3.632   4.931  18.575  0.00  0.00    +0.000 OA
ATOM      3  C   UNL     1       2.282   4.788  19.039  0.00  0.00    +0.000 C 
ATOM      4  C   UNL     1       2.267   4.191  20.460  0.00  0.00    +0.000 C 
ATOM      5  C   UNL     1       3.022   2.851  20.490  0.00  0.00    +0.000 C 
ATOM      6  C   UNL     1       4.440   3.008  19.910  0.00  0.00    +0.000 C 
ENDROOT
BRANCH   4   7
ATOM      7  O   UNL     1       0.924   4.028  20.921  0.00  0.00    +0.000 OA
ATOM      8  H   UNL     1       0.832   4.453  21.792  0.00  0.00    +0.000 HD
ENDBRANCH   4   7
BRANCH   5   9
ATOM      9  O   UNL     1       3.058   2.326  21.817  0.00  0.00    +0.000 OA
ATOM     10  H   UNL     1       3.597   1.514  21.822  0.00  0.00    +0.000 HD
ENDBRANCH   5   9
BRANCH   6  11
ATOM     11  O   UNL     1       5.088   1.729  19.822  0.00  0.00    +0.000 OA
ATOM     12  H   UNL     1       4.451   1.068  19.503  0.00  0.00    +0.000 HD
ENDBRANCH   6  11
BRANCH   1  13
ATOM     13  O   UNL     1       5.637   3.797  17.890  0.00  0.00    +0.000 OA
BRANCH  13  17
ATOM     14  C   UNL     1       7.559   7.492  17.862  0.00  0.00    +0.000 A 
ATOM     15  C   UNL     1       7.933   6.551  18.824  0.00  0.00    +0.000 A 
ATOM     16  C   UNL     1       7.314   5.300  18.866  0.00  0.00    +0.000 A 
ATOM     17  C   UNL     1       6.323   4.976  17.940  0.00  0.00    +0.000 A 
ATOM     18  C   UNL     1       5.948   5.942  16.999  0.00  0.00    +0.000 A 
ATOM     19  C   UNL     1       6.550   7.195  16.946  0.00  0.00    +0.000 A 
BRANCH  14  21
ATOM     20  O   UNL     1       8.824   9.262  18.787  0.00  0.00    +0.000 OA
ATOM     21  C   UNL     1       8.222   8.810  17.820  0.00  0.00    +0.000 C 
ENDBRANCH  14  21
BRANCH  18  22
ATOM     22  O   UNL     1       4.963   5.675  16.083  0.00  0.00    +0.000 OA
ATOM     23  H   UNL     1       5.001   6.413  15.444  0.00  0.00    +0.000 HD
ENDBRANCH  18  22
ENDBRANCH  13  17
ENDBRANCH   1  13
BRANCH   3  24
ATOM     24  C   UNL     1       1.591   6.166  19.055  0.00  0.00    +0.000 C 
BRANCH  24  25
ATOM     25  O   UNL     1       2.393   7.168  18.412  0.00  0.00    +0.000 OA
BRANCH  25  26
ATOM     26  C   UNL     1       2.189   8.438  19.035  0.00  0.00    +0.000 C 
ATOM     27  O   UNL     1       1.579   8.290  20.333  0.00  0.00    +0.000 OA
ATOM     28  C   UNL     1       0.402   9.114  20.391  0.00  0.00    +0.000 C 
ATOM     29  C   UNL     1       0.572  10.150  19.291  0.00  0.00    +0.000 C 
ATOM     30  C   UNL     1       1.255   9.334  18.203  0.00  0.00    +0.000 C 
BRANCH  29  31
ATOM     31  O   UNL     1       1.467  11.203  19.733  0.00  0.00    +0.000 OA
ATOM     32  H   UNL     1       2.153  10.801  20.300  0.00  0.00    +0.000 HD
ENDBRANCH  29  31
BRANCH  30  33
ATOM     33  O   UNL     1       1.949  10.170  17.277  0.00  0.00    +0.000 OA
ATOM     34  H   UNL     1       2.798  10.412  17.699  0.00  0.00    +0.000 HD
ENDBRANCH  30  33
BRANCH  29  35
ATOM     35  C   UNL     1      -0.735  10.801  18.855  0.00  0.00    +0.000 C 
BRANCH  35  36
ATOM     36  O   UNL     1      -1.404  11.347  19.994  0.00  0.00    +0.000 OA
ATOM     37  H   UNL     1      -0.724  11.821  20.507  0.00  0.00    +0.000 HD
ENDBRANCH  35  36
ENDBRANCH  29  35
ENDBRANCH  25  26
ENDBRANCH  24  25
ENDBRANCH   3  24
TORSDOF 14
ENDMDL
MODEL 8
REMARK VINA RESULT:      -7.2      1.566      2.543
REMARK  Name = 
REMARK  14 active torsions:
REMARK  status: ('A' for Active; 'I' for Inactive)
REMARK    1  A    between atoms: C_2  and  C_3
REMARK    2  A    between atoms: C_6  and  O_7
REMARK    3  A    between atoms: O_7  and  C_8
REMARK    4  A    between atoms: C_10  and  C_11
REMARK    5  A    between atoms: C_11  and  O_12
REMARK    6  A    between atoms: O_12  and  C_13
REMARK    7  A    between atoms: C_16  and  O_17
REMARK    8  A    between atoms: C_16  and  C_18
REMARK    9  A    between atoms: C_18  and  O_19
REMARK   10  A    between atoms: C_20  and  O_21
REMARK   11  A    between atoms: C_22  and  O_23
REMARK   12  A    between atoms: C_24  and  O_25
REMARK   13  A    between atoms: C_26  and  O_27
REMARK   14  A    between atoms: C_28  and  O_29
REMARK                            x       y       z     vdW  Elec       q    Type
REMARK                         _______ _______ _______ _____ _____    ______ ____
ROOT
ATOM      1  C   UNL     1       3.046   5.225  19.703  0.00  0.00    +0.000 C 
ATOM      2  O   UNL     1       3.586   4.791  18.452  0.00  0.00    +0.000 OA
ATOM      3  C   UNL     1       3.534   3.368  18.271  0.00  0.00    +0.000 C 
ATOM      4  C   UNL     1       2.076   2.875  18.337  0.00  0.00    +0.000 C 
ATOM      5  C   UNL     1       1.421   3.302  19.662  0.00  0.00    +0.000 C 
ATOM      6  C   UNL     1       1.561   4.821  19.878  0.00  0.00    +0.000 C 
ENDROOT
BRANCH   4   7
ATOM      7  O   UNL     1       2.019   1.457  18.176  0.00  0.00    +0.000 OA
ATOM      8  H   UNL     1       2.098   1.033  19.049  0.00  0.00    +0.000 HD
ENDBRANCH   4   7
BRANCH   5   9
ATOM      9  O   UNL     1       0.054   2.895  19.699  0.00  0.00    +0.000 OA
ATOM     10  H   UNL     1      -0.402   3.379  20.412  0.00  0.00    +0.000 HD
ENDBRANCH   5   9
BRANCH   6  11
ATOM     11  O   UNL     1       1.064   5.189  21.174  0.00  0.00    +0.000 OA
ATOM     12  H   UNL     1       1.668   5.836  21.577  0.00  0.00    +0.000 HD
ENDBRANCH   6  11
BRANCH   1  13
ATOM     13  O   UNL     1       3.259   6.622  19.974  0.00  0.00    +0.000 OA
BRANCH  13  17
ATOM     14  C   UNL     1       0.603   9.532  18.625  0.00  0.00    +0.000 A 
ATOM     15  C   UNL     1       1.372   8.844  17.685  0.00  0.00    +0.000 A 
ATOM     16  C   UNL     1       2.274   7.859  18.097  0.00  0.00    +0.000 A 
ATOM     17  C   UNL     1       2.404   7.549  19.451  0.00  0.00    +0.000 A 
ATOM     18  C   UNL     1       1.639   8.267  20.377  0.00  0.00    +0.000 A 
ATOM     19  C   UNL     1       0.740   9.254  19.985  0.00  0.00    +0.000 A 
BRANCH  14  21
ATOM     20  O   UNL     1      -1.324  10.294  17.487  0.00  0.00    +0.000 OA
ATOM     21  C   UNL     1      -0.352  10.567  18.183  0.00  0.00    +0.000 C 
ENDBRANCH  14  21
BRANCH  18  22
ATOM     22  O   UNL     1       1.751   8.011  21.720  0.00  0.00    +0.000 OA
ATOM     23  H   UNL     1       0.899   7.609  21.975  0.00  0.00    +0.000 HD
ENDBRANCH  18  22
ENDBRANCH  13  17
ENDBRANCH   1  13
BRANCH   3  24
ATOM     24  C   UNL     1       4.139   2.998  16.902  0.00  0.00    +0.000 C 
BRANCH  24  25
ATOM     25  O   UNL     1       4.080   4.099  15.982  0.00  0.00    +0.000 OA
BRANCH  25  26
ATOM     26  C   UNL     1       5.393   4.608  15.736  0.00  0.00    +0.000 C 
ATOM     27  O   UNL     1       6.400   3.747  16.304  0.00  0.00    +0.000 OA
ATOM     28  C   UNL     1       7.262   4.531  17.146  0.00  0.00    +0.000 C 
ATOM     29  C   UNL     1       7.073   5.972  16.697  0.00  0.00    +0.000 C 
ATOM     30  C   UNL     1       5.589   5.998  16.364  0.00  0.00    +0.000 C 
BRANCH  29  31
ATOM     31  O   UNL     1       7.840   6.221  15.490  0.00  0.00    +0.000 OA
ATOM     32  H   UNL     1       7.540   5.594  14.804  0.00  0.00    +0.000 HD
ENDBRANCH  29  31
BRANCH  30  33
ATOM     33  O   UNL     1       5.269   7.070  15.476  0.00  0.00    +0.000 OA
ATOM     34  H   UNL     1       4.350   7.336  15.677  0.00  0.00    +0.000 HD
ENDBRANCH  30  33
BRANCH  29  35
ATOM     35  C   UNL     1       7.497   6.999  17.740  0.00  0.00    +0.000 C 
BRANCH  35  36
ATOM     36  O   UNL     1       7.566   8.294  17.140  0.00  0.00    +0.000 OA
ATOM     37  H   UNL     1       6.955   8.275  16.381  0.00  0.00    +0.000 HD
ENDBRANCH  35  36
ENDBRANCH  29  35
ENDBRANCH  25  26
ENDBRANCH  24  25
ENDBRANCH   3  24
TORSDOF 14
ENDMDL
MODEL 9
REMARK VINA RESULT:      -7.2      1.640      6.932
REMARK  Name = 
REMARK  14 active torsions:
REMARK  status: ('A' for Active; 'I' for Inactive)
REMARK    1  A    between atoms: C_2  and  C_3
REMARK    2  A    between atoms: C_6  and  O_7
REMARK    3  A    between atoms: O_7  and  C_8
REMARK    4  A    between atoms: C_10  and  C_11
REMARK    5  A    between atoms: C_11  and  O_12
REMARK    6  A    between atoms: O_12  and  C_13
REMARK    7  A    between atoms: C_16  and  O_17
REMARK    8  A    between atoms: C_16  and  C_18
REMARK    9  A    between atoms: C_18  and  O_19
REMARK   10  A    between atoms: C_20  and  O_21
REMARK   11  A    between atoms: C_22  and  O_23
REMARK   12  A    between atoms: C_24  and  O_25
REMARK   13  A    between atoms: C_26  and  O_27
REMARK   14  A    between atoms: C_28  and  O_29
REMARK                            x       y       z     vdW  Elec       q    Type
REMARK                         _______ _______ _______ _____ _____    ______ ____
ROOT
ATOM      1  C   UNL     1       4.264   5.098  19.058  0.00  0.00    +0.000 C 
ATOM      2  O   UNL     1       3.435   6.062  19.714  0.00  0.00    +0.000 OA
ATOM      3  C   UNL     1       2.115   5.577  20.003  0.00  0.00    +0.000 C 
ATOM      4  C   UNL     1       2.191   4.338  20.916  0.00  0.00    +0.000 C 
ATOM      5  C   UNL     1       3.068   3.248  20.276  0.00  0.00    +0.000 C 
ATOM      6  C   UNL     1       4.451   3.810  19.898  0.00  0.00    +0.000 C 
ENDROOT
BRANCH   4   7
ATOM      7  O   UNL     1       0.881   3.838  21.192  0.00  0.00    +0.000 OA
ATOM      8  H   UNL     1       0.682   3.966  22.136  0.00  0.00    +0.000 HD
ENDBRANCH   4   7
BRANCH   5   9
ATOM      9  O   UNL     1       3.185   2.124  21.147  0.00  0.00    +0.000 OA
ATOM     10  H   UNL     1       4.108   2.051  21.450  0.00  0.00    +0.000 HD
ENDBRANCH   5   9
BRANCH   6  11
ATOM     11  O   UNL     1       5.214   2.823  19.185  0.00  0.00    +0.000 OA
ATOM     12  H   UNL     1       5.178   1.980  19.668  0.00  0.00    +0.000 HD
ENDBRANCH   6  11
BRANCH   1  13
ATOM     13  O   UNL     1       5.521   5.630  18.601  0.00  0.00    +0.000 OA
BRANCH  13  17
ATOM     14  C   UNL     1       6.787   5.039  14.678  0.00  0.00    +0.000 A 
ATOM     15  C   UNL     1       5.622   5.776  14.899  0.00  0.00    +0.000 A 
ATOM     16  C   UNL     1       5.165   5.998  16.200  0.00  0.00    +0.000 A 
ATOM     17  C   UNL     1       5.875   5.493  17.289  0.00  0.00    +0.000 A 
ATOM     18  C   UNL     1       7.028   4.739  17.043  0.00  0.00    +0.000 A 
ATOM     19  C   UNL     1       7.495   4.503  15.753  0.00  0.00    +0.000 A 
BRANCH  14  21
ATOM     20  O   UNL     1       7.970   5.633  12.719  0.00  0.00    +0.000 OA
ATOM     21  C   UNL     1       7.268   4.814  13.300  0.00  0.00    +0.000 C 
ENDBRANCH  14  21
BRANCH  18  22
ATOM     22  O   UNL     1       7.745   4.205  18.082  0.00  0.00    +0.000 OA
ATOM     23  H   UNL     1       8.561   3.852  17.676  0.00  0.00    +0.000 HD
ENDBRANCH  18  22
ENDBRANCH  13  17
ENDBRANCH   1  13
BRANCH   3  24
ATOM     24  C   UNL     1       1.299   6.681  20.703  0.00  0.00    +0.000 C 
BRANCH  24  25
ATOM     25  O   UNL     1       1.892   7.975  20.518  0.00  0.00    +0.000 OA
BRANCH  25  26
ATOM     26  C   UNL     1       1.204   8.691  19.488  0.00  0.00    +0.000 C 
ATOM     27  O   UNL     1       2.050   8.888  18.337  0.00  0.00    +0.000 OA
ATOM     28  C   UNL     1       2.072  10.288  18.010  0.00  0.00    +0.000 C 
ATOM     29  C   UNL     1       0.836  10.882  18.669  0.00  0.00    +0.000 C 
ATOM     30  C   UNL     1       0.766  10.087  19.964  0.00  0.00    +0.000 C 
BRANCH  29  31
ATOM     31  O   UNL     1      -0.340  10.598  17.867  0.00  0.00    +0.000 OA
ATOM     32  H   UNL     1      -0.600   9.670  18.026  0.00  0.00    +0.000 HD
ENDBRANCH  29  31
BRANCH  30  33
ATOM     33  O   UNL     1      -0.549  10.107  20.522  0.00  0.00    +0.000 OA
ATOM     34  H   UNL     1      -0.731   9.202  20.843  0.00  0.00    +0.000 HD
ENDBRANCH  30  33
BRANCH  29  35
ATOM     35  C   UNL     1       0.914  12.391  18.867  0.00  0.00    +0.000 C 
BRANCH  35  36
ATOM     36  O   UNL     1      -0.364  12.891  19.267  0.00  0.00    +0.000 OA
ATOM     37  H   UNL     1      -0.932  12.109  19.401  0.00  0.00    +0.000 HD
ENDBRANCH  35  36
ENDBRANCH  29  35
ENDBRANCH  25  26
ENDBRANCH  24  25
ENDBRANCH   3  24
TORSDOF 14
ENDMDL
