MODEL 1
REMARK VINA RESULT:      -9.0      0.000      0.000
REMARK  Name = 
REMARK  5 active torsions:
REMARK  status: ('A' for Active; 'I' for Inactive)
REMARK    1  A    between atoms: C_2  and  C_5
REMARK    2  A    between atoms: C_8  and  N_9
REMARK    3  A    between atoms: N_9  and  C_10
REMARK    4  A    between atoms: C_16  and  C_17
REMARK    5  A    between atoms: C_22  and  C_23
REMARK                            x       y       z     vdW  Elec       q    Type
REMARK                         _______ _______ _______ _____ _____    ______ ____
ROOT
ATOM      1  C   UNL     1       0.171  10.198  20.110  0.00  0.00    +0.000 A 
ATOM      2  C   UNL     1      -0.077   9.992  21.470  0.00  0.00    +0.000 A 
ATOM      3  C   UNL     1       0.568   8.962  22.113  0.00  0.00    +0.000 A 
ATOM      4  N   UNL     1       1.430   8.135  21.498  0.00  0.00    +0.000 NA
ATOM      5  C   UNL     1       1.638   8.274  20.189  0.00  0.00    +0.000 A 
ATOM      6  N   UNL     1       2.477   7.393  19.648  0.00  0.00    +0.000 NA
ATOM      7  C   UNL     1       2.667   7.366  18.314  0.00  0.00    +0.000 A 
ATOM      8  C   UNL     1       2.067   8.301  17.478  0.00  0.00    +0.000 A 
ATOM      9  C   UNL     1       1.242   9.270  18.037  0.00  0.00    +0.000 A 
ATOM     10  C   UNL     1       1.002   9.271  19.428  0.00  0.00    +0.000 A 
ENDROOT
BRANCH   7  11
ATOM     11  C   UNL     1       3.580   6.321  17.802  0.00  0.00    +0.000 A 
ATOM     12  N   UNL     1       4.826   6.803  17.483  0.00  0.00    +0.000 NA
ATOM     13  C   UNL     1       5.776   5.936  17.078  0.00  0.00    +0.000 A 
ATOM     14  C   UNL     1       5.566   4.582  16.960  0.00  0.00    +0.000 A 
ATOM     15  C   UNL     1       4.300   4.098  17.253  0.00  0.00    +0.000 A 
ATOM     16  C   UNL     1       3.267   4.966  17.664  0.00  0.00    +0.000 A 
BRANCH  16  17
ATOM     17  C   UNL     1       1.916   4.346  17.907  0.00  0.00    +0.000 C 
ATOM     18  F   UNL     1       0.861   4.837  17.215  0.00  0.00    +0.000 F 
ATOM     19  F   UNL     1       1.938   3.018  17.554  0.00  0.00    +0.000 F 
ATOM     20  F   UNL     1       1.575   4.341  19.226  0.00  0.00    +0.000 F 
ENDBRANCH  16  17
ENDBRANCH   7  11
BRANCH   1  21
ATOM     21  N   UNL     1      -0.385  11.345  19.484  0.00  0.00    +0.000 N 
ATOM     22  H   UNL     1       0.025  12.225  19.776  0.00  0.00    +0.000 HD
BRANCH  21  26
ATOM     23  C   UNL     1      -4.454  11.832  18.376  0.00  0.00    +0.000 A 
ATOM     24  C   UNL     1      -3.971  12.419  19.550  0.00  0.00    +0.000 A 
ATOM     25  C   UNL     1      -2.630  12.274  19.913  0.00  0.00    +0.000 A 
ATOM     26  C   UNL     1      -1.741  11.532  19.124  0.00  0.00    +0.000 A 
ATOM     27  C   UNL     1      -2.223  10.955  17.944  0.00  0.00    +0.000 A 
ATOM     28  C   UNL     1      -3.565  11.099  17.574  0.00  0.00    +0.000 A 
BRANCH  23  30
ATOM     29  F   UNL     1      -6.555  10.794  17.842  0.00  0.00    +0.000 F 
ATOM     30  C   UNL     1      -5.900  11.983  17.973  0.00  0.00    +0.000 C 
ATOM     31  F   UNL     1      -6.046  12.621  16.781  0.00  0.00    +0.000 F 
ATOM     32  F   UNL     1      -6.617  12.705  18.877  0.00  0.00    +0.000 F 
ENDBRANCH  23  30
ENDBRANCH  21  26
ENDBRANCH   1  21
TORSDOF 5
ENDMDL
MODEL 2
REMARK VINA RESULT:      -8.7      4.117      4.747
REMARK  Name = 
REMARK  5 active torsions:
REMARK  status: ('A' for Active; 'I' for Inactive)
REMARK    1  A    between atoms: C_2  and  C_5
REMARK    2  A    between atoms: C_8  and  N_9
REMARK    3  A    between atoms: N_9  and  C_10
REMARK    4  A    between atoms: C_16  and  C_17
REMARK    5  A    between atoms: C_22  and  C_23
REMARK                            x       y       z     vdW  Elec       q    Type
REMARK                         _______ _______ _______ _____ _____    ______ ____
ROOT
ATOM      1  C   UNL     1       0.416  10.398  19.532  0.00  0.00    +0.000 A 
ATOM      2  C   UNL     1      -0.182  10.509  20.790  0.00  0.00    +0.000 A 
ATOM      3  C   UNL     1       0.084   9.549  21.738  0.00  0.00    +0.000 A 
ATOM      4  N   UNL     1       0.894   8.499  21.517  0.00  0.00    +0.000 NA
ATOM      5  C   UNL     1       1.429   8.340  20.307  0.00  0.00    +0.000 A 
ATOM      6  N   UNL     1       2.189   7.256  20.158  0.00  0.00    +0.000 NA
ATOM      7  C   UNL     1       2.681   6.933  18.945  0.00  0.00    +0.000 A 
ATOM      8  C   UNL     1       2.485   7.756  17.841  0.00  0.00    +0.000 A 
ATOM      9  C   UNL     1       1.752   8.926  17.997  0.00  0.00    +0.000 A 
ATOM     10  C   UNL     1       1.193   9.243  19.254  0.00  0.00    +0.000 A 
ENDROOT
BRANCH   7  11
ATOM     11  C   UNL     1       3.473   5.687  18.869  0.00  0.00    +0.000 A 
ATOM     12  N   UNL     1       4.817   5.889  19.070  0.00  0.00    +0.000 NA
ATOM     13  C   UNL     1       5.639   4.820  19.104  0.00  0.00    +0.000 A 
ATOM     14  C   UNL     1       5.206   3.524  18.942  0.00  0.00    +0.000 A 
ATOM     15  C   UNL     1       3.853   3.321  18.708  0.00  0.00    +0.000 A 
ATOM     16  C   UNL     1       2.955   4.408  18.647  0.00  0.00    +0.000 A 
BRANCH  16  17
ATOM     17  C   UNL     1       1.518   4.082  18.338  0.00  0.00    +0.000 C 
ATOM     18  F   UNL     1       0.938   4.711  17.287  0.00  0.00    +0.000 F 
ATOM     19  F   UNL     1       1.395   2.752  18.017  0.00  0.00    +0.000 F 
ATOM     20  F   UNL     1       0.702   4.249  19.415  0.00  0.00    +0.000 F 
ENDBRANCH  16  17
ENDBRANCH   7  11
BRANCH   1  21
ATOM     21  N   UNL     1       0.254  11.462  18.606  0.00  0.00    +0.000 N 
ATOM     22  H   UNL     1       0.026  11.169  17.662  0.00  0.00    +0.000 HD
BRANCH  21  26
ATOM     23  C   UNL     1       2.507  15.058  18.464  0.00  0.00    +0.000 A 
ATOM     24  C   UNL     1       1.139  15.097  18.754  0.00  0.00    +0.000 A 
ATOM     25  C   UNL     1       0.395  13.917  18.816  0.00  0.00    +0.000 A 
ATOM     26  C   UNL     1       0.991  12.671  18.578  0.00  0.00    +0.000 A 
ATOM     27  C   UNL     1       2.361  12.632  18.299  0.00  0.00    +0.000 A 
ATOM     28  C   UNL     1       3.112  13.812  18.239  0.00  0.00    +0.000 A 
BRANCH  23  30
ATOM     29  F   UNL     1       3.153  17.019  17.234  0.00  0.00    +0.000 F 
ATOM     30  C   UNL     1       3.320  16.326  18.396  0.00  0.00    +0.000 C 
ATOM     31  F   UNL     1       4.657  16.096  18.502  0.00  0.00    +0.000 F 
ATOM     32  F   UNL     1       3.009  17.197  19.396  0.00  0.00    +0.000 F 
ENDBRANCH  23  30
ENDBRANCH  21  26
ENDBRANCH   1  21
TORSDOF 5
ENDMDL
MODEL 3
REMARK VINA RESULT:      -8.7      0.218      1.302
REMARK  Name = 
REMARK  5 active torsions:
REMARK  status: ('A' for Active; 'I' for Inactive)
REMARK    1  A    between atoms: C_2  and  C_5
REMARK    2  A    between atoms: C_8  and  N_9
REMARK    3  A    between atoms: N_9  and  C_10
REMARK    4  A    between atoms: C_16  and  C_17
REMARK    5  A    between atoms: C_22  and  C_23
REMARK                            x       y       z     vdW  Elec       q    Type
REMARK                         _______ _______ _______ _____ _____    ______ ____
ROOT
ATOM      1  C   UNL     1       0.149  10.013  19.929  0.00  0.00    +0.000 A 
ATOM      2  C   UNL     1      -0.160   9.796  21.274  0.00  0.00    +0.000 A 
ATOM      3  C   UNL     1       0.474   8.776  21.944  0.00  0.00    +0.000 A 
ATOM      4  N   UNL     1       1.382   7.970  21.369  0.00  0.00    +0.000 NA
ATOM      5  C   UNL     1       1.650   8.120  20.072  0.00  0.00    +0.000 A 
ATOM      6  N   UNL     1       2.532   7.258  19.569  0.00  0.00    +0.000 NA
ATOM      7  C   UNL     1       2.786   7.241  18.245  0.00  0.00    +0.000 A 
ATOM      8  C   UNL     1       2.208   8.168  17.385  0.00  0.00    +0.000 A 
ATOM      9  C   UNL     1       1.337   9.117  17.906  0.00  0.00    +0.000 A 
ATOM     10  C   UNL     1       1.031   9.107  19.284  0.00  0.00    +0.000 A 
ENDROOT
BRANCH   7  11
ATOM     11  C   UNL     1       3.744   6.218  17.773  0.00  0.00    +0.000 A 
ATOM     12  N   UNL     1       4.979   6.735  17.468  0.00  0.00    +0.000 NA
ATOM     13  C   UNL     1       5.966   5.893  17.101  0.00  0.00    +0.000 A 
ATOM     14  C   UNL     1       5.805   4.530  17.009  0.00  0.00    +0.000 A 
ATOM     15  C   UNL     1       4.550   4.009  17.288  0.00  0.00    +0.000 A 
ATOM     16  C   UNL     1       3.480   4.850  17.660  0.00  0.00    +0.000 A 
BRANCH  16  17
ATOM     17  C   UNL     1       2.147   4.189  17.890  0.00  0.00    +0.000 C 
ATOM     18  F   UNL     1       2.037   2.869  17.605  0.00  0.00    +0.000 F 
ATOM     19  F   UNL     1       1.813   4.255  19.222  0.00  0.00    +0.000 F 
ATOM     20  F   UNL     1       1.129   4.832  17.252  0.00  0.00    +0.000 F 
ENDBRANCH  16  17
ENDBRANCH   7  11
BRANCH   1  21
ATOM     21  N   UNL     1      -0.399  11.152  19.281  0.00  0.00    +0.000 N 
ATOM     22  H   UNL     1       0.034  12.032  19.536  0.00  0.00    +0.000 HD
BRANCH  21  26
ATOM     23  C   UNL     1      -4.476  11.835  18.309  0.00  0.00    +0.000 A 
ATOM     24  C   UNL     1      -3.698  10.984  17.517  0.00  0.00    +0.000 A 
ATOM     25  C   UNL     1      -2.361  10.744  17.839  0.00  0.00    +0.000 A 
ATOM     26  C   UNL     1      -1.761  11.355  18.948  0.00  0.00    +0.000 A 
ATOM     27  C   UNL     1      -2.542  12.197  19.747  0.00  0.00    +0.000 A 
ATOM     28  C   UNL     1      -3.884  12.439  19.430  0.00  0.00    +0.000 A 
BRANCH  23  30
ATOM     29  F   UNL     1      -6.571  12.848  18.910  0.00  0.00    +0.000 F 
ATOM     30  C   UNL     1      -5.921  12.101  17.972  0.00  0.00    +0.000 C 
ATOM     31  F   UNL     1      -6.646  10.957  17.841  0.00  0.00    +0.000 F 
ATOM     32  F   UNL     1      -6.065  12.774  16.796  0.00  0.00    +0.000 F 
ENDBRANCH  23  30
ENDBRANCH  21  26
ENDBRANCH   1  21
TORSDOF 5
ENDMDL
MODEL 4
REMARK VINA RESULT:      -8.6      4.070      4.796
REMARK  Name = 
REMARK  5 active torsions:
REMARK  status: ('A' for Active; 'I' for Inactive)
REMARK    1  A    between atoms: C_2  and  C_5
REMARK    2  A    between atoms: C_8  and  N_9
REMARK    3  A    between atoms: N_9  and  C_10
REMARK    4  A    between atoms: C_16  and  C_17
REMARK    5  A    between atoms: C_22  and  C_23
REMARK                            x       y       z     vdW  Elec       q    Type
REMARK                         _______ _______ _______ _____ _____    ______ ____
ROOT
ATOM      1  C   UNL     1       0.426  10.399  19.434  0.00  0.00    +0.000 A 
ATOM      2  C   UNL     1      -0.182  10.518  20.687  0.00  0.00    +0.000 A 
ATOM      3  C   UNL     1       0.077   9.564  21.642  0.00  0.00    +0.000 A 
ATOM      4  N   UNL     1       0.889   8.513  21.434  0.00  0.00    +0.000 NA
ATOM      5  C   UNL     1       1.433   8.346  20.229  0.00  0.00    +0.000 A 
ATOM      6  N   UNL     1       2.194   7.262  20.092  0.00  0.00    +0.000 NA
ATOM      7  C   UNL     1       2.695   6.931  18.885  0.00  0.00    +0.000 A 
ATOM      8  C   UNL     1       2.507   7.747  17.775  0.00  0.00    +0.000 A 
ATOM      9  C   UNL     1       1.773   8.917  17.918  0.00  0.00    +0.000 A 
ATOM     10  C   UNL     1       1.205   9.243  19.169  0.00  0.00    +0.000 A 
ENDROOT
BRANCH   7  11
ATOM     11  C   UNL     1       3.488   5.684  18.823  0.00  0.00    +0.000 A 
ATOM     12  N   UNL     1       4.835   5.893  18.992  0.00  0.00    +0.000 NA
ATOM     13  C   UNL     1       5.660   4.827  19.035  0.00  0.00    +0.000 A 
ATOM     14  C   UNL     1       5.225   3.527  18.912  0.00  0.00    +0.000 A 
ATOM     15  C   UNL     1       3.869   3.316  18.712  0.00  0.00    +0.000 A 
ATOM     16  C   UNL     1       2.968   4.400  18.643  0.00  0.00    +0.000 A 
BRANCH  16  17
ATOM     17  C   UNL     1       1.525   4.065  18.371  0.00  0.00    +0.000 C 
ATOM     18  F   UNL     1       1.207   2.766  18.151  0.00  0.00    +0.000 F 
ATOM     19  F   UNL     1       0.751   4.402  19.455  0.00  0.00    +0.000 F 
ATOM     20  F   UNL     1       1.006   4.792  17.343  0.00  0.00    +0.000 F 
ENDBRANCH  16  17
ENDBRANCH   7  11
BRANCH   1  21
ATOM     21  N   UNL     1       0.270  11.457  18.500  0.00  0.00    +0.000 N 
ATOM     22  H   UNL     1       0.086  11.157  17.549  0.00  0.00    +0.000 HD
BRANCH  21  26
ATOM     23  C   UNL     1       2.336  15.166  18.551  0.00  0.00    +0.000 A 
ATOM     24  C   UNL     1       3.024  13.983  18.260  0.00  0.00    +0.000 A 
ATOM     25  C   UNL     1       2.348  12.762  18.228  0.00  0.00    +0.000 A 
ATOM     26  C   UNL     1       0.975  12.686  18.497  0.00  0.00    +0.000 A 
ATOM     27  C   UNL     1       0.285  13.871  18.777  0.00  0.00    +0.000 A 
ATOM     28  C   UNL     1       0.958  15.098  18.807  0.00  0.00    +0.000 A 
BRANCH  23  30
ATOM     29  F   UNL     1       4.241  16.449  19.260  0.00  0.00    +0.000 F 
ATOM     30  C   UNL     1       3.056  16.491  18.587  0.00  0.00    +0.000 C 
ATOM     31  F   UNL     1       2.323  17.468  19.187  0.00  0.00    +0.000 F 
ATOM     32  F   UNL     1       3.352  16.955  17.341  0.00  0.00    +0.000 F 
ENDBRANCH  23  30
ENDBRANCH  21  26
ENDBRANCH   1  21
TORSDOF 5
ENDMDL
MODEL 5
REMARK VINA RESULT:      -8.6      3.824      4.434
REMARK  Name = 
REMARK  5 active torsions:
REMARK  status: ('A' for Active; 'I' for Inactive)
REMARK    1  A    between atoms: C_2  and  C_5
REMARK    2  A    between atoms: C_8  and  N_9
REMARK    3  A    between atoms: N_9  and  C_10
REMARK    4  A    between atoms: C_16  and  C_17
REMARK    5  A    between atoms: C_22  and  C_23
REMARK                            x       y       z     vdW  Elec       q    Type
REMARK                         _______ _______ _______ _____ _____    ______ ____
ROOT
ATOM      1  C   UNL     1       0.265  10.341  19.832  0.00  0.00    +0.000 A 
ATOM      2  C   UNL     1      -0.091  10.247  21.179  0.00  0.00    +0.000 A 
ATOM      3  C   UNL     1       0.437   9.225  21.934  0.00  0.00    +0.000 A 
ATOM      4  N   UNL     1       1.283   8.305  21.440  0.00  0.00    +0.000 NA
ATOM      5  C   UNL     1       1.591   8.340  20.144  0.00  0.00    +0.000 A 
ATOM      6  N   UNL     1       2.405   7.373  19.726  0.00  0.00    +0.000 NA
ATOM      7  C   UNL     1       2.686   7.242  18.413  0.00  0.00    +0.000 A 
ATOM      8  C   UNL     1       2.209   8.152  17.477  0.00  0.00    +0.000 A 
ATOM      9  C   UNL     1       1.414   9.207  17.908  0.00  0.00    +0.000 A 
ATOM     10  C   UNL     1       1.078   9.320  19.274  0.00  0.00    +0.000 A 
ENDROOT
BRANCH   7  11
ATOM     11  C   UNL     1       3.560   6.109  18.039  0.00  0.00    +0.000 A 
ATOM     12  N   UNL     1       4.870   6.478  17.854  0.00  0.00    +0.000 NA
ATOM     13  C   UNL     1       5.785   5.524  17.587  0.00  0.00    +0.000 A 
ATOM     14  C   UNL     1       5.477   4.187  17.482  0.00  0.00    +0.000 A 
ATOM     15  C   UNL     1       4.149   3.817  17.639  0.00  0.00    +0.000 A 
ATOM     16  C   UNL     1       3.153   4.780  17.904  0.00  0.00    +0.000 A 
BRANCH  16  17
ATOM     17  C   UNL     1       1.736   4.279  18.006  0.00  0.00    +0.000 C 
ATOM     18  F   UNL     1       0.817   4.802  17.158  0.00  0.00    +0.000 F 
ATOM     19  F   UNL     1       1.692   2.933  17.730  0.00  0.00    +0.000 F 
ATOM     20  F   UNL     1       1.235   4.384  19.268  0.00  0.00    +0.000 F 
ENDBRANCH  16  17
ENDBRANCH   7  11
BRANCH   1  21
ATOM     21  N   UNL     1      -0.167  11.475  19.092  0.00  0.00    +0.000 N 
ATOM     22  H   UNL     1      -0.685  11.256  18.249  0.00  0.00    +0.000 HD
BRANCH  21  26
ATOM     23  C   UNL     1       1.991  15.091  18.549  0.00  0.00    +0.000 A 
ATOM     24  C   UNL     1       0.652  15.126  18.953  0.00  0.00    +0.000 A 
ATOM     25  C   UNL     1      -0.059  13.940  19.147  0.00  0.00    +0.000 A 
ATOM     26  C   UNL     1       0.539  12.692  18.931  0.00  0.00    +0.000 A 
ATOM     27  C   UNL     1       1.882  12.657  18.537  0.00  0.00    +0.000 A 
ATOM     28  C   UNL     1       2.600  13.843  18.345  0.00  0.00    +0.000 A 
BRANCH  23  30
ATOM     29  F   UNL     1       3.379  16.825  19.467  0.00  0.00    +0.000 F 
ATOM     30  C   UNL     1       2.769  16.365  18.337  0.00  0.00    +0.000 C 
ATOM     31  F   UNL     1       1.987  17.388  17.896  0.00  0.00    +0.000 F 
ATOM     32  F   UNL     1       3.758  16.222  17.412  0.00  0.00    +0.000 F 
ENDBRANCH  23  30
ENDBRANCH  21  26
ENDBRANCH   1  21
TORSDOF 5
ENDMDL
MODEL 6
REMARK VINA RESULT:      -8.3      3.421      9.598
REMARK  Name = 
REMARK  5 active torsions:
REMARK  status: ('A' for Active; 'I' for Inactive)
REMARK    1  A    between atoms: C_2  and  C_5
REMARK    2  A    between atoms: C_8  and  N_9
REMARK    3  A    between atoms: N_9  and  C_10
REMARK    4  A    between atoms: C_16  and  C_17
REMARK    5  A    between atoms: C_22  and  C_23
REMARK                            x       y       z     vdW  Elec       q    Type
REMARK                         _______ _______ _______ _____ _____    ______ ____
ROOT
ATOM      1  C   UNL     1       1.272   8.834  20.025  0.00  0.00    +0.000 A 
ATOM      2  C   UNL     1       1.334   9.155  18.667  0.00  0.00    +0.000 A 
ATOM      3  C   UNL     1       0.696  10.291  18.225  0.00  0.00    +0.000 A 
ATOM      4  N   UNL     1       0.008  11.113  19.036  0.00  0.00    +0.000 NA
ATOM      5  C   UNL     1      -0.114  10.796  20.324  0.00  0.00    +0.000 A 
ATOM      6  N   UNL     1      -0.841  11.641  21.052  0.00  0.00    +0.000 NA
ATOM      7  C   UNL     1      -1.130  11.356  22.338  0.00  0.00    +0.000 A 
ATOM      8  C   UNL     1      -0.614  10.225  22.962  0.00  0.00    +0.000 A 
ATOM      9  C   UNL     1       0.202   9.369  22.234  0.00  0.00    +0.000 A 
ATOM     10  C   UNL     1       0.467   9.638  20.874  0.00  0.00    +0.000 A 
ENDROOT
BRANCH   7  11
ATOM     11  C   UNL     1      -1.983  12.331  23.051  0.00  0.00    +0.000 A 
ATOM     12  N   UNL     1      -3.112  11.765  23.591  0.00  0.00    +0.000 NA
ATOM     13  C   UNL     1      -3.934  12.533  24.335  0.00  0.00    +0.000 A 
ATOM     14  C   UNL     1      -3.708  13.868  24.583  0.00  0.00    +0.000 A 
ATOM     15  C   UNL     1      -2.583  14.447  24.013  0.00  0.00    +0.000 A 
ATOM     16  C   UNL     1      -1.701  13.690  23.213  0.00  0.00    +0.000 A 
BRANCH  16  17
ATOM     17  C   UNL     1      -0.540  14.427  22.600  0.00  0.00    +0.000 C 
ATOM     18  F   UNL     1       0.600  13.732  22.369  0.00  0.00    +0.000 F 
ATOM     19  F   UNL     1      -0.884  14.894  21.355  0.00  0.00    +0.000 F 
ATOM     20  F   UNL     1      -0.203  15.544  23.303  0.00  0.00    +0.000 F 
ENDBRANCH  16  17
ENDBRANCH   7  11
BRANCH   1  21
ATOM     21  N   UNL     1       2.047   7.743  20.502  0.00  0.00    +0.000 N 
ATOM     22  H   UNL     1       2.983   7.991  20.804  0.00  0.00    +0.000 HD
BRANCH  21  26
ATOM     23  C   UNL     1       1.919   3.761  19.036  0.00  0.00    +0.000 A 
ATOM     24  C   UNL     1       2.585   4.755  18.311  0.00  0.00    +0.000 A 
ATOM     25  C   UNL     1       2.643   6.063  18.795  0.00  0.00    +0.000 A 
ATOM     26  C   UNL     1       2.029   6.418  20.003  0.00  0.00    +0.000 A 
ATOM     27  C   UNL     1       1.373   5.421  20.733  0.00  0.00    +0.000 A 
ATOM     28  C   UNL     1       1.315   4.107  20.255  0.00  0.00    +0.000 A 
BRANCH  23  30
ATOM     29  F   UNL     1       2.612   1.468  19.243  0.00  0.00    +0.000 F 
ATOM     30  C   UNL     1       1.852   2.343  18.525  0.00  0.00    +0.000 C 
ATOM     31  F   UNL     1       2.275   2.232  17.236  0.00  0.00    +0.000 F 
ATOM     32  F   UNL     1       0.585   1.843  18.549  0.00  0.00    +0.000 F 
ENDBRANCH  23  30
ENDBRANCH  21  26
ENDBRANCH   1  21
TORSDOF 5
ENDMDL
MODEL 7
REMARK VINA RESULT:      -8.3      4.026      4.721
REMARK  Name = 
REMARK  5 active torsions:
REMARK  status: ('A' for Active; 'I' for Inactive)
REMARK    1  A    between atoms: C_2  and  C_5
REMARK    2  A    between atoms: C_8  and  N_9
REMARK    3  A    between atoms: N_9  and  C_10
REMARK    4  A    between atoms: C_16  and  C_17
REMARK    5  A    between atoms: C_22  and  C_23
REMARK                            x       y       z     vdW  Elec       q    Type
REMARK                         _______ _______ _______ _____ _____    ______ ____
ROOT
ATOM      1  C   UNL     1       0.408  10.377  19.937  0.00  0.00    +0.000 A 
ATOM      2  C   UNL     1       0.017  10.222  21.270  0.00  0.00    +0.000 A 
ATOM      3  C   UNL     1       0.481   9.136  21.974  0.00  0.00    +0.000 A 
ATOM      4  N   UNL     1       1.296   8.207  21.445  0.00  0.00    +0.000 NA
ATOM      5  C   UNL     1       1.635   8.302  20.160  0.00  0.00    +0.000 A 
ATOM      6  N   UNL     1       2.413   7.324  19.702  0.00  0.00    +0.000 NA
ATOM      7  C   UNL     1       2.718   7.254  18.391  0.00  0.00    +0.000 A 
ATOM      8  C   UNL     1       2.305   8.238  17.499  0.00  0.00    +0.000 A 
ATOM      9  C   UNL     1       1.548   9.302  17.975  0.00  0.00    +0.000 A 
ATOM     10  C   UNL     1       1.186   9.352  19.338  0.00  0.00    +0.000 A 
ENDROOT
BRANCH   7  11
ATOM     11  C   UNL     1       3.548   6.106  17.969  0.00  0.00    +0.000 A 
ATOM     12  N   UNL     1       4.846   6.455  17.685  0.00  0.00    +0.000 NA
ATOM     13  C   UNL     1       5.727   5.485  17.364  0.00  0.00    +0.000 A 
ATOM     14  C   UNL     1       5.396   4.151  17.300  0.00  0.00    +0.000 A 
ATOM     15  C   UNL     1       4.078   3.801  17.558  0.00  0.00    +0.000 A 
ATOM     16  C   UNL     1       3.116   4.780  17.881  0.00  0.00    +0.000 A 
BRANCH  16  17
ATOM     17  C   UNL     1       1.704   4.299  18.092  0.00  0.00    +0.000 C 
ATOM     18  F   UNL     1       1.134   4.521  19.301  0.00  0.00    +0.000 F 
ATOM     19  F   UNL     1       0.856   4.936  17.219  0.00  0.00    +0.000 F 
ATOM     20  F   UNL     1       1.556   2.976  17.806  0.00  0.00    +0.000 F 
ENDBRANCH  16  17
ENDBRANCH   7  11
BRANCH   1  21
ATOM     21  N   UNL     1       0.044  11.569  19.256  0.00  0.00    +0.000 N 
ATOM     22  H   UNL     1      -0.465  11.423  18.392  0.00  0.00    +0.000 HD
BRANCH  21  26
ATOM     23  C   UNL     1       2.329  15.144  19.102  0.00  0.00    +0.000 A 
ATOM     24  C   UNL     1       2.622  14.086  18.236  0.00  0.00    +0.000 A 
ATOM     25  C   UNL     1       1.866  12.913  18.272  0.00  0.00    +0.000 A 
ATOM     26  C   UNL     1       0.809  12.759  19.179  0.00  0.00    +0.000 A 
ATOM     27  C   UNL     1       0.509  13.822  20.038  0.00  0.00    +0.000 A 
ATOM     28  C   UNL     1       1.262  15.001  20.003  0.00  0.00    +0.000 A 
BRANCH  23  30
ATOM     29  F   UNL     1       2.396  17.540  19.283  0.00  0.00    +0.000 F 
ATOM     30  C   UNL     1       3.139  16.417  19.072  0.00  0.00    +0.000 C 
ATOM     31  F   UNL     1       3.769  16.606  17.880  0.00  0.00    +0.000 F 
ATOM     32  F   UNL     1       4.116  16.433  20.020  0.00  0.00    +0.000 F 
ENDBRANCH  23  30
ENDBRANCH  21  26
ENDBRANCH   1  21
TORSDOF 5
ENDMDL
MODEL 8
REMARK VINA RESULT:      -8.2      3.398      9.702
REMARK  Name = 
REMARK  5 active torsions:
REMARK  status: ('A' for Active; 'I' for Inactive)
REMARK    1  A    between atoms: C_2  and  C_5
REMARK    2  A    between atoms: C_8  and  N_9
REMARK    3  A    between atoms: N_9  and  C_10
REMARK    4  A    between atoms: C_16  and  C_17
REMARK    5  A    between atoms: C_22  and  C_23
REMARK                            x       y       z     vdW  Elec       q    Type
REMARK                         _______ _______ _______ _____ _____    ______ ____
ROOT
ATOM      1  C   UNL     1       1.294   8.660  20.114  0.00  0.00    +0.000 A 
ATOM      2  C   UNL     1       1.315   8.893  18.736  0.00  0.00    +0.000 A 
ATOM      3  C   UNL     1       0.640   9.984  18.240  0.00  0.00    +0.000 A 
ATOM      4  N   UNL     1      -0.044  10.844  19.014  0.00  0.00    +0.000 NA
ATOM      5  C   UNL     1      -0.126  10.608  20.323  0.00  0.00    +0.000 A 
ATOM      6  N   UNL     1      -0.852  11.485  21.015  0.00  0.00    +0.000 NA
ATOM      7  C   UNL     1      -1.102  11.277  22.323  0.00  0.00    +0.000 A 
ATOM      8  C   UNL     1      -0.546  10.201  23.005  0.00  0.00    +0.000 A 
ATOM      9  C   UNL     1       0.270   9.315  22.311  0.00  0.00    +0.000 A 
ATOM     10  C   UNL     1       0.495   9.501  20.930  0.00  0.00    +0.000 A 
ENDROOT
BRANCH   7  11
ATOM     11  C   UNL     1      -1.957  12.279  22.995  0.00  0.00    +0.000 A 
ATOM     12  N   UNL     1      -3.079  11.732  23.569  0.00  0.00    +0.000 NA
ATOM     13  C   UNL     1      -3.902  12.529  24.281  0.00  0.00    +0.000 A 
ATOM     14  C   UNL     1      -3.684  13.875  24.463  0.00  0.00    +0.000 A 
ATOM     15  C   UNL     1      -2.567  14.435  23.858  0.00  0.00    +0.000 A 
ATOM     16  C   UNL     1      -1.685  13.646  23.090  0.00  0.00    +0.000 A 
BRANCH  16  17
ATOM     17  C   UNL     1      -0.533  14.362  22.435  0.00  0.00    +0.000 C 
ATOM     18  F   UNL     1       0.644  13.700  22.327  0.00  0.00    +0.000 F 
ATOM     19  F   UNL     1      -0.847  14.664  21.132  0.00  0.00    +0.000 F 
ATOM     20  F   UNL     1      -0.273  15.568  23.011  0.00  0.00    +0.000 F 
ENDBRANCH  16  17
ENDBRANCH   7  11
BRANCH   1  21
ATOM     21  N   UNL     1       2.106   7.619  20.638  0.00  0.00    +0.000 N 
ATOM     22  H   UNL     1       3.015   7.919  20.970  0.00  0.00    +0.000 HD
BRANCH  21  26
ATOM     23  C   UNL     1       2.388   3.630  19.212  0.00  0.00    +0.000 A 
ATOM     24  C   UNL     1       1.393   3.978  20.132  0.00  0.00    +0.000 A 
ATOM     25  C   UNL     1       1.287   5.291  20.595  0.00  0.00    +0.000 A 
ATOM     26  C   UNL     1       2.173   6.286  20.164  0.00  0.00    +0.000 A 
ATOM     27  C   UNL     1       3.161   5.940  19.234  0.00  0.00    +0.000 A 
ATOM     28  C   UNL     1       3.270   4.626  18.765  0.00  0.00    +0.000 A 
BRANCH  23  30
ATOM     29  F   UNL     1       2.336   2.102  17.357  0.00  0.00    +0.000 F 
ATOM     30  C   UNL     1       2.512   2.215  18.704  0.00  0.00    +0.000 C 
ATOM     31  F   UNL     1       1.603   1.375  19.270  0.00  0.00    +0.000 F 
ATOM     32  F   UNL     1       3.735   1.675  18.966  0.00  0.00    +0.000 F 
ENDBRANCH  23  30
ENDBRANCH  21  26
ENDBRANCH   1  21
TORSDOF 5
ENDMDL
MODEL 9
REMARK VINA RESULT:      -8.2      3.684      4.262
REMARK  Name = 
REMARK  5 active torsions:
REMARK  status: ('A' for Active; 'I' for Inactive)
REMARK    1  A    between atoms: C_2  and  C_5
REMARK    2  A    between atoms: C_8  and  N_9
REMARK    3  A    between atoms: N_9  and  C_10
REMARK    4  A    between atoms: C_16  and  C_17
REMARK    5  A    between atoms: C_22  and  C_23
REMARK                            x       y       z     vdW  Elec       q    Type
REMARK                         _______ _______ _______ _____ _____    ______ ____
ROOT
ATOM      1  C   UNL     1       0.716  10.473  19.209  0.00  0.00    +0.000 A 
ATOM      2  C   UNL     1       0.046  10.643  20.423  0.00  0.00    +0.000 A 
ATOM      3  C   UNL     1       0.190   9.684  21.399  0.00  0.00    +0.000 A 
ATOM      4  N   UNL     1       0.946   8.584  21.246  0.00  0.00    +0.000 NA
ATOM      5  C   UNL     1       1.547   8.372  20.076  0.00  0.00    +0.000 A 
ATOM      6  N   UNL     1       2.247   7.242  19.991  0.00  0.00    +0.000 NA
ATOM      7  C   UNL     1       2.796   6.868  18.818  0.00  0.00    +0.000 A 
ATOM      8  C   UNL     1       2.723   7.682  17.693  0.00  0.00    +0.000 A 
ATOM      9  C   UNL     1       2.054   8.897  17.784  0.00  0.00    +0.000 A 
ATOM     10  C   UNL     1       1.437   9.269  18.998  0.00  0.00    +0.000 A 
ENDROOT
BRANCH   7  11
ATOM     11  C   UNL     1       3.513   5.575  18.811  0.00  0.00    +0.000 A 
ATOM     12  N   UNL     1       4.869   5.709  18.980  0.00  0.00    +0.000 NA
ATOM     13  C   UNL     1       5.629   4.599  19.071  0.00  0.00    +0.000 A 
ATOM     14  C   UNL     1       5.118   3.323  18.997  0.00  0.00    +0.000 A 
ATOM     15  C   UNL     1       3.752   3.186  18.796  0.00  0.00    +0.000 A 
ATOM     16  C   UNL     1       2.918   4.317  18.678  0.00  0.00    +0.000 A 
BRANCH  16  17
ATOM     17  C   UNL     1       1.459   4.058  18.410  0.00  0.00    +0.000 C 
ATOM     18  F   UNL     1       0.889   4.684  17.352  0.00  0.00    +0.000 F 
ATOM     19  F   UNL     1       1.260   2.727  18.135  0.00  0.00    +0.000 F 
ATOM     20  F   UNL     1       0.677   4.301  19.499  0.00  0.00    +0.000 F 
ENDBRANCH  16  17
ENDBRANCH   7  11
BRANCH   1  21
ATOM     21  N   UNL     1       0.680  11.529  18.260  0.00  0.00    +0.000 N 
ATOM     22  H   UNL     1       1.099  11.306  17.364  0.00  0.00    +0.000 HD
BRANCH  21  26
ATOM     23  C   UNL     1       1.032  15.671  19.124  0.00  0.00    +0.000 A 
ATOM     24  C   UNL     1       2.174  14.866  19.066  0.00  0.00    +0.000 A 
ATOM     25  C   UNL     1       2.067  13.506  18.768  0.00  0.00    +0.000 A 
ATOM     26  C   UNL     1       0.820  12.911  18.535  0.00  0.00    +0.000 A 
ATOM     27  C   UNL     1      -0.322  13.719  18.582  0.00  0.00    +0.000 A 
ATOM     28  C   UNL     1      -0.219  15.083  18.877  0.00  0.00    +0.000 A 
BRANCH  23  30
ATOM     29  F   UNL     1       1.618  17.395  20.693  0.00  0.00    +0.000 F 
ATOM     30  C   UNL     1       1.136  17.142  19.443  0.00  0.00    +0.000 C 
ATOM     31  F   UNL     1      -0.065  17.778  19.372  0.00  0.00    +0.000 F 
ATOM     32  F   UNL     1       1.963  17.801  18.585  0.00  0.00    +0.000 F 
ENDBRANCH  23  30
ENDBRANCH  21  26
ENDBRANCH   1  21
TORSDOF 5
ENDMDL
