MODEL 1
REMARK VINA RESULT:      -7.2      0.000      0.000
REMARK  Name = 
REMARK  3 active torsions:
REMARK  status: ('A' for Active; 'I' for Inactive)
REMARK    1  A    between atoms: C_1  and  C_2
REMARK    2  A    between atoms: C_5  and  C_6
REMARK    3  A    between atoms: C_10  and  N_11
REMARK                            x       y       z     vdW  Elec       q    Type
REMARK                         _______ _______ _______ _____ _____    ______ ____
ROOT
ATOM      1  C   UNL     1       4.432   3.851  17.341  0.00  0.00    +0.000 A 
ATOM      2  N   UNL     1       4.743   3.622  18.606  0.00  0.00    +0.000 NA
ATOM      3  C   UNL     1       3.531   3.394  19.204  0.00  0.00    +0.000 A 
ATOM      4  C   UNL     1       3.206   3.085  20.531  0.00  0.00    +0.000 A 
ATOM      5  C   UNL     1       1.857   2.916  20.874  0.00  0.00    +0.000 A 
ATOM      6  C   UNL     1       0.871   2.966  19.873  0.00  0.00    +0.000 A 
ATOM      7  C   UNL     1       1.174   3.284  18.541  0.00  0.00    +0.000 A 
ATOM      8  C   UNL     1       2.519   3.488  18.268  0.00  0.00    +0.000 A 
ATOM      9  O   UNL     1       3.086   3.790  17.064  0.00  0.00    +0.000 OA
ENDROOT
BRANCH   1  14
ATOM     10  C   UNL     1       7.982   5.215  12.985  0.00  0.00    +0.000 C 
ATOM     11  C   UNL     1       7.074   4.835  14.116  0.00  0.00    +0.000 A 
ATOM     12  C   UNL     1       7.413   5.133  15.439  0.00  0.00    +0.000 A 
ATOM     13  C   UNL     1       6.544   4.798  16.481  0.00  0.00    +0.000 A 
ATOM     14  C   UNL     1       5.323   4.157  16.227  0.00  0.00    +0.000 A 
ATOM     15  C   UNL     1       4.997   3.845  14.899  0.00  0.00    +0.000 A 
ATOM     16  C   UNL     1       5.863   4.183  13.855  0.00  0.00    +0.000 A 
ENDBRANCH   1  14
BRANCH   5  17
ATOM     17  N   UNL     1       1.521   2.470  22.161  0.00  0.00    +0.000 N 
ATOM     18  H   UNL     1       0.656   1.939  22.201  0.00  0.00    +0.000 HD
ATOM     19  H   UNL     1       2.279   2.006  22.650  0.00  0.00    +0.000 HD
ENDBRANCH   5  17
TORSDOF 2
ENDMDL
MODEL 2
REMARK VINA RESULT:      -7.1      0.087      1.169
REMARK  Name = 
REMARK  3 active torsions:
REMARK  status: ('A' for Active; 'I' for Inactive)
REMARK    1  A    between atoms: C_1  and  C_2
REMARK    2  A    between atoms: C_5  and  C_6
REMARK    3  A    between atoms: C_10  and  N_11
REMARK                            x       y       z     vdW  Elec       q    Type
REMARK                         _______ _______ _______ _____ _____    ______ ____
ROOT
ATOM      1  C   UNL     1       4.434   3.912  17.366  0.00  0.00    +0.000 A 
ATOM      2  N   UNL     1       4.737   3.685  18.632  0.00  0.00    +0.000 NA
ATOM      3  C   UNL     1       3.525   3.426  19.217  0.00  0.00    +0.000 A 
ATOM      4  C   UNL     1       3.194   3.105  20.540  0.00  0.00    +0.000 A 
ATOM      5  C   UNL     1       1.845   2.903  20.868  0.00  0.00    +0.000 A 
ATOM      6  C   UNL     1       0.869   2.935  19.858  0.00  0.00    +0.000 A 
ATOM      7  C   UNL     1       1.177   3.265  18.530  0.00  0.00    +0.000 A 
ATOM      8  C   UNL     1       2.520   3.501  18.271  0.00  0.00    +0.000 A 
ATOM      9  O   UNL     1       3.093   3.821  17.075  0.00  0.00    +0.000 OA
ENDROOT
BRANCH   1  14
ATOM     10  C   UNL     1       7.949   5.077  12.925  0.00  0.00    +0.000 C 
ATOM     11  C   UNL     1       7.028   4.802  14.075  0.00  0.00    +0.000 A 
ATOM     12  C   UNL     1       5.747   4.284  13.861  0.00  0.00    +0.000 A 
ATOM     13  C   UNL     1       4.909   4.007  14.945  0.00  0.00    +0.000 A 
ATOM     14  C   UNL     1       5.329   4.243  16.262  0.00  0.00    +0.000 A 
ATOM     15  C   UNL     1       6.608   4.779  16.469  0.00  0.00    +0.000 A 
ATOM     16  C   UNL     1       7.449   5.054  15.386  0.00  0.00    +0.000 A 
ENDBRANCH   1  14
BRANCH   5  17
ATOM     17  N   UNL     1       1.507   2.444  22.150  0.00  0.00    +0.000 N 
ATOM     18  H   UNL     1       0.600   1.989  22.199  0.00  0.00    +0.000 HD
ATOM     19  H   UNL     1       2.234   1.899  22.601  0.00  0.00    +0.000 HD
ENDBRANCH   5  17
TORSDOF 2
ENDMDL
MODEL 3
REMARK VINA RESULT:      -6.9      4.618      6.182
REMARK  Name = 
REMARK  3 active torsions:
REMARK  status: ('A' for Active; 'I' for Inactive)
REMARK    1  A    between atoms: C_1  and  C_2
REMARK    2  A    between atoms: C_5  and  C_6
REMARK    3  A    between atoms: C_10  and  N_11
REMARK                            x       y       z     vdW  Elec       q    Type
REMARK                         _______ _______ _______ _____ _____    ______ ____
ROOT
ATOM      1  C   UNL     1       2.382   6.688  19.717  0.00  0.00    +0.000 A 
ATOM      2  N   UNL     1       3.414   6.126  19.112  0.00  0.00    +0.000 NA
ATOM      3  C   UNL     1       3.473   4.873  19.662  0.00  0.00    +0.000 A 
ATOM      4  C   UNL     1       4.346   3.803  19.420  0.00  0.00    +0.000 A 
ATOM      5  C   UNL     1       4.181   2.619  20.153  0.00  0.00    +0.000 A 
ATOM      6  C   UNL     1       3.099   2.492  21.041  0.00  0.00    +0.000 A 
ATOM      7  C   UNL     1       2.220   3.553  21.305  0.00  0.00    +0.000 A 
ATOM      8  C   UNL     1       2.458   4.717  20.588  0.00  0.00    +0.000 A 
ATOM      9  O   UNL     1       1.752   5.883  20.637  0.00  0.00    +0.000 OA
ENDROOT
BRANCH   1  14
ATOM     10  C   UNL     1       0.382  12.055  18.924  0.00  0.00    +0.000 C 
ATOM     11  C   UNL     1       0.874  10.653  19.121  0.00  0.00    +0.000 A 
ATOM     12  C   UNL     1       1.524   9.969  18.090  0.00  0.00    +0.000 A 
ATOM     13  C   UNL     1       2.002   8.672  18.297  0.00  0.00    +0.000 A 
ATOM     14  C   UNL     1       1.841   8.031  19.534  0.00  0.00    +0.000 A 
ATOM     15  C   UNL     1       1.173   8.716  20.559  0.00  0.00    +0.000 A 
ATOM     16  C   UNL     1       0.697  10.015  20.355  0.00  0.00    +0.000 A 
ENDBRANCH   1  14
BRANCH   5  17
ATOM     17  N   UNL     1       4.952   1.492  19.829  0.00  0.00    +0.000 N 
ATOM     18  H   UNL     1       5.092   1.363  18.831  0.00  0.00    +0.000 HD
ATOM     19  H   UNL     1       5.819   1.418  20.351  0.00  0.00    +0.000 HD
ENDBRANCH   5  17
TORSDOF 2
ENDMDL
MODEL 4
REMARK VINA RESULT:      -6.8      4.615      6.159
REMARK  Name = 
REMARK  3 active torsions:
REMARK  status: ('A' for Active; 'I' for Inactive)
REMARK    1  A    between atoms: C_1  and  C_2
REMARK    2  A    between atoms: C_5  and  C_6
REMARK    3  A    between atoms: C_10  and  N_11
REMARK                            x       y       z     vdW  Elec       q    Type
REMARK                         _______ _______ _______ _____ _____    ______ ____
ROOT
ATOM      1  C   UNL     1       2.434   6.711  19.663  0.00  0.00    +0.000 A 
ATOM      2  N   UNL     1       3.461   6.141  19.055  0.00  0.00    +0.000 NA
ATOM      3  C   UNL     1       3.513   4.888  19.607  0.00  0.00    +0.000 A 
ATOM      4  C   UNL     1       4.377   3.813  19.363  0.00  0.00    +0.000 A 
ATOM      5  C   UNL     1       4.207   2.630  20.098  0.00  0.00    +0.000 A 
ATOM      6  C   UNL     1       3.127   2.512  20.989  0.00  0.00    +0.000 A 
ATOM      7  C   UNL     1       2.257   3.579  21.255  0.00  0.00    +0.000 A 
ATOM      8  C   UNL     1       2.500   4.740  20.536  0.00  0.00    +0.000 A 
ATOM      9  O   UNL     1       1.802   5.911  20.587  0.00  0.00    +0.000 OA
ENDROOT
BRANCH   1  14
ATOM     10  C   UNL     1       0.185  11.997  19.006  0.00  0.00    +0.000 C 
ATOM     11  C   UNL     1       0.793  10.639  19.185  0.00  0.00    +0.000 A 
ATOM     12  C   UNL     1       0.686   9.958  20.401  0.00  0.00    +0.000 A 
ATOM     13  C   UNL     1       1.235   8.681  20.545  0.00  0.00    +0.000 A 
ATOM     14  C   UNL     1       1.902   8.057  19.480  0.00  0.00    +0.000 A 
ATOM     15  C   UNL     1       2.021   8.752  18.268  0.00  0.00    +0.000 A 
ATOM     16  C   UNL     1       1.470  10.029  18.122  0.00  0.00    +0.000 A 
ENDBRANCH   1  14
BRANCH   5  17
ATOM     17  N   UNL     1       4.969   1.498  19.772  0.00  0.00    +0.000 N 
ATOM     18  H   UNL     1       5.841   1.425  20.287  0.00  0.00    +0.000 HD
ATOM     19  H   UNL     1       4.445   0.628  19.780  0.00  0.00    +0.000 HD
ENDBRANCH   5  17
TORSDOF 2
ENDMDL
MODEL 5
REMARK VINA RESULT:      -6.8      4.411      4.664
REMARK  Name = 
REMARK  3 active torsions:
REMARK  status: ('A' for Active; 'I' for Inactive)
REMARK    1  A    between atoms: C_1  and  C_2
REMARK    2  A    between atoms: C_5  and  C_6
REMARK    3  A    between atoms: C_10  and  N_11
REMARK                            x       y       z     vdW  Elec       q    Type
REMARK                         _______ _______ _______ _____ _____    ______ ____
ROOT
ATOM      1  C   UNL     1       2.950   6.930  18.424  0.00  0.00    +0.000 A 
ATOM      2  N   UNL     1       2.590   6.666  19.668  0.00  0.00    +0.000 NA
ATOM      3  C   UNL     1       1.831   7.750  20.025  0.00  0.00    +0.000 A 
ATOM      4  C   UNL     1       1.161   8.048  21.219  0.00  0.00    +0.000 A 
ATOM      5  C   UNL     1       0.460   9.260  21.315  0.00  0.00    +0.000 A 
ATOM      6  C   UNL     1       0.366  10.102  20.194  0.00  0.00    +0.000 A 
ATOM      7  C   UNL     1       1.037   9.827  18.993  0.00  0.00    +0.000 A 
ATOM      8  C   UNL     1       1.754   8.639  18.970  0.00  0.00    +0.000 A 
ATOM      9  O   UNL     1       2.478   8.125  17.934  0.00  0.00    +0.000 OA
ENDROOT
BRANCH   1  14
ATOM     10  C   UNL     1       6.170   3.845  14.742  0.00  0.00    +0.000 C 
ATOM     11  C   UNL     1       5.357   4.643  15.716  0.00  0.00    +0.000 A 
ATOM     12  C   UNL     1       5.434   6.038  15.744  0.00  0.00    +0.000 A 
ATOM     13  C   UNL     1       4.650   6.770  16.640  0.00  0.00    +0.000 A 
ATOM     14  C   UNL     1       3.774   6.127  17.526  0.00  0.00    +0.000 A 
ATOM     15  C   UNL     1       3.713   4.726  17.505  0.00  0.00    +0.000 A 
ATOM     16  C   UNL     1       4.495   3.992  16.608  0.00  0.00    +0.000 A 
ENDBRANCH   1  14
BRANCH   5  17
ATOM     17  N   UNL     1      -0.331   9.513  22.446  0.00  0.00    +0.000 N 
ATOM     18  H   UNL     1      -0.044  10.330  22.975  0.00  0.00    +0.000 HD
ATOM     19  H   UNL     1      -1.329   9.505  22.263  0.00  0.00    +0.000 HD
ENDBRANCH   5  17
TORSDOF 2
ENDMDL
MODEL 6
REMARK VINA RESULT:      -6.8      4.445      4.756
REMARK  Name = 
REMARK  3 active torsions:
REMARK  status: ('A' for Active; 'I' for Inactive)
REMARK    1  A    between atoms: C_1  and  C_2
REMARK    2  A    between atoms: C_5  and  C_6
REMARK    3  A    between atoms: C_10  and  N_11
REMARK                            x       y       z     vdW  Elec       q    Type
REMARK                         _______ _______ _______ _____ _____    ______ ____
ROOT
ATOM      1  C   UNL     1       2.913   6.995  18.419  0.00  0.00    +0.000 A 
ATOM      2  N   UNL     1       2.582   6.723  19.669  0.00  0.00    +0.000 NA
ATOM      3  C   UNL     1       1.810   7.791  20.043  0.00  0.00    +0.000 A 
ATOM      4  C   UNL     1       1.156   8.076  21.249  0.00  0.00    +0.000 A 
ATOM      5  C   UNL     1       0.435   9.273  21.360  0.00  0.00    +0.000 A 
ATOM      6  C   UNL     1       0.303  10.115  20.242  0.00  0.00    +0.000 A 
ATOM      7  C   UNL     1       0.956   9.854  19.029  0.00  0.00    +0.000 A 
ATOM      8  C   UNL     1       1.696   8.680  18.990  0.00  0.00    +0.000 A 
ATOM      9  O   UNL     1       2.409   8.181  17.940  0.00  0.00    +0.000 OA
ENDROOT
BRANCH   1  14
ATOM     10  C   UNL     1       6.209   3.780  14.920  0.00  0.00    +0.000 C 
ATOM     11  C   UNL     1       5.334   4.615  15.806  0.00  0.00    +0.000 A 
ATOM     12  C   UNL     1       4.414   4.020  16.674  0.00  0.00    +0.000 A 
ATOM     13  C   UNL     1       3.625   4.811  17.514  0.00  0.00    +0.000 A 
ATOM     14  C   UNL     1       3.735   6.209  17.505  0.00  0.00    +0.000 A 
ATOM     15  C   UNL     1       4.647   6.801  16.619  0.00  0.00    +0.000 A 
ATOM     16  C   UNL     1       5.440   6.011  15.780  0.00  0.00    +0.000 A 
ENDBRANCH   1  14
BRANCH   5  17
ATOM     17  N   UNL     1      -0.340   9.510  22.506  0.00  0.00    +0.000 N 
ATOM     18  H   UNL     1      -0.412  10.491  22.759  0.00  0.00    +0.000 HD
ATOM     19  H   UNL     1      -1.244   9.049  22.498  0.00  0.00    +0.000 HD
ENDBRANCH   5  17
TORSDOF 2
ENDMDL
MODEL 7
REMARK VINA RESULT:      -6.7      5.963      7.735
REMARK  Name = 
REMARK  3 active torsions:
REMARK  status: ('A' for Active; 'I' for Inactive)
REMARK    1  A    between atoms: C_1  and  C_2
REMARK    2  A    between atoms: C_5  and  C_6
REMARK    3  A    between atoms: C_10  and  N_11
REMARK                            x       y       z     vdW  Elec       q    Type
REMARK                         _______ _______ _______ _____ _____    ______ ____
ROOT
ATOM      1  C   UNL     1       8.366   8.904  18.315  0.00  0.00    +0.000 A 
ATOM      2  N   UNL     1       7.434   8.799  17.384  0.00  0.00    +0.000 NA
ATOM      3  C   UNL     1       7.095   7.472  17.409  0.00  0.00    +0.000 A 
ATOM      4  C   UNL     1       6.156   6.749  16.661  0.00  0.00    +0.000 A 
ATOM      5  C   UNL     1       6.028   5.371  16.888  0.00  0.00    +0.000 A 
ATOM      6  C   UNL     1       6.768   4.762  17.917  0.00  0.00    +0.000 A 
ATOM      7  C   UNL     1       7.719   5.464  18.670  0.00  0.00    +0.000 A 
ATOM      8  C   UNL     1       7.839   6.814  18.370  0.00  0.00    +0.000 A 
ATOM      9  O   UNL     1       8.668   7.725  18.956  0.00  0.00    +0.000 OA
ENDROOT
BRANCH   1  14
ATOM     10  C   UNL     1      11.396  13.576  19.874  0.00  0.00    +0.000 C 
ATOM     11  C   UNL     1      10.586  12.381  19.471  0.00  0.00    +0.000 A 
ATOM     12  C   UNL     1      10.354  12.091  18.123  0.00  0.00    +0.000 A 
ATOM     13  C   UNL     1       9.620  10.958  17.763  0.00  0.00    +0.000 A 
ATOM     14  C   UNL     1       9.101  10.092  18.736  0.00  0.00    +0.000 A 
ATOM     15  C   UNL     1       9.322  10.398  20.087  0.00  0.00    +0.000 A 
ATOM     16  C   UNL     1      10.059  11.530  20.450  0.00  0.00    +0.000 A 
ENDBRANCH   1  14
BRANCH   5  17
ATOM     17  N   UNL     1       5.000   4.658  16.253  0.00  0.00    +0.000 N 
ATOM     18  H   UNL     1       4.088   5.098  16.325  0.00  0.00    +0.000 HD
ATOM     19  H   UNL     1       5.217   4.378  15.301  0.00  0.00    +0.000 HD
ENDBRANCH   5  17
TORSDOF 2
ENDMDL
MODEL 8
REMARK VINA RESULT:      -6.7      5.965      7.698
REMARK  Name = 
REMARK  3 active torsions:
REMARK  status: ('A' for Active; 'I' for Inactive)
REMARK    1  A    between atoms: C_1  and  C_2
REMARK    2  A    between atoms: C_5  and  C_6
REMARK    3  A    between atoms: C_10  and  N_11
REMARK                            x       y       z     vdW  Elec       q    Type
REMARK                         _______ _______ _______ _____ _____    ______ ____
ROOT
ATOM      1  C   UNL     1       8.280   8.949  18.219  0.00  0.00    +0.000 A 
ATOM      2  N   UNL     1       7.393   8.721  17.267  0.00  0.00    +0.000 NA
ATOM      3  C   UNL     1       7.145   7.377  17.366  0.00  0.00    +0.000 A 
ATOM      4  C   UNL     1       6.286   6.545  16.635  0.00  0.00    +0.000 A 
ATOM      5  C   UNL     1       6.245   5.178  16.947  0.00  0.00    +0.000 A 
ATOM      6  C   UNL     1       6.987   4.687  18.035  0.00  0.00    +0.000 A 
ATOM      7  C   UNL     1       7.859   5.500  18.773  0.00  0.00    +0.000 A 
ATOM      8  C   UNL     1       7.897   6.834  18.391  0.00  0.00    +0.000 A 
ATOM      9  O   UNL     1       8.639   7.837  18.944  0.00  0.00    +0.000 OA
ENDROOT
BRANCH   1  14
ATOM     10  C   UNL     1      10.732  13.935  19.823  0.00  0.00    +0.000 C 
ATOM     11  C   UNL     1      10.122  12.635  19.394  0.00  0.00    +0.000 A 
ATOM     12  C   UNL     1      10.194  11.503  20.210  0.00  0.00    +0.000 A 
ATOM     13  C   UNL     1       9.597  10.305  19.809  0.00  0.00    +0.000 A 
ATOM     14  C   UNL     1       8.916  10.210  18.587  0.00  0.00    +0.000 A 
ATOM     15  C   UNL     1       8.861  11.345  17.764  0.00  0.00    +0.000 A 
ATOM     16  C   UNL     1       9.456  12.545  18.165  0.00  0.00    +0.000 A 
ENDBRANCH   1  14
BRANCH   5  17
ATOM     17  N   UNL     1       5.293   4.356  16.325  0.00  0.00    +0.000 N 
ATOM     18  H   UNL     1       4.347   4.486  16.672  0.00  0.00    +0.000 HD
ATOM     19  H   UNL     1       5.334   4.367  15.311  0.00  0.00    +0.000 HD
ENDBRANCH   5  17
TORSDOF 2
ENDMDL
MODEL 9
REMARK VINA RESULT:      -6.7      4.846      5.211
REMARK  Name = 
REMARK  3 active torsions:
REMARK  status: ('A' for Active; 'I' for Inactive)
REMARK    1  A    between atoms: C_1  and  C_2
REMARK    2  A    between atoms: C_5  and  C_6
REMARK    3  A    between atoms: C_10  and  N_11
REMARK                            x       y       z     vdW  Elec       q    Type
REMARK                         _______ _______ _______ _____ _____    ______ ____
ROOT
ATOM      1  C   UNL     1       2.774   7.317  18.298  0.00  0.00    +0.000 A 
ATOM      2  N   UNL     1       2.217   8.441  17.880  0.00  0.00    +0.000 NA
ATOM      3  C   UNL     1       1.539   8.898  18.980  0.00  0.00    +0.000 A 
ATOM      4  C   UNL     1       0.763  10.049  19.167  0.00  0.00    +0.000 A 
ATOM      5  C   UNL     1       0.161  10.261  20.416  0.00  0.00    +0.000 A 
ATOM      6  C   UNL     1       0.419   9.374  21.475  0.00  0.00    +0.000 A 
ATOM      7  C   UNL     1       1.184   8.211  21.306  0.00  0.00    +0.000 A 
ATOM      8  C   UNL     1       1.716   8.026  20.038  0.00  0.00    +0.000 A 
ATOM      9  O   UNL     1       2.504   6.999  19.608  0.00  0.00    +0.000 OA
ENDROOT
BRANCH   1  14
ATOM     10  C   UNL     1       6.099   3.731  15.211  0.00  0.00    +0.000 C 
ATOM     11  C   UNL     1       5.256   4.659  16.033  0.00  0.00    +0.000 A 
ATOM     12  C   UNL     1       5.422   6.045  15.949  0.00  0.00    +0.000 A 
ATOM     13  C   UNL     1       4.611   6.898  16.701  0.00  0.00    +0.000 A 
ATOM     14  C   UNL     1       3.619   6.390  17.553  0.00  0.00    +0.000 A 
ATOM     15  C   UNL     1       3.469   4.999  17.646  0.00  0.00    +0.000 A 
ATOM     16  C   UNL     1       4.278   4.142  16.892  0.00  0.00    +0.000 A 
ENDBRANCH   1  14
BRANCH   5  17
ATOM     17  N   UNL     1      -0.501  11.472  20.667  0.00  0.00    +0.000 N 
ATOM     18  H   UNL     1      -1.396  11.559  20.195  0.00  0.00    +0.000 HD
ATOM     19  H   UNL     1      -0.562  11.716  21.651  0.00  0.00    +0.000 HD
ENDBRANCH   5  17
TORSDOF 2
ENDMDL
