MODEL 1
REMARK VINA RESULT:      -7.8      0.000      0.000
REMARK  Name = 
REMARK  10 active torsions:
REMARK  status: ('A' for Active; 'I' for Inactive)
REMARK    1  A    between atoms: C_1  and  C_2
REMARK    2  A    between atoms: C_3  and  O_4
REMARK    3  A    between atoms: N_11  and  C_12
REMARK    4  A    between atoms: C_12  and  C_13
REMARK    5  A    between atoms: C_18  and  C_19
REMARK    6  A    between atoms: C_26  and  C_27
REMARK    7  A    between atoms: N_29  and  C_30
REMARK    8  A    between atoms: C_30  and  C_31
REMARK    9  A    between atoms: C_30  and  C_32
REMARK   10  A    between atoms: C_30  and  C_33
REMARK                            x       y       z     vdW  Elec       q    Type
REMARK                         _______ _______ _______ _____ _____    ______ ____
ROOT
ATOM      1  C   UNL     1       3.737  14.635  19.107  0.00  0.00    +0.000 C 
ATOM      2  C   UNL     1       2.355  15.204  19.010  0.00  0.00    +0.000 A 
ATOM      3  C   UNL     1       2.057  16.563  18.926  0.00  0.00    +0.000 A 
ATOM      4  C   UNL     1       0.718  17.020  18.889  0.00  0.00    +0.000 A 
ATOM      5  C   UNL     1      -0.355  16.124  18.919  0.00  0.00    +0.000 A 
ATOM      6  C   UNL     1      -0.071  14.772  18.996  0.00  0.00    +0.000 A 
ATOM      7  C   UNL     1       1.258  14.342  19.027  0.00  0.00    +0.000 A 
ATOM      8  C   UNL     1       1.257  12.877  19.130  0.00  0.00    +0.000 C 
ATOM      9  O   UNL     1       2.265  12.201  19.183  0.00  0.00    +0.000 OA
ATOM     10  N   UNL     1      -0.062  12.466  19.169  0.00  0.00    +0.000 N 
ATOM     11  C   UNL     1      -1.001  13.589  19.049  0.00  0.00    +0.000 C 
ENDROOT
BRANCH  11  12
ATOM     12  C   UNL     1      -2.103  13.756  20.123  0.00  0.00    +0.000 C 
ATOM     13  O   UNL     1      -1.839  14.287  21.202  0.00  0.00    +0.000 OA
ATOM     14  N   UNL     1      -3.333  13.188  19.853  0.00  0.00    +0.000 N 
ATOM     15  H   UNL     1      -3.426  12.672  18.985  0.00  0.00    +0.000 HD
BRANCH  14  16
ATOM     16  C   UNL     1      -4.493  13.239  20.769  0.00  0.00    +0.000 C 
ATOM     17  C   UNL     1      -5.045  14.672  20.869  0.00  0.00    +0.000 C 
ATOM     18  C   UNL     1      -5.606  12.336  20.206  0.00  0.00    +0.000 C 
ATOM     19  C   UNL     1      -4.135  12.722  22.174  0.00  0.00    +0.000 C 
ENDBRANCH  14  16
ENDBRANCH  11  12
BRANCH   3  20
ATOM     20  O   UNL     1       3.000  17.546  18.907  0.00  0.00    +0.000 OA
ATOM     21  H   UNL     1       3.816  17.224  18.496  0.00  0.00    +0.000 HD
ENDBRANCH   3  20
BRANCH  10  22
ATOM     22  C   UNL     1      -0.500  11.089  19.329  0.00  0.00    +0.000 C 
BRANCH  22  23
ATOM     23  C   UNL     1      -0.256  10.426  20.681  0.00  0.00    +0.000 A 
ATOM     24  C   UNL     1      -0.887  11.065  21.779  0.00  0.00    +0.000 A 
ATOM     25  C   UNL     1      -0.733  10.613  23.086  0.00  0.00    +0.000 A 
ATOM     26  C   UNL     1       0.052   9.501  23.330  0.00  0.00    +0.000 A 
ATOM     27  C   UNL     1       0.680   8.845  22.265  0.00  0.00    +0.000 A 
ATOM     28  C   UNL     1       0.557   9.276  20.918  0.00  0.00    +0.000 A 
BRANCH  28  29
ATOM     29  C   UNL     1       1.337   8.563  19.859  0.00  0.00    +0.000 A 
ATOM     30  C   UNL     1       1.525   9.106  18.578  0.00  0.00    +0.000 A 
ATOM     31  C   UNL     1       2.429   8.555  17.665  0.00  0.00    +0.000 A 
ATOM     32  C   UNL     1       3.069   7.368  17.970  0.00  0.00    +0.000 A 
ATOM     33  F   UNL     1       3.942   6.845  17.100  0.00  0.00    +0.000 F 
ATOM     34  C   UNL     1       2.806   6.717  19.164  0.00  0.00    +0.000 A 
ATOM     35  C   UNL     1       1.965   7.321  20.109  0.00  0.00    +0.000 A 
ENDBRANCH  28  29
ENDBRANCH  22  23
ENDBRANCH  10  22
TORSDOF 6
ENDMDL
MODEL 2
REMARK VINA RESULT:      -7.8      1.983      2.415
REMARK  Name = 
REMARK  10 active torsions:
REMARK  status: ('A' for Active; 'I' for Inactive)
REMARK    1  A    between atoms: C_1  and  C_2
REMARK    2  A    between atoms: C_3  and  O_4
REMARK    3  A    between atoms: N_11  and  C_12
REMARK    4  A    between atoms: C_12  and  C_13
REMARK    5  A    between atoms: C_18  and  C_19
REMARK    6  A    between atoms: C_26  and  C_27
REMARK    7  A    between atoms: N_29  and  C_30
REMARK    8  A    between atoms: C_30  and  C_31
REMARK    9  A    between atoms: C_30  and  C_32
REMARK   10  A    between atoms: C_30  and  C_33
REMARK                            x       y       z     vdW  Elec       q    Type
REMARK                         _______ _______ _______ _____ _____    ______ ____
ROOT
ATOM      1  C   UNL     1       2.027  16.383  21.814  0.00  0.00    +0.000 C 
ATOM      2  C   UNL     1       1.085  16.242  20.659  0.00  0.00    +0.000 A 
ATOM      3  C   UNL     1       0.289  17.266  20.150  0.00  0.00    +0.000 A 
ATOM      4  C   UNL     1      -0.615  17.034  19.086  0.00  0.00    +0.000 A 
ATOM      5  C   UNL     1      -0.730  15.772  18.494  0.00  0.00    +0.000 A 
ATOM      6  C   UNL     1       0.060  14.749  18.988  0.00  0.00    +0.000 A 
ATOM      7  C   UNL     1       0.948  15.001  20.036  0.00  0.00    +0.000 A 
ATOM      8  C   UNL     1       1.631  13.742  20.362  0.00  0.00    +0.000 C 
ATOM      9  O   UNL     1       2.465  13.631  21.238  0.00  0.00    +0.000 OA
ATOM     10  N   UNL     1       1.133  12.770  19.516  0.00  0.00    +0.000 N 
ATOM     11  C   UNL     1       0.150  13.307  18.565  0.00  0.00    +0.000 C 
ENDROOT
BRANCH  11  12
ATOM     12  C   UNL     1      -1.241  12.634  18.472  0.00  0.00    +0.000 C 
ATOM     13  O   UNL     1      -2.017  12.682  19.426  0.00  0.00    +0.000 OA
ATOM     14  N   UNL     1      -1.507  11.899  17.332  0.00  0.00    +0.000 N 
ATOM     15  H   UNL     1      -0.764  11.821  16.646  0.00  0.00    +0.000 HD
BRANCH  14  16
ATOM     16  C   UNL     1      -2.775  11.180  17.082  0.00  0.00    +0.000 C 
ATOM     17  C   UNL     1      -3.016  11.013  15.570  0.00  0.00    +0.000 C 
ATOM     18  C   UNL     1      -2.679   9.777  17.708  0.00  0.00    +0.000 C 
ATOM     19  C   UNL     1      -3.976  11.899  17.722  0.00  0.00    +0.000 C 
ENDBRANCH  14  16
ENDBRANCH  11  12
BRANCH   3  20
ATOM     20  O   UNL     1       0.284  18.538  20.640  0.00  0.00    +0.000 OA
ATOM     21  H   UNL     1       0.688  19.147  20.004  0.00  0.00    +0.000 HD
ENDBRANCH   3  20
BRANCH  10  22
ATOM     22  C   UNL     1       1.505  11.365  19.552  0.00  0.00    +0.000 C 
BRANCH  22  23
ATOM     23  C   UNL     1       0.812  10.479  20.583  0.00  0.00    +0.000 A 
ATOM     24  C   UNL     1       0.094  11.183  21.584  0.00  0.00    +0.000 A 
ATOM     25  C   UNL     1      -0.561  10.528  22.623  0.00  0.00    +0.000 A 
ATOM     26  C   UNL     1      -0.520   9.147  22.686  0.00  0.00    +0.000 A 
ATOM     27  C   UNL     1       0.174   8.427  21.707  0.00  0.00    +0.000 A 
ATOM     28  C   UNL     1       0.861   9.054  20.635  0.00  0.00    +0.000 A 
BRANCH  28  29
ATOM     29  C   UNL     1       1.649   8.203  19.688  0.00  0.00    +0.000 A 
ATOM     30  C   UNL     1       1.965   8.629  18.389  0.00  0.00    +0.000 A 
ATOM     31  C   UNL     1       2.879   7.943  17.585  0.00  0.00    +0.000 A 
ATOM     32  C   UNL     1       3.399   6.737  18.020  0.00  0.00    +0.000 A 
ATOM     33  F   UNL     1       4.281   6.083  17.254  0.00  0.00    +0.000 F 
ATOM     34  C   UNL     1       3.004   6.202  19.235  0.00  0.00    +0.000 A 
ATOM     35  C   UNL     1       2.155   6.939  20.071  0.00  0.00    +0.000 A 
ENDBRANCH  28  29
ENDBRANCH  22  23
ENDBRANCH  10  22
TORSDOF 6
ENDMDL
MODEL 3
REMARK VINA RESULT:      -7.6      2.649      5.902
REMARK  Name = 
REMARK  10 active torsions:
REMARK  status: ('A' for Active; 'I' for Inactive)
REMARK    1  A    between atoms: C_1  and  C_2
REMARK    2  A    between atoms: C_3  and  O_4
REMARK    3  A    between atoms: N_11  and  C_12
REMARK    4  A    between atoms: C_12  and  C_13
REMARK    5  A    between atoms: C_18  and  C_19
REMARK    6  A    between atoms: C_26  and  C_27
REMARK    7  A    between atoms: N_29  and  C_30
REMARK    8  A    between atoms: C_30  and  C_31
REMARK    9  A    between atoms: C_30  and  C_32
REMARK   10  A    between atoms: C_30  and  C_33
REMARK                            x       y       z     vdW  Elec       q    Type
REMARK                         _______ _______ _______ _____ _____    ______ ____
ROOT
ATOM      1  C   UNL     1      -3.297   9.786  17.130  0.00  0.00    +0.000 C 
ATOM      2  C   UNL     1      -2.854  10.753  18.185  0.00  0.00    +0.000 A 
ATOM      3  C   UNL     1      -3.691  11.654  18.841  0.00  0.00    +0.000 A 
ATOM      4  C   UNL     1      -3.181  12.571  19.791  0.00  0.00    +0.000 A 
ATOM      5  C   UNL     1      -1.821  12.595  20.119  0.00  0.00    +0.000 A 
ATOM      6  C   UNL     1      -0.983  11.700  19.478  0.00  0.00    +0.000 A 
ATOM      7  C   UNL     1      -1.508  10.801  18.546  0.00  0.00    +0.000 A 
ATOM      8  C   UNL     1      -0.397   9.998  18.018  0.00  0.00    +0.000 C 
ATOM      9  O   UNL     1      -0.529   9.127  17.182  0.00  0.00    +0.000 OA
ATOM     10  N   UNL     1       0.760  10.438  18.632  0.00  0.00    +0.000 N 
ATOM     11  C   UNL     1       0.503  11.497  19.617  0.00  0.00    +0.000 C 
ENDROOT
BRANCH  11  12
ATOM     12  C   UNL     1       1.290  12.826  19.504  0.00  0.00    +0.000 C 
ATOM     13  O   UNL     1       1.151  13.545  18.515  0.00  0.00    +0.000 OA
ATOM     14  N   UNL     1       2.215  13.091  20.495  0.00  0.00    +0.000 N 
ATOM     15  H   UNL     1       2.343  12.387  21.213  0.00  0.00    +0.000 HD
BRANCH  14  16
ATOM     16  C   UNL     1       3.062  14.302  20.539  0.00  0.00    +0.000 C 
ATOM     17  C   UNL     1       2.210  15.552  20.825  0.00  0.00    +0.000 C 
ATOM     18  C   UNL     1       4.083  14.149  21.682  0.00  0.00    +0.000 C 
ATOM     19  C   UNL     1       3.849  14.499  19.231  0.00  0.00    +0.000 C 
ENDBRANCH  14  16
ENDBRANCH  11  12
BRANCH   3  20
ATOM     20  O   UNL     1      -5.029  11.754  18.608  0.00  0.00    +0.000 OA
ATOM     21  H   UNL     1      -5.526  11.226  19.252  0.00  0.00    +0.000 HD
ENDBRANCH   3  20
BRANCH  10  22
ATOM     22  C   UNL     1       2.096   9.941  18.343  0.00  0.00    +0.000 C 
BRANCH  22  23
ATOM     23  C   UNL     1       2.369   8.463  18.601  0.00  0.00    +0.000 A 
ATOM     24  C   UNL     1       3.043   7.790  17.550  0.00  0.00    +0.000 A 
ATOM     25  C   UNL     1       3.332   6.430  17.608  0.00  0.00    +0.000 A 
ATOM     26  C   UNL     1       2.959   5.705  18.725  0.00  0.00    +0.000 A 
ATOM     27  C   UNL     1       2.299   6.345  19.781  0.00  0.00    +0.000 A 
ATOM     28  C   UNL     1       1.979   7.727  19.761  0.00  0.00    +0.000 A 
BRANCH  28  29
ATOM     29  C   UNL     1       1.194   8.301  20.898  0.00  0.00    +0.000 A 
ATOM     30  C   UNL     1       1.794   9.077  21.902  0.00  0.00    +0.000 A 
ATOM     31  C   UNL     1       1.040   9.795  22.836  0.00  0.00    +0.000 A 
ATOM     32  C   UNL     1      -0.334   9.644  22.862  0.00  0.00    +0.000 A 
ATOM     33  F   UNL     1      -1.058  10.337  23.750  0.00  0.00    +0.000 F 
ATOM     34  C   UNL     1      -0.961   8.776  21.984  0.00  0.00    +0.000 A 
ATOM     35  C   UNL     1      -0.206   8.128  20.997  0.00  0.00    +0.000 A 
ENDBRANCH  28  29
ENDBRANCH  22  23
ENDBRANCH  10  22
TORSDOF 6
ENDMDL
MODEL 4
REMARK VINA RESULT:      -7.5      1.109      1.519
REMARK  Name = 
REMARK  10 active torsions:
REMARK  status: ('A' for Active; 'I' for Inactive)
REMARK    1  A    between atoms: C_1  and  C_2
REMARK    2  A    between atoms: C_3  and  O_4
REMARK    3  A    between atoms: N_11  and  C_12
REMARK    4  A    between atoms: C_12  and  C_13
REMARK    5  A    between atoms: C_18  and  C_19
REMARK    6  A    between atoms: C_26  and  C_27
REMARK    7  A    between atoms: N_29  and  C_30
REMARK    8  A    between atoms: C_30  and  C_31
REMARK    9  A    between atoms: C_30  and  C_32
REMARK   10  A    between atoms: C_30  and  C_33
REMARK                            x       y       z     vdW  Elec       q    Type
REMARK                         _______ _______ _______ _____ _____    ______ ____
ROOT
ATOM      1  C   UNL     1       3.738  14.539  18.602  0.00  0.00    +0.000 C 
ATOM      2  C   UNL     1       2.338  15.070  18.635  0.00  0.00    +0.000 A 
ATOM      3  C   UNL     1       1.997  16.421  18.584  0.00  0.00    +0.000 A 
ATOM      4  C   UNL     1       0.648  16.840  18.673  0.00  0.00    +0.000 A 
ATOM      5  C   UNL     1      -0.393  15.915  18.797  0.00  0.00    +0.000 A 
ATOM      6  C   UNL     1      -0.066  14.571  18.841  0.00  0.00    +0.000 A 
ATOM      7  C   UNL     1       1.272  14.178  18.748  0.00  0.00    +0.000 A 
ATOM      8  C   UNL     1       1.320  12.714  18.844  0.00  0.00    +0.000 C 
ATOM      9  O   UNL     1       2.347  12.066  18.801  0.00  0.00    +0.000 OA
ATOM     10  N   UNL     1       0.022  12.266  19.002  0.00  0.00    +0.000 N 
ATOM     11  C   UNL     1      -0.955  13.363  18.974  0.00  0.00    +0.000 C 
ENDROOT
BRANCH  11  12
ATOM     12  C   UNL     1      -1.957  13.498  20.146  0.00  0.00    +0.000 C 
ATOM     13  O   UNL     1      -3.126  13.138  20.004  0.00  0.00    +0.000 OA
ATOM     14  N   UNL     1      -1.506  14.132  21.287  0.00  0.00    +0.000 N 
ATOM     15  H   UNL     1      -0.560  14.497  21.272  0.00  0.00    +0.000 HD
BRANCH  14  16
ATOM     16  C   UNL     1      -2.329  14.359  22.494  0.00  0.00    +0.000 C 
ATOM     17  C   UNL     1      -3.150  13.102  22.837  0.00  0.00    +0.000 C 
ATOM     18  C   UNL     1      -1.394  14.658  23.681  0.00  0.00    +0.000 C 
ATOM     19  C   UNL     1      -3.273  15.564  22.326  0.00  0.00    +0.000 C 
ENDBRANCH  14  16
ENDBRANCH  11  12
BRANCH   3  20
ATOM     20  O   UNL     1       2.907  17.430  18.484  0.00  0.00    +0.000 OA
ATOM     21  H   UNL     1       2.830  18.031  19.240  0.00  0.00    +0.000 HD
ENDBRANCH   3  20
BRANCH  10  22
ATOM     22  C   UNL     1      -0.362  10.877  19.195  0.00  0.00    +0.000 C 
BRANCH  22  23
ATOM     23  C   UNL     1      -0.094  10.257  20.563  0.00  0.00    +0.000 A 
ATOM     24  C   UNL     1      -0.711  10.927  21.651  0.00  0.00    +0.000 A 
ATOM     25  C   UNL     1      -0.535  10.515  22.968  0.00  0.00    +0.000 A 
ATOM     26  C   UNL     1       0.260   9.415  23.235  0.00  0.00    +0.000 A 
ATOM     27  C   UNL     1       0.875   8.730  22.180  0.00  0.00    +0.000 A 
ATOM     28  C   UNL     1       0.729   9.119  20.823  0.00  0.00    +0.000 A 
BRANCH  28  29
ATOM     29  C   UNL     1       1.496   8.378  19.774  0.00  0.00    +0.000 A 
ATOM     30  C   UNL     1       1.721   8.912  18.496  0.00  0.00    +0.000 A 
ATOM     31  C   UNL     1       2.616   8.328  17.594  0.00  0.00    +0.000 A 
ATOM     32  C   UNL     1       3.209   7.119  17.909  0.00  0.00    +0.000 A 
ATOM     33  F   UNL     1       4.073   6.564  17.050  0.00  0.00    +0.000 F 
ATOM     34  C   UNL     1       2.906   6.479  19.099  0.00  0.00    +0.000 A 
ATOM     35  C   UNL     1       2.075   7.113  20.032  0.00  0.00    +0.000 A 
ENDBRANCH  28  29
ENDBRANCH  22  23
ENDBRANCH  10  22
TORSDOF 6
ENDMDL
MODEL 5
REMARK VINA RESULT:      -7.5      1.960      2.570
REMARK  Name = 
REMARK  10 active torsions:
REMARK  status: ('A' for Active; 'I' for Inactive)
REMARK    1  A    between atoms: C_1  and  C_2
REMARK    2  A    between atoms: C_3  and  O_4
REMARK    3  A    between atoms: N_11  and  C_12
REMARK    4  A    between atoms: C_12  and  C_13
REMARK    5  A    between atoms: C_18  and  C_19
REMARK    6  A    between atoms: C_26  and  C_27
REMARK    7  A    between atoms: N_29  and  C_30
REMARK    8  A    between atoms: C_30  and  C_31
REMARK    9  A    between atoms: C_30  and  C_32
REMARK   10  A    between atoms: C_30  and  C_33
REMARK                            x       y       z     vdW  Elec       q    Type
REMARK                         _______ _______ _______ _____ _____    ______ ____
ROOT
ATOM      1  C   UNL     1       2.355  15.972  21.787  0.00  0.00    +0.000 C 
ATOM      2  C   UNL     1       1.379  15.929  20.652  0.00  0.00    +0.000 A 
ATOM      3  C   UNL     1       0.644  17.020  20.191  0.00  0.00    +0.000 A 
ATOM      4  C   UNL     1      -0.298  16.881  19.143  0.00  0.00    +0.000 A 
ATOM      5  C   UNL     1      -0.512  15.648  18.519  0.00  0.00    +0.000 A 
ATOM      6  C   UNL     1       0.217  14.560  18.965  0.00  0.00    +0.000 A 
ATOM      7  C   UNL     1       1.144  14.720  19.998  0.00  0.00    +0.000 A 
ATOM      8  C   UNL     1       1.746  13.409  20.272  0.00  0.00    +0.000 C 
ATOM      9  O   UNL     1       2.590  13.216  21.124  0.00  0.00    +0.000 OA
ATOM     10  N   UNL     1       1.164  12.498  19.410  0.00  0.00    +0.000 N 
ATOM     11  C   UNL     1       0.199  13.128  18.499  0.00  0.00    +0.000 C 
ENDROOT
BRANCH  11  12
ATOM     12  C   UNL     1      -1.236  12.554  18.421  0.00  0.00    +0.000 C 
ATOM     13  O   UNL     1      -2.015  12.705  19.362  0.00  0.00    +0.000 OA
ATOM     14  N   UNL     1      -1.544  11.785  17.315  0.00  0.00    +0.000 N 
ATOM     15  H   UNL     1      -0.803  11.620  16.643  0.00  0.00    +0.000 HD
BRANCH  14  16
ATOM     16  C   UNL     1      -2.859  11.149  17.083  0.00  0.00    +0.000 C 
ATOM     17  C   UNL     1      -2.864   9.703  17.612  0.00  0.00    +0.000 C 
ATOM     18  C   UNL     1      -3.933  11.942  17.851  0.00  0.00    +0.000 C 
ATOM     19  C   UNL     1      -3.244  11.158  15.593  0.00  0.00    +0.000 C 
ENDBRANCH  14  16
ENDBRANCH  11  12
BRANCH   3  20
ATOM     20  O   UNL     1       0.737  18.274  20.717  0.00  0.00    +0.000 OA
ATOM     21  H   UNL     1      -0.026  18.459  21.286  0.00  0.00    +0.000 HD
ENDBRANCH   3  20
BRANCH  10  22
ATOM     22  C   UNL     1       1.440  11.070  19.398  0.00  0.00    +0.000 C 
BRANCH  22  23
ATOM     23  C   UNL     1       0.812  10.222  20.500  0.00  0.00    +0.000 A 
ATOM     24  C   UNL     1       0.045  10.950  21.446  0.00  0.00    +0.000 A 
ATOM     25  C   UNL     1      -0.561  10.334  22.536  0.00  0.00    +0.000 A 
ATOM     26  C   UNL     1      -0.422   8.969  22.708  0.00  0.00    +0.000 A 
ATOM     27  C   UNL     1       0.323   8.225  21.786  0.00  0.00    +0.000 A 
ATOM     28  C   UNL     1       0.964   8.812  20.664  0.00  0.00    +0.000 A 
BRANCH  28  29
ATOM     29  C   UNL     1       1.811   7.948  19.784  0.00  0.00    +0.000 A 
ATOM     30  C   UNL     1       2.178   6.644  20.149  0.00  0.00    +0.000 A 
ATOM     31  C   UNL     1       2.777   5.760  19.246  0.00  0.00    +0.000 A 
ATOM     32  C   UNL     1       3.139   6.212  17.990  0.00  0.00    +0.000 A 
ATOM     33  F   UNL     1       3.704   5.365  17.120  0.00  0.00    +0.000 F 
ATOM     34  C   UNL     1       2.929   7.534  17.633  0.00  0.00    +0.000 A 
ATOM     35  C   UNL     1       2.251   8.387  18.514  0.00  0.00    +0.000 A 
ENDBRANCH  28  29
ENDBRANCH  22  23
ENDBRANCH  10  22
TORSDOF 6
ENDMDL
MODEL 6
REMARK VINA RESULT:      -7.4      3.614      7.800
REMARK  Name = 
REMARK  10 active torsions:
REMARK  status: ('A' for Active; 'I' for Inactive)
REMARK    1  A    between atoms: C_1  and  C_2
REMARK    2  A    between atoms: C_3  and  O_4
REMARK    3  A    between atoms: N_11  and  C_12
REMARK    4  A    between atoms: C_12  and  C_13
REMARK    5  A    between atoms: C_18  and  C_19
REMARK    6  A    between atoms: C_26  and  C_27
REMARK    7  A    between atoms: N_29  and  C_30
REMARK    8  A    between atoms: C_30  and  C_31
REMARK    9  A    between atoms: C_30  and  C_32
REMARK   10  A    between atoms: C_30  and  C_33
REMARK                            x       y       z     vdW  Elec       q    Type
REMARK                         _______ _______ _______ _____ _____    ______ ____
ROOT
ATOM      1  C   UNL     1      -0.061   9.392  23.408  0.00  0.00    +0.000 C 
ATOM      2  C   UNL     1       0.109   9.693  21.951  0.00  0.00    +0.000 A 
ATOM      3  C   UNL     1       0.939   8.986  21.082  0.00  0.00    +0.000 A 
ATOM      4  C   UNL     1       1.081   9.369  19.727  0.00  0.00    +0.000 A 
ATOM      5  C   UNL     1       0.381  10.462  19.205  0.00  0.00    +0.000 A 
ATOM      6  C   UNL     1      -0.450  11.168  20.057  0.00  0.00    +0.000 A 
ATOM      7  C   UNL     1      -0.579  10.770  21.391  0.00  0.00    +0.000 A 
ATOM      8  C   UNL     1      -1.498  11.703  22.054  0.00  0.00    +0.000 C 
ATOM      9  O   UNL     1      -1.812  11.627  23.225  0.00  0.00    +0.000 OA
ATOM     10  N   UNL     1      -1.888  12.638  21.114  0.00  0.00    +0.000 N 
ATOM     11  C   UNL     1      -1.313  12.372  19.789  0.00  0.00    +0.000 C 
ENDROOT
BRANCH  11  12
ATOM     12  C   UNL     1      -0.534  13.504  19.074  0.00  0.00    +0.000 C 
ATOM     13  O   UNL     1      -0.528  13.569  17.845  0.00  0.00    +0.000 OA
ATOM     14  N   UNL     1       0.224  14.342  19.870  0.00  0.00    +0.000 N 
ATOM     15  H   UNL     1       0.248  14.143  20.863  0.00  0.00    +0.000 HD
BRANCH  14  16
ATOM     16  C   UNL     1       1.038  15.464  19.357  0.00  0.00    +0.000 C 
ATOM     17  C   UNL     1       0.163  16.457  18.570  0.00  0.00    +0.000 C 
ATOM     18  C   UNL     1       1.654  16.215  20.552  0.00  0.00    +0.000 C 
ATOM     19  C   UNL     1       2.194  14.973  18.466  0.00  0.00    +0.000 C 
ENDBRANCH  14  16
ENDBRANCH  11  12
BRANCH   3  20
ATOM     20  O   UNL     1       1.692   7.914  21.458  0.00  0.00    +0.000 OA
ATOM     21  H   UNL     1       2.208   8.125  22.251  0.00  0.00    +0.000 HD
ENDBRANCH   3  20
BRANCH  10  22
ATOM     22  C   UNL     1      -2.753  13.777  21.382  0.00  0.00    +0.000 C 
BRANCH  22  23
ATOM     23  C   UNL     1      -4.164  13.486  21.883  0.00  0.00    +0.000 A 
ATOM     24  C   UNL     1      -4.947  12.678  21.019  0.00  0.00    +0.000 A 
ATOM     25  C   UNL     1      -6.269  12.354  21.307  0.00  0.00    +0.000 A 
ATOM     26  C   UNL     1      -6.844  12.825  22.474  0.00  0.00    +0.000 A 
ATOM     27  C   UNL     1      -6.092  13.618  23.349  0.00  0.00    +0.000 A 
ATOM     28  C   UNL     1      -4.744  13.979  23.091  0.00  0.00    +0.000 A 
BRANCH  28  29
ATOM     29  C   UNL     1      -4.051  14.903  24.042  0.00  0.00    +0.000 A 
ATOM     30  C   UNL     1      -2.992  14.477  24.859  0.00  0.00    +0.000 A 
ATOM     31  C   UNL     1      -2.202  15.378  25.580  0.00  0.00    +0.000 A 
ATOM     32  C   UNL     1      -2.541  16.718  25.599  0.00  0.00    +0.000 A 
ATOM     33  F   UNL     1      -1.781  17.583  26.281  0.00  0.00    +0.000 F 
ATOM     34  C   UNL     1      -3.665  17.166  24.924  0.00  0.00    +0.000 A 
ATOM     35  C   UNL     1      -4.400  16.271  24.135  0.00  0.00    +0.000 A 
ENDBRANCH  28  29
ENDBRANCH  22  23
ENDBRANCH  10  22
TORSDOF 6
ENDMDL
MODEL 7
REMARK VINA RESULT:      -7.3      2.321      5.104
REMARK  Name = 
REMARK  10 active torsions:
REMARK  status: ('A' for Active; 'I' for Inactive)
REMARK    1  A    between atoms: C_1  and  C_2
REMARK    2  A    between atoms: C_3  and  O_4
REMARK    3  A    between atoms: N_11  and  C_12
REMARK    4  A    between atoms: C_12  and  C_13
REMARK    5  A    between atoms: C_18  and  C_19
REMARK    6  A    between atoms: C_26  and  C_27
REMARK    7  A    between atoms: N_29  and  C_30
REMARK    8  A    between atoms: C_30  and  C_31
REMARK    9  A    between atoms: C_30  and  C_32
REMARK   10  A    between atoms: C_30  and  C_33
REMARK                            x       y       z     vdW  Elec       q    Type
REMARK                         _______ _______ _______ _____ _____    ______ ____
ROOT
ATOM      1  C   UNL     1      -4.227  10.985  16.555  0.00  0.00    +0.000 C 
ATOM      2  C   UNL     1      -4.707  11.745  17.753  0.00  0.00    +0.000 A 
ATOM      3  C   UNL     1      -5.987  12.279  17.897  0.00  0.00    +0.000 A 
ATOM      4  C   UNL     1      -6.344  13.030  19.042  0.00  0.00    +0.000 A 
ATOM      5  C   UNL     1      -5.432  13.249  20.080  0.00  0.00    +0.000 A 
ATOM      6  C   UNL     1      -4.161  12.718  19.950  0.00  0.00    +0.000 A 
ATOM      7  C   UNL     1      -3.830  11.977  18.813  0.00  0.00    +0.000 A 
ATOM      8  C   UNL     1      -2.427  11.561  18.936  0.00  0.00    +0.000 C 
ATOM      9  O   UNL     1      -1.840  10.903  18.101  0.00  0.00    +0.000 OA
ATOM     10  N   UNL     1      -1.949  12.068  20.130  0.00  0.00    +0.000 N 
ATOM     11  C   UNL     1      -2.982  12.792  20.884  0.00  0.00    +0.000 C 
ENDROOT
BRANCH  11  12
ATOM     12  C   UNL     1      -2.689  14.240  21.346  0.00  0.00    +0.000 C 
ATOM     13  O   UNL     1      -2.847  14.556  22.525  0.00  0.00    +0.000 OA
ATOM     14  N   UNL     1      -2.361  15.156  20.366  0.00  0.00    +0.000 N 
ATOM     15  H   UNL     1      -2.364  14.831  19.406  0.00  0.00    +0.000 HD
BRANCH  14  16
ATOM     16  C   UNL     1      -2.063  16.581  20.625  0.00  0.00    +0.000 C 
ATOM     17  C   UNL     1      -0.953  16.722  21.683  0.00  0.00    +0.000 C 
ATOM     18  C   UNL     1      -1.563  17.227  19.320  0.00  0.00    +0.000 C 
ATOM     19  C   UNL     1      -3.314  17.354  21.081  0.00  0.00    +0.000 C 
ENDBRANCH  14  16
ENDBRANCH  11  12
BRANCH   3  20
ATOM     20  O   UNL     1      -6.968  12.160  16.960  0.00  0.00    +0.000 OA
ATOM     21  H   UNL     1      -7.838  12.308  17.360  0.00  0.00    +0.000 HD
ENDBRANCH   3  20
BRANCH  10  22
ATOM     22  C   UNL     1      -0.581  11.933  20.603  0.00  0.00    +0.000 C 
BRANCH  22  23
ATOM     23  C   UNL     1       0.528  12.503  19.723  0.00  0.00    +0.000 A 
ATOM     24  C   UNL     1       0.511  13.914  19.585  0.00  0.00    +0.000 A 
ATOM     25  C   UNL     1       1.427  14.590  18.785  0.00  0.00    +0.000 A 
ATOM     26  C   UNL     1       2.391  13.871  18.103  0.00  0.00    +0.000 A 
ATOM     27  C   UNL     1       2.437  12.477  18.227  0.00  0.00    +0.000 A 
ATOM     28  C   UNL     1       1.518  11.747  19.026  0.00  0.00    +0.000 A 
BRANCH  28  29
ATOM     29  C   UNL     1       1.592  10.253  19.025  0.00  0.00    +0.000 A 
ATOM     30  C   UNL     1       1.947   9.524  17.880  0.00  0.00    +0.000 A 
ATOM     31  C   UNL     1       2.232   8.155  17.929  0.00  0.00    +0.000 A 
ATOM     32  C   UNL     1       2.038   7.461  19.109  0.00  0.00    +0.000 A 
ATOM     33  F   UNL     1       2.318   6.153  19.160  0.00  0.00    +0.000 F 
ATOM     34  C   UNL     1       1.549   8.110  20.231  0.00  0.00    +0.000 A 
ATOM     35  C   UNL     1       1.349   9.496  20.195  0.00  0.00    +0.000 A 
ENDBRANCH  28  29
ENDBRANCH  22  23
ENDBRANCH  10  22
TORSDOF 6
ENDMDL
MODEL 8
REMARK VINA RESULT:      -7.2      2.586      6.589
REMARK  Name = 
REMARK  10 active torsions:
REMARK  status: ('A' for Active; 'I' for Inactive)
REMARK    1  A    between atoms: C_1  and  C_2
REMARK    2  A    between atoms: C_3  and  O_4
REMARK    3  A    between atoms: N_11  and  C_12
REMARK    4  A    between atoms: C_12  and  C_13
REMARK    5  A    between atoms: C_18  and  C_19
REMARK    6  A    between atoms: C_26  and  C_27
REMARK    7  A    between atoms: N_29  and  C_30
REMARK    8  A    between atoms: C_30  and  C_31
REMARK    9  A    between atoms: C_30  and  C_32
REMARK   10  A    between atoms: C_30  and  C_33
REMARK                            x       y       z     vdW  Elec       q    Type
REMARK                         _______ _______ _______ _____ _____    ______ ____
ROOT
ATOM      1  C   UNL     1      -0.255   9.485  23.451  0.00  0.00    +0.000 C 
ATOM      2  C   UNL     1       0.005   9.777  22.005  0.00  0.00    +0.000 A 
ATOM      3  C   UNL     1       0.953   9.124  21.218  0.00  0.00    +0.000 A 
ATOM      4  C   UNL     1       1.171   9.498  19.871  0.00  0.00    +0.000 A 
ATOM      5  C   UNL     1       0.431  10.524  19.274  0.00  0.00    +0.000 A 
ATOM      6  C   UNL     1      -0.516  11.175  20.044  0.00  0.00    +0.000 A 
ATOM      7  C   UNL     1      -0.718  10.787  21.371  0.00  0.00    +0.000 A 
ATOM      8  C   UNL     1      -1.756  11.655  21.942  0.00  0.00    +0.000 C 
ATOM      9  O   UNL     1      -2.155  11.571  23.087  0.00  0.00    +0.000 OA
ATOM     10  N   UNL     1      -2.143  12.542  20.956  0.00  0.00    +0.000 N 
ATOM     11  C   UNL     1      -1.446  12.303  19.685  0.00  0.00    +0.000 C 
ENDROOT
BRANCH  11  12
ATOM     12  C   UNL     1      -0.704  13.483  19.009  0.00  0.00    +0.000 C 
ATOM     13  O   UNL     1      -0.565  13.506  17.787  0.00  0.00    +0.000 OA
ATOM     14  N   UNL     1      -0.125  14.419  19.844  0.00  0.00    +0.000 N 
ATOM     15  H   UNL     1      -0.194  14.257  20.842  0.00  0.00    +0.000 HD
BRANCH  14  16
ATOM     16  C   UNL     1       0.631  15.599  19.373  0.00  0.00    +0.000 C 
ATOM     17  C   UNL     1       1.078  16.469  20.562  0.00  0.00    +0.000 C 
ATOM     18  C   UNL     1       1.893  15.115  18.635  0.00  0.00    +0.000 C 
ATOM     19  C   UNL     1      -0.191  16.450  18.388  0.00  0.00    +0.000 C 
ENDBRANCH  14  16
ENDBRANCH  11  12
BRANCH   3  20
ATOM     20  O   UNL     1       1.755   8.122  21.673  0.00  0.00    +0.000 OA
ATOM     21  H   UNL     1       1.341   7.259  21.516  0.00  0.00    +0.000 HD
ENDBRANCH   3  20
BRANCH  10  22
ATOM     22  C   UNL     1      -3.111  13.612  21.132  0.00  0.00    +0.000 C 
BRANCH  22  23
ATOM     23  C   UNL     1      -4.511  13.226  21.601  0.00  0.00    +0.000 A 
ATOM     24  C   UNL     1      -4.797  13.554  22.951  0.00  0.00    +0.000 A 
ATOM     25  C   UNL     1      -6.012  13.233  23.548  0.00  0.00    +0.000 A 
ATOM     26  C   UNL     1      -6.980  12.579  22.807  0.00  0.00    +0.000 A 
ATOM     27  C   UNL     1      -6.727  12.250  21.470  0.00  0.00    +0.000 A 
ATOM     28  C   UNL     1      -5.500  12.552  20.824  0.00  0.00    +0.000 A 
BRANCH  28  29
ATOM     29  C   UNL     1      -5.291  12.081  19.419  0.00  0.00    +0.000 A 
ATOM     30  C   UNL     1      -5.868  12.735  18.319  0.00  0.00    +0.000 A 
ATOM     31  C   UNL     1      -5.502  12.439  17.003  0.00  0.00    +0.000 A 
ATOM     32  C   UNL     1      -4.641  11.385  16.756  0.00  0.00    +0.000 A 
ATOM     33  F   UNL     1      -4.282  11.105  15.497  0.00  0.00    +0.000 F 
ATOM     34  C   UNL     1      -4.157  10.616  17.802  0.00  0.00    +0.000 A 
ATOM     35  C   UNL     1      -4.462  10.975  19.121  0.00  0.00    +0.000 A 
ENDBRANCH  28  29
ENDBRANCH  22  23
ENDBRANCH  10  22
TORSDOF 6
ENDMDL
MODEL 9
REMARK VINA RESULT:      -7.2      3.548      7.568
REMARK  Name = 
REMARK  10 active torsions:
REMARK  status: ('A' for Active; 'I' for Inactive)
REMARK    1  A    between atoms: C_1  and  C_2
REMARK    2  A    between atoms: C_3  and  O_4
REMARK    3  A    between atoms: N_11  and  C_12
REMARK    4  A    between atoms: C_12  and  C_13
REMARK    5  A    between atoms: C_18  and  C_19
REMARK    6  A    between atoms: C_26  and  C_27
REMARK    7  A    between atoms: N_29  and  C_30
REMARK    8  A    between atoms: C_30  and  C_31
REMARK    9  A    between atoms: C_30  and  C_32
REMARK   10  A    between atoms: C_30  and  C_33
REMARK                            x       y       z     vdW  Elec       q    Type
REMARK                         _______ _______ _______ _____ _____    ______ ____
ROOT
ATOM      1  C   UNL     1      -0.007   9.189  23.140  0.00  0.00    +0.000 C 
ATOM      2  C   UNL     1       0.236   9.536  21.703  0.00  0.00    +0.000 A 
ATOM      3  C   UNL     1       1.042   8.806  20.832  0.00  0.00    +0.000 A 
ATOM      4  C   UNL     1       1.259   9.233  19.500  0.00  0.00    +0.000 A 
ATOM      5  C   UNL     1       0.658  10.395  19.004  0.00  0.00    +0.000 A 
ATOM      6  C   UNL     1      -0.149  11.124  19.858  0.00  0.00    +0.000 A 
ATOM      7  C   UNL     1      -0.353  10.682  21.168  0.00  0.00    +0.000 A 
ATOM      8  C   UNL     1      -1.226  11.653  21.842  0.00  0.00    +0.000 C 
ATOM      9  O   UNL     1      -1.585  11.552  22.998  0.00  0.00    +0.000 OA
ATOM     10  N   UNL     1      -1.514  12.651  20.931  0.00  0.00    +0.000 N 
ATOM     11  C   UNL     1      -0.913  12.399  19.615  0.00  0.00    +0.000 C 
ENDROOT
BRANCH  11  12
ATOM     12  C   UNL     1      -0.031  13.499  18.975  0.00  0.00    +0.000 C 
ATOM     13  O   UNL     1      -0.277  13.908  17.841  0.00  0.00    +0.000 OA
ATOM     14  N   UNL     1       1.085  13.899  19.686  0.00  0.00    +0.000 N 
ATOM     15  H   UNL     1       1.272  13.425  20.563  0.00  0.00    +0.000 HD
BRANCH  14  16
ATOM     16  C   UNL     1       2.043  14.925  19.222  0.00  0.00    +0.000 C 
ATOM     17  C   UNL     1       2.839  14.417  18.006  0.00  0.00    +0.000 C 
ATOM     18  C   UNL     1       1.256  16.175  18.788  0.00  0.00    +0.000 C 
ATOM     19  C   UNL     1       3.015  15.347  20.339  0.00  0.00    +0.000 C 
ENDBRANCH  14  16
ENDBRANCH  11  12
BRANCH   3  20
ATOM     20  O   UNL     1       1.703   7.668  21.184  0.00  0.00    +0.000 OA
ATOM     21  H   UNL     1       2.601   7.877  21.484  0.00  0.00    +0.000 HD
ENDBRANCH   3  20
BRANCH  10  22
ATOM     22  C   UNL     1      -2.304  13.838  21.220  0.00  0.00    +0.000 C 
BRANCH  22  23
ATOM     23  C   UNL     1      -1.887  14.686  22.418  0.00  0.00    +0.000 A 
ATOM     24  C   UNL     1      -0.604  15.281  22.309  0.00  0.00    +0.000 A 
ATOM     25  C   UNL     1      -0.057  16.050  23.330  0.00  0.00    +0.000 A 
ATOM     26  C   UNL     1      -0.782  16.252  24.490  0.00  0.00    +0.000 A 
ATOM     27  C   UNL     1      -2.055  15.684  24.622  0.00  0.00    +0.000 A 
ATOM     28  C   UNL     1      -2.649  14.887  23.609  0.00  0.00    +0.000 A 
BRANCH  28  29
ATOM     29  C   UNL     1      -3.975  14.250  23.878  0.00  0.00    +0.000 A 
ATOM     30  C   UNL     1      -5.184  14.856  23.501  0.00  0.00    +0.000 A 
ATOM     31  C   UNL     1      -6.403  14.173  23.548  0.00  0.00    +0.000 A 
ATOM     32  C   UNL     1      -6.454  12.906  24.100  0.00  0.00    +0.000 A 
ATOM     33  F   UNL     1      -7.618  12.247  24.139  0.00  0.00    +0.000 F 
ATOM     34  C   UNL     1      -5.310  12.322  24.620  0.00  0.00    +0.000 A 
ATOM     35  C   UNL     1      -4.079  12.979  24.490  0.00  0.00    +0.000 A 
ENDBRANCH  28  29
ENDBRANCH  22  23
ENDBRANCH  10  22
TORSDOF 6
ENDMDL
