MODEL 1
REMARK VINA RESULT:      -7.1      0.000      0.000
REMARK  Name = 
REMARK  7 active torsions:
REMARK  status: ('A' for Active; 'I' for Inactive)
REMARK    1  A    between atoms: C_1  and  C_2
REMARK    2  A    between atoms: C_8  and  N_9
REMARK    3  A    between atoms: N_9  and  C_10
REMARK    4  A    between atoms: N_9  and  S_13
REMARK    5  A    between atoms: C_10  and  C_11
REMARK    6  A    between atoms: C_11  and  O_12
REMARK    7  A    between atoms: S_13  and  C_16
REMARK                            x       y       z     vdW  Elec       q    Type
REMARK                         _______ _______ _______ _____ _____    ______ ____
ROOT
ATOM      1  N   UNL     1       3.298   4.612  18.604  0.00  0.00    +0.000 N 
ENDROOT
BRANCH   1   9
ATOM      2  C   UNL     1       1.698   5.642  20.933  0.00  0.00    +0.000 C 
ATOM      3  C   UNL     1       2.135   6.491  19.769  0.00  0.00    +0.000 A 
ATOM      4  C   UNL     1       1.706   7.837  19.763  0.00  0.00    +0.000 A 
ATOM      5  C   UNL     1       2.019   8.680  18.703  0.00  0.00    +0.000 A 
ATOM      6 CL   UNL     1       1.425  10.296  18.688  0.00  0.00    +0.000 Cl
ATOM      7  C   UNL     1       2.788   8.211  17.644  0.00  0.00    +0.000 A 
ATOM      8  C   UNL     1       3.239   6.884  17.642  0.00  0.00    +0.000 A 
ATOM      9  C   UNL     1       2.898   6.005  18.676  0.00  0.00    +0.000 A 
ENDBRANCH   1   9
BRANCH   1  10
ATOM     10  S   UNL     1       4.958   4.213  18.913  0.00  0.00    +0.000 S 
ATOM     11  O   UNL     1       5.491   5.160  19.866  0.00  0.00    +0.000 OA
ATOM     12  O   UNL     1       4.982   2.799  19.223  0.00  0.00    +0.000 OA
BRANCH  10  13
ATOM     13  C   UNL     1       5.863   4.503  17.385  0.00  0.00    +0.000 A 
ATOM     14  C   UNL     1       5.276   4.001  16.207  0.00  0.00    +0.000 A 
ATOM     15  C   UNL     1       5.811   4.302  14.954  0.00  0.00    +0.000 A 
ATOM     16 CL   UNL     1       5.086   3.653  13.538  0.00  0.00    +0.000 Cl
ATOM     17  C   UNL     1       6.914   5.140  14.840  0.00  0.00    +0.000 A 
ATOM     18  C   UNL     1       7.492   5.661  15.996  0.00  0.00    +0.000 A 
ATOM     19  C   UNL     1       6.981   5.344  17.273  0.00  0.00    +0.000 A 
ATOM     20 CL   UNL     1       7.823   6.076  18.586  0.00  0.00    +0.000 Cl
ENDBRANCH  10  13
ENDBRANCH   1  10
BRANCH   1  21
ATOM     21  C   UNL     1       2.630   3.678  17.635  0.00  0.00    +0.000 C 
BRANCH  21  22
ATOM     22  C   UNL     1       1.698   2.626  18.248  0.00  0.00    +0.000 C 
BRANCH  22  23
ATOM     23  O   UNL     1       2.371   1.414  18.570  0.00  0.00    +0.000 OA
ATOM     24  H   UNL     1       3.292   1.513  18.264  0.00  0.00    +0.000 HD
ENDBRANCH  22  23
ENDBRANCH  21  22
ENDBRANCH   1  21
TORSDOF 6
ENDMDL
MODEL 2
REMARK VINA RESULT:      -6.9      2.401      5.384
REMARK  Name = 
REMARK  7 active torsions:
REMARK  status: ('A' for Active; 'I' for Inactive)
REMARK    1  A    between atoms: C_1  and  C_2
REMARK    2  A    between atoms: C_8  and  N_9
REMARK    3  A    between atoms: N_9  and  C_10
REMARK    4  A    between atoms: N_9  and  S_13
REMARK    5  A    between atoms: C_10  and  C_11
REMARK    6  A    between atoms: C_11  and  O_12
REMARK    7  A    between atoms: S_13  and  C_16
REMARK                            x       y       z     vdW  Elec       q    Type
REMARK                         _______ _______ _______ _____ _____    ______ ____
ROOT
ATOM      1  N   UNL     1       5.129   4.317  17.202  0.00  0.00    +0.000 N 
ENDROOT
BRANCH   1   9
ATOM      2  C   UNL     1       4.870   6.977  15.822  0.00  0.00    +0.000 C 
ATOM      3  C   UNL     1       5.874   6.683  16.906  0.00  0.00    +0.000 A 
ATOM      4  C   UNL     1       6.777   7.717  17.237  0.00  0.00    +0.000 A 
ATOM      5  C   UNL     1       7.770   7.518  18.190  0.00  0.00    +0.000 A 
ATOM      6 CL   UNL     1       8.901   8.771  18.525  0.00  0.00    +0.000 Cl
ATOM      7  C   UNL     1       7.865   6.299  18.851  0.00  0.00    +0.000 A 
ATOM      8  C   UNL     1       6.965   5.268  18.549  0.00  0.00    +0.000 A 
ATOM      9  C   UNL     1       5.987   5.431  17.561  0.00  0.00    +0.000 A 
ENDBRANCH   1   9
BRANCH   1  10
ATOM     10  S   UNL     1       4.215   3.541  18.456  0.00  0.00    +0.000 S 
ATOM     11  O   UNL     1       3.221   2.690  17.844  0.00  0.00    +0.000 OA
ATOM     12  O   UNL     1       5.185   2.966  19.365  0.00  0.00    +0.000 OA
BRANCH  10  13
ATOM     13  C   UNL     1       3.292   4.828  19.309  0.00  0.00    +0.000 A 
ATOM     14  C   UNL     1       3.177   6.062  18.640  0.00  0.00    +0.000 A 
ATOM     15  C   UNL     1       2.356   7.075  19.137  0.00  0.00    +0.000 A 
ATOM     16 CL   UNL     1       2.258   8.578  18.309  0.00  0.00    +0.000 Cl
ATOM     17  C   UNL     1       1.600   6.871  20.285  0.00  0.00    +0.000 A 
ATOM     18  C   UNL     1       1.688   5.647  20.946  0.00  0.00    +0.000 A 
ATOM     19  C   UNL     1       2.535   4.622  20.473  0.00  0.00    +0.000 A 
ATOM     20 CL   UNL     1       2.516   3.182  21.417  0.00  0.00    +0.000 Cl
ENDBRANCH  10  13
ENDBRANCH   1  10
BRANCH   1  21
ATOM     21  C   UNL     1       5.513   3.391  16.083  0.00  0.00    +0.000 C 
BRANCH  21  22
ATOM     22  C   UNL     1       6.546   3.933  15.087  0.00  0.00    +0.000 C 
BRANCH  22  23
ATOM     23  O   UNL     1       6.424   3.349  13.794  0.00  0.00    +0.000 OA
ATOM     24  H   UNL     1       5.490   3.090  13.689  0.00  0.00    +0.000 HD
ENDBRANCH  22  23
ENDBRANCH  21  22
ENDBRANCH   1  21
TORSDOF 6
ENDMDL
MODEL 3
REMARK VINA RESULT:      -6.9      2.221      5.300
REMARK  Name = 
REMARK  7 active torsions:
REMARK  status: ('A' for Active; 'I' for Inactive)
REMARK    1  A    between atoms: C_1  and  C_2
REMARK    2  A    between atoms: C_8  and  N_9
REMARK    3  A    between atoms: N_9  and  C_10
REMARK    4  A    between atoms: N_9  and  S_13
REMARK    5  A    between atoms: C_10  and  C_11
REMARK    6  A    between atoms: C_11  and  O_12
REMARK    7  A    between atoms: S_13  and  C_16
REMARK                            x       y       z     vdW  Elec       q    Type
REMARK                         _______ _______ _______ _____ _____    ______ ____
ROOT
ATOM      1  N   UNL     1       3.791   3.139  17.869  0.00  0.00    +0.000 N 
ENDROOT
BRANCH   1   9
ATOM      2  C   UNL     1       5.129   4.277  15.428  0.00  0.00    +0.000 C 
ATOM      3  C   UNL     1       5.476   4.669  16.840  0.00  0.00    +0.000 A 
ATOM      4  C   UNL     1       6.538   5.586  17.007  0.00  0.00    +0.000 A 
ATOM      5  C   UNL     1       6.960   5.965  18.276  0.00  0.00    +0.000 A 
ATOM      6 CL   UNL     1       8.301   7.029  18.452  0.00  0.00    +0.000 Cl
ATOM      7  C   UNL     1       6.317   5.464  19.401  0.00  0.00    +0.000 A 
ATOM      8  C   UNL     1       5.248   4.568  19.256  0.00  0.00    +0.000 A 
ATOM      9  C   UNL     1       4.837   4.138  17.989  0.00  0.00    +0.000 A 
ENDBRANCH   1   9
BRANCH   1  10
ATOM     10  S   UNL     1       2.140   3.651  18.012  0.00  0.00    +0.000 S 
ATOM     11  O   UNL     1       1.636   3.962  16.694  0.00  0.00    +0.000 OA
ATOM     12  O   UNL     1       1.473   2.644  18.812  0.00  0.00    +0.000 OA
BRANCH  10  13
ATOM     13  C   UNL     1       2.148   5.212  18.908  0.00  0.00    +0.000 A 
ATOM     14  C   UNL     1       2.185   6.381  18.125  0.00  0.00    +0.000 A 
ATOM     15  C   UNL     1       2.039   7.640  18.707  0.00  0.00    +0.000 A 
ATOM     16 CL   UNL     1       2.114   9.049  17.725  0.00  0.00    +0.000 Cl
ATOM     17  C   UNL     1       1.813   7.765  20.072  0.00  0.00    +0.000 A 
ATOM     18  C   UNL     1       1.753   6.615  20.857  0.00  0.00    +0.000 A 
ATOM     19  C   UNL     1       1.927   5.334  20.288  0.00  0.00    +0.000 A 
ATOM     20 CL   UNL     1       1.823   4.031  21.410  0.00  0.00    +0.000 Cl
ENDBRANCH  10  13
ENDBRANCH   1  10
BRANCH   1  21
ATOM     21  C   UNL     1       4.023   1.733  18.346  0.00  0.00    +0.000 C 
BRANCH  21  22
ATOM     22  C   UNL     1       4.106   1.543  19.865  0.00  0.00    +0.000 C 
BRANCH  22  23
ATOM     23  O   UNL     1       5.436   1.317  20.321  0.00  0.00    +0.000 OA
ATOM     24  H   UNL     1       5.398   0.565  20.939  0.00  0.00    +0.000 HD
ENDBRANCH  22  23
ENDBRANCH  21  22
ENDBRANCH   1  21
TORSDOF 6
ENDMDL
MODEL 4
REMARK VINA RESULT:      -6.7      1.096      1.188
REMARK  Name = 
REMARK  7 active torsions:
REMARK  status: ('A' for Active; 'I' for Inactive)
REMARK    1  A    between atoms: C_1  and  C_2
REMARK    2  A    between atoms: C_8  and  N_9
REMARK    3  A    between atoms: N_9  and  C_10
REMARK    4  A    between atoms: N_9  and  S_13
REMARK    5  A    between atoms: C_10  and  C_11
REMARK    6  A    between atoms: C_11  and  O_12
REMARK    7  A    between atoms: S_13  and  C_16
REMARK                            x       y       z     vdW  Elec       q    Type
REMARK                         _______ _______ _______ _____ _____    ______ ____
ROOT
ATOM      1  N   UNL     1       2.724   3.763  18.720  0.00  0.00    +0.000 N 
ENDROOT
BRANCH   1   9
ATOM      2  C   UNL     1       2.067   5.082  21.342  0.00  0.00    +0.000 C 
ATOM      3  C   UNL     1       2.265   5.828  20.049  0.00  0.00    +0.000 A 
ATOM      4  C   UNL     1       2.068   7.226  20.082  0.00  0.00    +0.000 A 
ATOM      5  C   UNL     1       2.180   7.989  18.924  0.00  0.00    +0.000 A 
ATOM      6 CL   UNL     1       1.866   9.681  18.979  0.00  0.00    +0.000 Cl
ATOM      7  C   UNL     1       2.517   7.382  17.721  0.00  0.00    +0.000 A 
ATOM      8  C   UNL     1       2.735   5.998  17.673  0.00  0.00    +0.000 A 
ATOM      9  C   UNL     1       2.584   5.205  18.816  0.00  0.00    +0.000 A 
ENDBRANCH   1   9
BRANCH   1  10
ATOM     10  S   UNL     1       4.318   3.083  18.778  0.00  0.00    +0.000 S 
ATOM     11  O   UNL     1       4.907   3.394  20.061  0.00  0.00    +0.000 OA
ATOM     12  O   UNL     1       4.181   1.699  18.373  0.00  0.00    +0.000 OA
BRANCH  10  13
ATOM     13  C   UNL     1       5.311   3.963  17.564  0.00  0.00    +0.000 A 
ATOM     14  C   UNL     1       5.051   3.668  16.212  0.00  0.00    +0.000 A 
ATOM     15  C   UNL     1       5.651   4.402  15.188  0.00  0.00    +0.000 A 
ATOM     16 CL   UNL     1       5.332   4.000  13.548  0.00  0.00    +0.000 Cl
ATOM     17  C   UNL     1       6.490   5.470  15.483  0.00  0.00    +0.000 A 
ATOM     18  C   UNL     1       6.740   5.787  16.817  0.00  0.00    +0.000 A 
ATOM     19  C   UNL     1       6.163   5.037  17.865  0.00  0.00    +0.000 A 
ATOM     20 CL   UNL     1       6.586   5.572  19.447  0.00  0.00    +0.000 Cl
ENDBRANCH  10  13
ENDBRANCH   1  10
BRANCH   1  21
ATOM     21  C   UNL     1       1.761   2.960  17.892  0.00  0.00    +0.000 C 
BRANCH  21  22
ATOM     22  C   UNL     1       0.762   2.096  18.672  0.00  0.00    +0.000 C 
BRANCH  22  23
ATOM     23  O   UNL     1       0.005   2.845  19.616  0.00  0.00    +0.000 OA
ATOM     24  H   UNL     1       0.253   2.518  20.500  0.00  0.00    +0.000 HD
ENDBRANCH  22  23
ENDBRANCH  21  22
ENDBRANCH   1  21
TORSDOF 6
ENDMDL
MODEL 5
REMARK VINA RESULT:      -6.4      2.257      5.483
REMARK  Name = 
REMARK  7 active torsions:
REMARK  status: ('A' for Active; 'I' for Inactive)
REMARK    1  A    between atoms: C_1  and  C_2
REMARK    2  A    between atoms: C_8  and  N_9
REMARK    3  A    between atoms: N_9  and  C_10
REMARK    4  A    between atoms: N_9  and  S_13
REMARK    5  A    between atoms: C_10  and  C_11
REMARK    6  A    between atoms: C_11  and  O_12
REMARK    7  A    between atoms: S_13  and  C_16
REMARK                            x       y       z     vdW  Elec       q    Type
REMARK                         _______ _______ _______ _____ _____    ______ ____
ROOT
ATOM      1  N   UNL     1       4.279   3.299  18.074  0.00  0.00    +0.000 N 
ENDROOT
BRANCH   1   9
ATOM      2  C   UNL     1       6.045   5.671  18.621  0.00  0.00    +0.000 C 
ATOM      3  C   UNL     1       5.995   4.943  17.304  0.00  0.00    +0.000 A 
ATOM      4  C   UNL     1       6.791   5.459  16.257  0.00  0.00    +0.000 A 
ATOM      5  C   UNL     1       6.768   4.881  14.993  0.00  0.00    +0.000 A 
ATOM      6 CL   UNL     1       7.695   5.573  13.718  0.00  0.00    +0.000 Cl
ATOM      7  C   UNL     1       5.977   3.765  14.752  0.00  0.00    +0.000 A 
ATOM      8  C   UNL     1       5.195   3.226  15.783  0.00  0.00    +0.000 A 
ATOM      9  C   UNL     1       5.168   3.819  17.051  0.00  0.00    +0.000 A 
ENDBRANCH   1   9
BRANCH   1  10
ATOM     10  S   UNL     1       2.601   3.737  18.009  0.00  0.00    +0.000 S 
ATOM     11  O   UNL     1       2.256   4.041  16.639  0.00  0.00    +0.000 OA
ATOM     12  O   UNL     1       1.884   2.694  18.711  0.00  0.00    +0.000 OA
BRANCH  10  13
ATOM     13  C   UNL     1       2.427   5.287  18.906  0.00  0.00    +0.000 A 
ATOM     14  C   UNL     1       2.480   6.464  18.136  0.00  0.00    +0.000 A 
ATOM     15  C   UNL     1       2.202   7.707  18.705  0.00  0.00    +0.000 A 
ATOM     16 CL   UNL     1       2.300   9.128  17.743  0.00  0.00    +0.000 Cl
ATOM     17  C   UNL     1       1.826   7.805  20.039  0.00  0.00    +0.000 A 
ATOM     18  C   UNL     1       1.749   6.646  20.809  0.00  0.00    +0.000 A 
ATOM     19  C   UNL     1       2.054   5.383  20.256  0.00  0.00    +0.000 A 
ATOM     20 CL   UNL     1       1.906   4.064  21.355  0.00  0.00    +0.000 Cl
ENDBRANCH  10  13
ENDBRANCH   1  10
BRANCH   1  21
ATOM     21  C   UNL     1       4.780   3.062  19.470  0.00  0.00    +0.000 C 
BRANCH  21  22
ATOM     22  C   UNL     1       4.729   1.612  19.966  0.00  0.00    +0.000 C 
BRANCH  22  23
ATOM     23  O   UNL     1       4.389   0.689  18.937  0.00  0.00    +0.000 OA
ATOM     24  H   UNL     1       5.217   0.250  18.669  0.00  0.00    +0.000 HD
ENDBRANCH  22  23
ENDBRANCH  21  22
ENDBRANCH   1  21
TORSDOF 6
ENDMDL
MODEL 6
REMARK VINA RESULT:      -6.4      1.232      2.492
REMARK  Name = 
REMARK  7 active torsions:
REMARK  status: ('A' for Active; 'I' for Inactive)
REMARK    1  A    between atoms: C_1  and  C_2
REMARK    2  A    between atoms: C_8  and  N_9
REMARK    3  A    between atoms: N_9  and  C_10
REMARK    4  A    between atoms: N_9  and  S_13
REMARK    5  A    between atoms: C_10  and  C_11
REMARK    6  A    between atoms: C_11  and  O_12
REMARK    7  A    between atoms: S_13  and  C_16
REMARK                            x       y       z     vdW  Elec       q    Type
REMARK                         _______ _______ _______ _____ _____    ______ ____
ROOT
ATOM      1  N   UNL     1       2.711   3.786  18.708  0.00  0.00    +0.000 N 
ENDROOT
BRANCH   1   9
ATOM      2  C   UNL     1       2.168   4.866  21.462  0.00  0.00    +0.000 C 
ATOM      3  C   UNL     1       2.242   5.718  20.222  0.00  0.00    +0.000 A 
ATOM      4  C   UNL     1       1.980   7.097  20.377  0.00  0.00    +0.000 A 
ATOM      5  C   UNL     1       1.977   7.950  19.278  0.00  0.00    +0.000 A 
ATOM      6 CL   UNL     1       1.586   9.613  19.486  0.00  0.00    +0.000 Cl
ATOM      7  C   UNL     1       2.263   7.454  18.012  0.00  0.00    +0.000 A 
ATOM      8  C   UNL     1       2.544   6.091  17.842  0.00  0.00    +0.000 A 
ATOM      9  C   UNL     1       2.508   5.207  18.926  0.00  0.00    +0.000 A 
ENDBRANCH   1   9
BRANCH   1  10
ATOM     10  S   UNL     1       4.336   3.185  18.644  0.00  0.00    +0.000 S 
ATOM     11  O   UNL     1       4.840   3.068  19.993  0.00  0.00    +0.000 OA
ATOM     12  O   UNL     1       4.300   2.014  17.792  0.00  0.00    +0.000 OA
BRANCH  10  13
ATOM     13  C   UNL     1       5.338   4.458  17.862  0.00  0.00    +0.000 A 
ATOM     14  C   UNL     1       6.273   5.112  18.687  0.00  0.00    +0.000 A 
ATOM     15  C   UNL     1       7.204   6.003  18.152  0.00  0.00    +0.000 A 
ATOM     16 CL   UNL     1       8.315   6.803  19.191  0.00  0.00    +0.000 Cl
ATOM     17  C   UNL     1       7.255   6.233  16.783  0.00  0.00    +0.000 A 
ATOM     18  C   UNL     1       6.350   5.577  15.951  0.00  0.00    +0.000 A 
ATOM     19  C   UNL     1       5.383   4.694  16.479  0.00  0.00    +0.000 A 
ATOM     20 CL   UNL     1       4.348   3.976  15.303  0.00  0.00    +0.000 Cl
ENDBRANCH  10  13
ENDBRANCH   1  10
BRANCH   1  21
ATOM     21  C   UNL     1       1.750   3.002  17.860  0.00  0.00    +0.000 C 
BRANCH  21  22
ATOM     22  C   UNL     1       0.747   2.123  18.618  0.00  0.00    +0.000 C 
BRANCH  22  23
ATOM     23  O   UNL     1       0.096   2.816  19.677  0.00  0.00    +0.000 OA
ATOM     24  H   UNL     1      -0.651   2.258  19.961  0.00  0.00    +0.000 HD
ENDBRANCH  22  23
ENDBRANCH  21  22
ENDBRANCH   1  21
TORSDOF 6
ENDMDL
MODEL 7
REMARK VINA RESULT:      -6.4      0.701      1.576
REMARK  Name = 
REMARK  7 active torsions:
REMARK  status: ('A' for Active; 'I' for Inactive)
REMARK    1  A    between atoms: C_1  and  C_2
REMARK    2  A    between atoms: C_8  and  N_9
REMARK    3  A    between atoms: N_9  and  C_10
REMARK    4  A    between atoms: N_9  and  S_13
REMARK    5  A    between atoms: C_10  and  C_11
REMARK    6  A    between atoms: C_11  and  O_12
REMARK    7  A    between atoms: S_13  and  C_16
REMARK                            x       y       z     vdW  Elec       q    Type
REMARK                         _______ _______ _______ _____ _____    ______ ____
ROOT
ATOM      1  N   UNL     1       3.348   4.511  18.723  0.00  0.00    +0.000 N 
ENDROOT
BRANCH   1   9
ATOM      2  C   UNL     1       3.645   7.041  17.122  0.00  0.00    +0.000 C 
ATOM      3  C   UNL     1       2.852   6.938  18.399  0.00  0.00    +0.000 A 
ATOM      4  C   UNL     1       2.270   8.129  18.887  0.00  0.00    +0.000 A 
ATOM      5  C   UNL     1       1.564   8.139  20.085  0.00  0.00    +0.000 A 
ATOM      6 CL   UNL     1       0.924   9.617  20.691  0.00  0.00    +0.000 Cl
ATOM      7  C   UNL     1       1.400   6.962  20.804  0.00  0.00    +0.000 A 
ATOM      8  C   UNL     1       1.954   5.766  20.326  0.00  0.00    +0.000 A 
ATOM      9  C   UNL     1       2.706   5.742  19.146  0.00  0.00    +0.000 A 
ENDBRANCH   1   9
BRANCH   1  10
ATOM     10  S   UNL     1       5.042   4.312  19.041  0.00  0.00    +0.000 S 
ATOM     11  O   UNL     1       5.476   5.376  19.917  0.00  0.00    +0.000 OA
ATOM     12  O   UNL     1       5.216   2.934  19.450  0.00  0.00    +0.000 OA
BRANCH  10  13
ATOM     13  C   UNL     1       5.905   4.584  17.486  0.00  0.00    +0.000 A 
ATOM     14  C   UNL     1       5.325   4.008  16.340  0.00  0.00    +0.000 A 
ATOM     15  C   UNL     1       5.823   4.284  15.066  0.00  0.00    +0.000 A 
ATOM     16 CL   UNL     1       5.107   3.545  13.690  0.00  0.00    +0.000 Cl
ATOM     17  C   UNL     1       6.881   5.169  14.899  0.00  0.00    +0.000 A 
ATOM     18  C   UNL     1       7.452   5.764  16.023  0.00  0.00    +0.000 A 
ATOM     19  C   UNL     1       6.979   5.473  17.321  0.00  0.00    +0.000 A 
ATOM     20 CL   UNL     1       7.806   6.298  18.587  0.00  0.00    +0.000 Cl
ENDBRANCH  10  13
ENDBRANCH   1  10
BRANCH   1  21
ATOM     21  C   UNL     1       2.886   3.800  17.483  0.00  0.00    +0.000 C 
BRANCH  21  22
ATOM     22  C   UNL     1       2.221   2.435  17.699  0.00  0.00    +0.000 C 
BRANCH  22  23
ATOM     23  O   UNL     1       3.157   1.411  18.022  0.00  0.00    +0.000 OA
ATOM     24  H   UNL     1       2.898   1.058  18.893  0.00  0.00    +0.000 HD
ENDBRANCH  22  23
ENDBRANCH  21  22
ENDBRANCH   1  21
TORSDOF 6
ENDMDL
MODEL 8
REMARK VINA RESULT:      -6.3      3.084      4.691
REMARK  Name = 
REMARK  7 active torsions:
REMARK  status: ('A' for Active; 'I' for Inactive)
REMARK    1  A    between atoms: C_1  and  C_2
REMARK    2  A    between atoms: C_8  and  N_9
REMARK    3  A    between atoms: N_9  and  C_10
REMARK    4  A    between atoms: N_9  and  S_13
REMARK    5  A    between atoms: C_10  and  C_11
REMARK    6  A    between atoms: C_11  and  O_12
REMARK    7  A    between atoms: S_13  and  C_16
REMARK                            x       y       z     vdW  Elec       q    Type
REMARK                         _______ _______ _______ _____ _____    ______ ____
ROOT
ATOM      1  N   UNL     1       3.346   6.380  17.597  0.00  0.00    +0.000 N 
ENDROOT
BRANCH   1   9
ATOM      2  C   UNL     1       1.209   4.372  16.927  0.00  0.00    +0.000 C 
ATOM      3  C   UNL     1       1.873   4.480  18.275  0.00  0.00    +0.000 A 
ATOM      4  C   UNL     1       1.406   3.613  19.288  0.00  0.00    +0.000 A 
ATOM      5  C   UNL     1       1.926   3.678  20.576  0.00  0.00    +0.000 A 
ATOM      6 CL   UNL     1       1.291   2.658  21.809  0.00  0.00    +0.000 Cl
ATOM      7  C   UNL     1       2.937   4.583  20.874  0.00  0.00    +0.000 A 
ATOM      8  C   UNL     1       3.427   5.438  19.876  0.00  0.00    +0.000 A 
ATOM      9  C   UNL     1       2.887   5.421  18.585  0.00  0.00    +0.000 A 
ENDBRANCH   1   9
BRANCH   1  10
ATOM     10  S   UNL     1       4.664   5.933  16.562  0.00  0.00    +0.000 S 
ATOM     11  O   UNL     1       4.604   4.508  16.327  0.00  0.00    +0.000 OA
ATOM     12  O   UNL     1       4.622   6.844  15.437  0.00  0.00    +0.000 OA
BRANCH  10  13
ATOM     13  C   UNL     1       6.180   6.205  17.492  0.00  0.00    +0.000 A 
ATOM     14  C   UNL     1       6.799   7.458  17.324  0.00  0.00    +0.000 A 
ATOM     15  C   UNL     1       7.889   7.833  18.111  0.00  0.00    +0.000 A 
ATOM     16 CL   UNL     1       8.637   9.360  17.862  0.00  0.00    +0.000 Cl
ATOM     17  C   UNL     1       8.361   6.989  19.109  0.00  0.00    +0.000 A 
ATOM     18  C   UNL     1       7.744   5.754  19.302  0.00  0.00    +0.000 A 
ATOM     19  C   UNL     1       6.659   5.348  18.495  0.00  0.00    +0.000 A 
ATOM     20 CL   UNL     1       6.026   3.792  18.875  0.00  0.00    +0.000 Cl
ENDBRANCH  10  13
ENDBRANCH   1  10
BRANCH   1  21
ATOM     21  C   UNL     1       3.284   7.854  17.881  0.00  0.00    +0.000 C 
BRANCH  21  22
ATOM     22  C   UNL     1       1.887   8.486  17.859  0.00  0.00    +0.000 C 
BRANCH  22  23
ATOM     23  O   UNL     1       1.893   9.820  17.362  0.00  0.00    +0.000 OA
ATOM     24  H   UNL     1       1.365   9.817  16.542  0.00  0.00    +0.000 HD
ENDBRANCH  22  23
ENDBRANCH  21  22
ENDBRANCH   1  21
TORSDOF 6
ENDMDL
MODEL 9
REMARK VINA RESULT:      -6.3      1.675      2.709
REMARK  Name = 
REMARK  7 active torsions:
REMARK  status: ('A' for Active; 'I' for Inactive)
REMARK    1  A    between atoms: C_1  and  C_2
REMARK    2  A    between atoms: C_8  and  N_9
REMARK    3  A    between atoms: N_9  and  C_10
REMARK    4  A    between atoms: N_9  and  S_13
REMARK    5  A    between atoms: C_10  and  C_11
REMARK    6  A    between atoms: C_11  and  O_12
REMARK    7  A    between atoms: S_13  and  C_16
REMARK                            x       y       z     vdW  Elec       q    Type
REMARK                         _______ _______ _______ _____ _____    ______ ____
ROOT
ATOM      1  N   UNL     1       2.765   4.410  18.293  0.00  0.00    +0.000 N 
ENDROOT
BRANCH   1   9
ATOM      2  C   UNL     1       2.253   5.304  21.119  0.00  0.00    +0.000 C 
ATOM      3  C   UNL     1       2.263   6.229  19.930  0.00  0.00    +0.000 A 
ATOM      4  C   UNL     1       1.951   7.585  20.173  0.00  0.00    +0.000 A 
ATOM      5  C   UNL     1       1.887   8.500  19.128  0.00  0.00    +0.000 A 
ATOM      6 CL   UNL     1       1.438  10.132  19.443  0.00  0.00    +0.000 Cl
ATOM      7  C   UNL     1       2.157   8.091  17.828  0.00  0.00    +0.000 A 
ATOM      8  C   UNL     1       2.487   6.754  17.569  0.00  0.00    +0.000 A 
ATOM      9  C   UNL     1       2.514   5.807  18.600  0.00  0.00    +0.000 A 
ENDBRANCH   1   9
BRANCH   1  10
ATOM     10  S   UNL     1       4.157   4.013  17.337  0.00  0.00    +0.000 S 
ATOM     11  O   UNL     1       4.671   2.737  17.778  0.00  0.00    +0.000 OA
ATOM     12  O   UNL     1       3.760   4.184  15.955  0.00  0.00    +0.000 OA
BRANCH  10  13
ATOM     13  C   UNL     1       5.434   5.215  17.742  0.00  0.00    +0.000 A 
ATOM     14  C   UNL     1       6.202   4.946  18.891  0.00  0.00    +0.000 A 
ATOM     15  C   UNL     1       7.314   5.726  19.210  0.00  0.00    +0.000 A 
ATOM     16 CL   UNL     1       8.216   5.387  20.634  0.00  0.00    +0.000 Cl
ATOM     17  C   UNL     1       7.713   6.762  18.374  0.00  0.00    +0.000 A 
ATOM     18  C   UNL     1       6.975   7.025  17.222  0.00  0.00    +0.000 A 
ATOM     19  C   UNL     1       5.830   6.265  16.900  0.00  0.00    +0.000 A 
ATOM     20 CL   UNL     1       5.044   6.734  15.441  0.00  0.00    +0.000 Cl
ENDBRANCH  10  13
ENDBRANCH   1  10
BRANCH   1  21
ATOM     21  C   UNL     1       1.621   3.455  18.107  0.00  0.00    +0.000 C 
BRANCH  21  22
ATOM     22  C   UNL     1       1.550   2.289  19.101  0.00  0.00    +0.000 C 
BRANCH  22  23
ATOM     23  O   UNL     1       2.334   1.171  18.696  0.00  0.00    +0.000 OA
ATOM     24  H   UNL     1       1.903   0.378  19.063  0.00  0.00    +0.000 HD
ENDBRANCH  22  23
ENDBRANCH  21  22
ENDBRANCH   1  21
TORSDOF 6
ENDMDL
