MODEL 1
REMARK VINA RESULT:      -8.3      0.000      0.000
REMARK  Name = 
REMARK  10 active torsions:
REMARK  status: ('A' for Active; 'I' for Inactive)
REMARK    1  A    between atoms: C_1  and  C_2
REMARK    2  A    between atoms: C_2  and  N_3
REMARK    3  A    between atoms: C_4  and  S_5
REMARK    4  A    between atoms: N_6  and  C_7
REMARK    5  A    between atoms: N_6  and  C_20
REMARK    6  A    between atoms: C_7  and  C_8
REMARK    7  A    between atoms: C_8  and  C_9
REMARK    8  A    between atoms: C_10  and  C_11
REMARK    9  A    between atoms: C_16  and  C_17
REMARK   10  A    between atoms: C_20  and  C_21
REMARK                            x       y       z     vdW  Elec       q    Type
REMARK                         _______ _______ _______ _____ _____    ______ ____
ROOT
ATOM      1  N   UNL     1       1.939   4.119  20.258  0.00  0.00    +0.000 NA
ATOM      2  C   UNL     1       2.664   3.740  19.263  0.00  0.00    +0.000 C 
ATOM      3  N   UNL     1       3.530   4.634  18.633  0.00  0.00    +0.000 N 
ENDROOT
BRANCH   1   5
ATOM      4  C   UNL     1       1.780   2.478  22.013  0.00  0.00    +0.000 C 
ATOM      5  C   UNL     1       1.006   3.267  20.971  0.00  0.00    +0.000 C 
ENDBRANCH   1   5
BRANCH   2   6
ATOM      6  S   UNL     1       2.666   2.074  18.666  0.00  0.00    +0.000 S 
ATOM      7  H   UNL     1       1.362   1.946  18.418  0.00  0.00    +0.000 HD
ENDBRANCH   2   6
BRANCH   3   8
ATOM      8  C   UNL     1       3.812   4.568  17.181  0.00  0.00    +0.000 C 
BRANCH   8   9
ATOM      9  C   UNL     1       4.981   3.653  16.789  0.00  0.00    +0.000 C 
BRANCH   9  10
ATOM     10  C   UNL     1       5.985   4.366  15.930  0.00  0.00    +0.000 A 
ATOM     11  C   UNL     1       6.895   5.336  16.332  0.00  0.00    +0.000 A 
ATOM     12  C   UNL     1       7.163   5.951  17.658  0.00  0.00    +0.000 C 
ATOM     13  N   UNL     1       7.623   5.703  15.227  0.00  0.00    +0.000 N 
ATOM     14  C   UNL     1       7.215   4.998  14.121  0.00  0.00    +0.000 A 
ATOM     15  C   UNL     1       7.674   5.044  12.799  0.00  0.00    +0.000 A 
ATOM     16  C   UNL     1       7.058   4.200  11.867  0.00  0.00    +0.000 A 
ATOM     17  C   UNL     1       6.022   3.338  12.239  0.00  0.00    +0.000 A 
ATOM     18  C   UNL     1       5.359   2.446  11.230  0.00  0.00    +0.000 C 
ATOM     19  C   UNL     1       5.582   3.314  13.573  0.00  0.00    +0.000 A 
ATOM     20  C   UNL     1       6.188   4.154  14.531  0.00  0.00    +0.000 A 
ATOM     21  H   UNL     1       8.361   6.393  15.220  0.00  0.00    +0.000 HD
ENDBRANCH   9  10
ENDBRANCH   8   9
ENDBRANCH   3   8
BRANCH   3  22
ATOM     22  C   UNL     1       3.869   5.877  19.349  0.00  0.00    +0.000 C 
BRANCH  22  23
ATOM     23  C   UNL     1       3.002   7.082  19.077  0.00  0.00    +0.000 A 
ATOM     24  C   UNL     1       2.976   7.808  17.885  0.00  0.00    +0.000 A 
ATOM     25  C   UNL     1       2.106   8.889  17.744  0.00  0.00    +0.000 A 
ATOM     26  C   UNL     1       1.272   9.209  18.801  0.00  0.00    +0.000 A 
ATOM     27  N   UNL     1       1.248   8.527  19.964  0.00  0.00    +0.000 NA
ATOM     28  C   UNL     1       2.101   7.481  20.066  0.00  0.00    +0.000 A 
ENDBRANCH  22  23
ENDBRANCH   3  22
TORSDOF 7
ENDMDL
MODEL 2
REMARK VINA RESULT:      -8.1      1.829      3.673
REMARK  Name = 
REMARK  10 active torsions:
REMARK  status: ('A' for Active; 'I' for Inactive)
REMARK    1  A    between atoms: C_1  and  C_2
REMARK    2  A    between atoms: C_2  and  N_3
REMARK    3  A    between atoms: C_4  and  S_5
REMARK    4  A    between atoms: N_6  and  C_7
REMARK    5  A    between atoms: N_6  and  C_20
REMARK    6  A    between atoms: C_7  and  C_8
REMARK    7  A    between atoms: C_8  and  C_9
REMARK    8  A    between atoms: C_10  and  C_11
REMARK    9  A    between atoms: C_16  and  C_17
REMARK   10  A    between atoms: C_20  and  C_21
REMARK                            x       y       z     vdW  Elec       q    Type
REMARK                         _______ _______ _______ _____ _____    ______ ____
ROOT
ATOM      1  N   UNL     1       1.965   7.942  20.202  0.00  0.00    +0.000 NA
ATOM      2  C   UNL     1       2.270   7.681  18.978  0.00  0.00    +0.000 C 
ATOM      3  N   UNL     1       3.102   6.604  18.668  0.00  0.00    +0.000 N 
ENDROOT
BRANCH   1   5
ATOM      4  C   UNL     1       0.836   8.884  22.110  0.00  0.00    +0.000 C 
ATOM      5  C   UNL     1       1.117   9.041  20.625  0.00  0.00    +0.000 C 
ENDBRANCH   1   5
BRANCH   2   6
ATOM      6  S   UNL     1       1.623   8.606  17.617  0.00  0.00    +0.000 S 
ATOM      7  H   UNL     1       0.401   8.844  18.095  0.00  0.00    +0.000 HD
ENDBRANCH   2   6
BRANCH   3   8
ATOM      8  C   UNL     1       4.045   6.642  17.526  0.00  0.00    +0.000 C 
BRANCH   8   9
ATOM      9  C   UNL     1       4.410   5.269  16.943  0.00  0.00    +0.000 C 
BRANCH   9  10
ATOM     10  C   UNL     1       5.666   5.328  16.122  0.00  0.00    +0.000 A 
ATOM     11  C   UNL     1       6.890   5.866  16.496  0.00  0.00    +0.000 A 
ATOM     12  C   UNL     1       7.340   6.521  17.753  0.00  0.00    +0.000 C 
ATOM     13  N   UNL     1       7.757   5.695  15.445  0.00  0.00    +0.000 N 
ATOM     14  C   UNL     1       7.132   5.057  14.400  0.00  0.00    +0.000 A 
ATOM     15  C   UNL     1       7.626   4.679  13.146  0.00  0.00    +0.000 A 
ATOM     16  C   UNL     1       6.746   4.036  12.267  0.00  0.00    +0.000 A 
ATOM     17  C   UNL     1       5.419   3.777  12.626  0.00  0.00    +0.000 A 
ATOM     18  C   UNL     1       4.479   3.099  11.672  0.00  0.00    +0.000 C 
ATOM     19  C   UNL     1       4.952   4.169  13.891  0.00  0.00    +0.000 A 
ATOM     20  C   UNL     1       5.820   4.817  14.795  0.00  0.00    +0.000 A 
ATOM     21  H   UNL     1       8.723   5.990  15.434  0.00  0.00    +0.000 HD
ENDBRANCH   9  10
ENDBRANCH   8   9
ENDBRANCH   3   8
BRANCH   3  22
ATOM     22  C   UNL     1       3.308   5.579  19.705  0.00  0.00    +0.000 C 
BRANCH  22  23
ATOM     23  C   UNL     1       2.412   4.366  19.657  0.00  0.00    +0.000 A 
ATOM     24  C   UNL     1       2.154   3.507  20.727  0.00  0.00    +0.000 A 
ATOM     25  C   UNL     1       1.279   2.433  20.565  0.00  0.00    +0.000 A 
ATOM     26  C   UNL     1       0.675   2.252  19.333  0.00  0.00    +0.000 A 
ATOM     27  N   UNL     1       0.879   3.063  18.276  0.00  0.00    +0.000 NA
ATOM     28  C   UNL     1       1.729   4.099  18.469  0.00  0.00    +0.000 A 
ENDBRANCH  22  23
ENDBRANCH   3  22
TORSDOF 7
ENDMDL
MODEL 3
REMARK VINA RESULT:      -8.0      1.865      7.483
REMARK  Name = 
REMARK  10 active torsions:
REMARK  status: ('A' for Active; 'I' for Inactive)
REMARK    1  A    between atoms: C_1  and  C_2
REMARK    2  A    between atoms: C_2  and  N_3
REMARK    3  A    between atoms: C_4  and  S_5
REMARK    4  A    between atoms: N_6  and  C_7
REMARK    5  A    between atoms: N_6  and  C_20
REMARK    6  A    between atoms: C_7  and  C_8
REMARK    7  A    between atoms: C_8  and  C_9
REMARK    8  A    between atoms: C_10  and  C_11
REMARK    9  A    between atoms: C_16  and  C_17
REMARK   10  A    between atoms: C_20  and  C_21
REMARK                            x       y       z     vdW  Elec       q    Type
REMARK                         _______ _______ _______ _____ _____    ______ ____
ROOT
ATOM      1  N   UNL     1       7.110   7.031  17.270  0.00  0.00    +0.000 NA
ATOM      2  C   UNL     1       6.873   5.807  17.592  0.00  0.00    +0.000 C 
ATOM      3  N   UNL     1       5.901   5.069  16.916  0.00  0.00    +0.000 N 
ENDROOT
BRANCH   1   5
ATOM      4  C   UNL     1       7.763   9.327  17.595  0.00  0.00    +0.000 C 
ATOM      5  C   UNL     1       8.094   7.879  17.918  0.00  0.00    +0.000 C 
ENDBRANCH   1   5
BRANCH   2   6
ATOM      6  S   UNL     1       7.786   4.958  18.848  0.00  0.00    +0.000 S 
ATOM      7  H   UNL     1       6.793   4.749  19.714  0.00  0.00    +0.000 HD
ENDBRANCH   2   6
BRANCH   3   8
ATOM      8  C   UNL     1       5.081   4.038  17.593  0.00  0.00    +0.000 C 
BRANCH   8   9
ATOM      9  C   UNL     1       3.564   4.256  17.505  0.00  0.00    +0.000 C 
BRANCH   9  10
ATOM     10  C   UNL     1       3.003   4.803  18.786  0.00  0.00    +0.000 A 
ATOM     11  C   UNL     1       2.845   4.128  19.990  0.00  0.00    +0.000 A 
ATOM     12  C   UNL     1       3.157   2.731  20.388  0.00  0.00    +0.000 C 
ATOM     13  N   UNL     1       2.308   5.012  20.892  0.00  0.00    +0.000 N 
ATOM     14  C   UNL     1       2.117   6.243  20.311  0.00  0.00    +0.000 A 
ATOM     15  C   UNL     1       1.604   7.428  20.851  0.00  0.00    +0.000 A 
ATOM     16  C   UNL     1       1.520   8.544  20.010  0.00  0.00    +0.000 A 
ATOM     17  C   UNL     1       1.935   8.482  18.676  0.00  0.00    +0.000 A 
ATOM     18  C   UNL     1       1.830   9.680  17.777  0.00  0.00    +0.000 C 
ATOM     19  C   UNL     1       2.446   7.278  18.162  0.00  0.00    +0.000 A 
ATOM     20  C   UNL     1       2.541   6.141  18.990  0.00  0.00    +0.000 A 
ATOM     21  H   UNL     1       2.085   4.798  21.854  0.00  0.00    +0.000 HD
ENDBRANCH   9  10
ENDBRANCH   8   9
ENDBRANCH   3   8
BRANCH   3  22
ATOM     22  C   UNL     1       5.432   5.585  15.618  0.00  0.00    +0.000 C 
BRANCH  22  23
ATOM     23  C   UNL     1       5.960   4.903  14.379  0.00  0.00    +0.000 A 
ATOM     24  C   UNL     1       5.286   3.927  13.642  0.00  0.00    +0.000 A 
ATOM     25  C   UNL     1       5.870   3.392  12.494  0.00  0.00    +0.000 A 
ATOM     26  C   UNL     1       7.113   3.858  12.105  0.00  0.00    +0.000 A 
ATOM     27  N   UNL     1       7.794   4.811  12.773  0.00  0.00    +0.000 NA
ATOM     28  C   UNL     1       7.198   5.313  13.880  0.00  0.00    +0.000 A 
ENDBRANCH  22  23
ENDBRANCH   3  22
TORSDOF 7
ENDMDL
MODEL 4
REMARK VINA RESULT:      -7.8      1.655      3.820
REMARK  Name = 
REMARK  10 active torsions:
REMARK  status: ('A' for Active; 'I' for Inactive)
REMARK    1  A    between atoms: C_1  and  C_2
REMARK    2  A    between atoms: C_2  and  N_3
REMARK    3  A    between atoms: C_4  and  S_5
REMARK    4  A    between atoms: N_6  and  C_7
REMARK    5  A    between atoms: N_6  and  C_20
REMARK    6  A    between atoms: C_7  and  C_8
REMARK    7  A    between atoms: C_8  and  C_9
REMARK    8  A    between atoms: C_10  and  C_11
REMARK    9  A    between atoms: C_16  and  C_17
REMARK   10  A    between atoms: C_20  and  C_21
REMARK                            x       y       z     vdW  Elec       q    Type
REMARK                         _______ _______ _______ _____ _____    ______ ____
ROOT
ATOM      1  N   UNL     1       2.250   7.748  18.081  0.00  0.00    +0.000 NA
ATOM      2  C   UNL     1       3.224   7.031  17.638  0.00  0.00    +0.000 C 
ATOM      3  N   UNL     1       3.204   5.642  17.776  0.00  0.00    +0.000 N 
ENDROOT
BRANCH   1   5
ATOM      4  C   UNL     1       0.970   9.666  18.777  0.00  0.00    +0.000 C 
ATOM      5  C   UNL     1       2.183   9.195  17.992  0.00  0.00    +0.000 C 
ENDBRANCH   1   5
BRANCH   2   6
ATOM      6  S   UNL     1       4.606   7.727  16.781  0.00  0.00    +0.000 S 
ATOM      7  H   UNL     1       4.229   9.006  16.792  0.00  0.00    +0.000 HD
ENDBRANCH   2   6
BRANCH   3   8
ATOM      8  C   UNL     1       4.440   4.854  17.988  0.00  0.00    +0.000 C 
BRANCH   8   9
ATOM      9  C   UNL     1       4.766   3.850  16.874  0.00  0.00    +0.000 C 
BRANCH   9  10
ATOM     10  C   UNL     1       5.875   4.339  15.987  0.00  0.00    +0.000 A 
ATOM     11  C   UNL     1       7.019   5.026  16.374  0.00  0.00    +0.000 A 
ATOM     12  C   UNL     1       7.497   5.477  17.707  0.00  0.00    +0.000 C 
ATOM     13  N   UNL     1       7.760   5.265  15.243  0.00  0.00    +0.000 N 
ATOM     14  C   UNL     1       7.134   4.749  14.134  0.00  0.00    +0.000 A 
ATOM     15  C   UNL     1       7.524   4.756  12.790  0.00  0.00    +0.000 A 
ATOM     16  C   UNL     1       6.671   4.147  11.862  0.00  0.00    +0.000 A 
ATOM     17  C   UNL     1       5.471   3.551  12.258  0.00  0.00    +0.000 A 
ATOM     18  C   UNL     1       4.556   2.912  11.254  0.00  0.00    +0.000 C 
ATOM     19  C   UNL     1       5.105   3.559  13.615  0.00  0.00    +0.000 A 
ATOM     20  C   UNL     1       5.949   4.165  14.570  0.00  0.00    +0.000 A 
ATOM     21  H   UNL     1       8.647   5.748  15.221  0.00  0.00    +0.000 HD
ENDBRANCH   9  10
ENDBRANCH   8   9
ENDBRANCH   3   8
BRANCH   3  22
ATOM     22  C   UNL     1       1.913   5.005  18.087  0.00  0.00    +0.000 C 
BRANCH  22  23
ATOM     23  C   UNL     1       1.845   4.175  19.346  0.00  0.00    +0.000 A 
ATOM     24  C   UNL     1       2.130   4.633  20.634  0.00  0.00    +0.000 A 
ATOM     25  C   UNL     1       2.001   3.773  21.725  0.00  0.00    +0.000 A 
ATOM     26  C   UNL     1       1.577   2.475  21.498  0.00  0.00    +0.000 A 
ATOM     27  N   UNL     1       1.274   1.994  20.276  0.00  0.00    +0.000 NA
ATOM     28  C   UNL     1       1.404   2.854  19.240  0.00  0.00    +0.000 A 
ENDBRANCH  22  23
ENDBRANCH   3  22
TORSDOF 7
ENDMDL
MODEL 5
REMARK VINA RESULT:      -7.5      1.951      3.936
REMARK  Name = 
REMARK  10 active torsions:
REMARK  status: ('A' for Active; 'I' for Inactive)
REMARK    1  A    between atoms: C_1  and  C_2
REMARK    2  A    between atoms: C_2  and  N_3
REMARK    3  A    between atoms: C_4  and  S_5
REMARK    4  A    between atoms: N_6  and  C_7
REMARK    5  A    between atoms: N_6  and  C_20
REMARK    6  A    between atoms: C_7  and  C_8
REMARK    7  A    between atoms: C_8  and  C_9
REMARK    8  A    between atoms: C_10  and  C_11
REMARK    9  A    between atoms: C_16  and  C_17
REMARK   10  A    between atoms: C_20  and  C_21
REMARK                            x       y       z     vdW  Elec       q    Type
REMARK                         _______ _______ _______ _____ _____    ______ ____
ROOT
ATOM      1  N   UNL     1       1.824   7.629  20.311  0.00  0.00    +0.000 NA
ATOM      2  C   UNL     1       2.437   7.409  19.199  0.00  0.00    +0.000 C 
ATOM      3  N   UNL     1       3.169   6.236  19.012  0.00  0.00    +0.000 N 
ENDROOT
BRANCH   1   5
ATOM      4  C   UNL     1       1.076   9.053  22.103  0.00  0.00    +0.000 C 
ATOM      5  C   UNL     1       1.046   8.819  20.602  0.00  0.00    +0.000 C 
ENDBRANCH   1   5
BRANCH   2   6
ATOM      6  S   UNL     1       2.350   8.522  17.827  0.00  0.00    +0.000 S 
ATOM      7  H   UNL     1       1.028   8.522  17.648  0.00  0.00    +0.000 HD
ENDBRANCH   2   6
BRANCH   3   8
ATOM      8  C   UNL     1       4.402   6.200  18.192  0.00  0.00    +0.000 C 
BRANCH   8   9
ATOM      9  C   UNL     1       4.293   5.385  16.896  0.00  0.00    +0.000 C 
BRANCH   9  10
ATOM     10  C   UNL     1       5.571   5.417  16.107  0.00  0.00    +0.000 A 
ATOM     11  C   UNL     1       6.786   5.962  16.500  0.00  0.00    +0.000 A 
ATOM     12  C   UNL     1       7.204   6.649  17.750  0.00  0.00    +0.000 C 
ATOM     13  N   UNL     1       7.680   5.760  15.478  0.00  0.00    +0.000 N 
ATOM     14  C   UNL     1       7.082   5.096  14.434  0.00  0.00    +0.000 A 
ATOM     15  C   UNL     1       7.608   4.682  13.204  0.00  0.00    +0.000 A 
ATOM     16  C   UNL     1       6.749   4.019  12.320  0.00  0.00    +0.000 A 
ATOM     17  C   UNL     1       5.412   3.774  12.649  0.00  0.00    +0.000 A 
ATOM     18  C   UNL     1       4.496   3.073  11.689  0.00  0.00    +0.000 C 
ATOM     19  C   UNL     1       4.912   4.201  13.890  0.00  0.00    +0.000 A 
ATOM     20  C   UNL     1       5.758   4.870  14.799  0.00  0.00    +0.000 A 
ATOM     21  H   UNL     1       8.648   6.052  15.484  0.00  0.00    +0.000 HD
ENDBRANCH   9  10
ENDBRANCH   8   9
ENDBRANCH   3   8
BRANCH   3  22
ATOM     22  C   UNL     1       2.920   5.120  19.941  0.00  0.00    +0.000 C 
BRANCH  22  23
ATOM     23  C   UNL     1       3.212   3.729  19.434  0.00  0.00    +0.000 A 
ATOM     24  C   UNL     1       4.292   2.934  19.823  0.00  0.00    +0.000 A 
ATOM     25  C   UNL     1       4.436   1.649  19.303  0.00  0.00    +0.000 A 
ATOM     26  C   UNL     1       3.485   1.185  18.410  0.00  0.00    +0.000 A 
ATOM     27  N   UNL     1       2.417   1.907  18.018  0.00  0.00    +0.000 NA
ATOM     28  C   UNL     1       2.303   3.149  18.545  0.00  0.00    +0.000 A 
ENDBRANCH  22  23
ENDBRANCH   3  22
TORSDOF 7
ENDMDL
MODEL 6
REMARK VINA RESULT:      -7.5      3.977      7.301
REMARK  Name = 
REMARK  10 active torsions:
REMARK  status: ('A' for Active; 'I' for Inactive)
REMARK    1  A    between atoms: C_1  and  C_2
REMARK    2  A    between atoms: C_2  and  N_3
REMARK    3  A    between atoms: C_4  and  S_5
REMARK    4  A    between atoms: N_6  and  C_7
REMARK    5  A    between atoms: N_6  and  C_20
REMARK    6  A    between atoms: C_7  and  C_8
REMARK    7  A    between atoms: C_8  and  C_9
REMARK    8  A    between atoms: C_10  and  C_11
REMARK    9  A    between atoms: C_16  and  C_17
REMARK   10  A    between atoms: C_20  and  C_21
REMARK                            x       y       z     vdW  Elec       q    Type
REMARK                         _______ _______ _______ _____ _____    ______ ____
ROOT
ATOM      1  N   UNL     1       0.323  13.178  19.861  0.00  0.00    +0.000 NA
ATOM      2  C   UNL     1       1.063  12.546  19.017  0.00  0.00    +0.000 C 
ATOM      3  N   UNL     1       0.879  11.181  18.793  0.00  0.00    +0.000 N 
ENDROOT
BRANCH   1   5
ATOM      4  C   UNL     1      -0.870  15.270  19.810  0.00  0.00    +0.000 C 
ATOM      5  C   UNL     1       0.442  14.592  20.167  0.00  0.00    +0.000 C 
ENDBRANCH   1   5
BRANCH   2   6
ATOM      6  S   UNL     1       2.303  13.353  18.047  0.00  0.00    +0.000 S 
ATOM      7  H   UNL     1       3.326  13.248  18.897  0.00  0.00    +0.000 HD
ENDBRANCH   2   6
BRANCH   3   8
ATOM      8  C   UNL     1       2.008  10.277  18.476  0.00  0.00    +0.000 C 
BRANCH   8   9
ATOM      9  C   UNL     1       1.601   8.894  17.947  0.00  0.00    +0.000 C 
BRANCH   9  10
ATOM     10  C   UNL     1       2.258   7.786  18.719  0.00  0.00    +0.000 A 
ATOM     11  C   UNL     1       2.008   7.416  20.034  0.00  0.00    +0.000 A 
ATOM     12  C   UNL     1       1.069   7.956  21.052  0.00  0.00    +0.000 C 
ATOM     13  N   UNL     1       2.822   6.349  20.326  0.00  0.00    +0.000 N 
ATOM     14  C   UNL     1       3.590   6.013  19.237  0.00  0.00    +0.000 A 
ATOM     15  C   UNL     1       4.545   5.001  19.081  0.00  0.00    +0.000 A 
ATOM     16  C   UNL     1       5.183   4.894  17.840  0.00  0.00    +0.000 A 
ATOM     17  C   UNL     1       4.880   5.765  16.788  0.00  0.00    +0.000 A 
ATOM     18  C   UNL     1       5.579   5.651  15.465  0.00  0.00    +0.000 C 
ATOM     19  C   UNL     1       3.917   6.771  16.974  0.00  0.00    +0.000 A 
ATOM     20  C   UNL     1       3.259   6.898  18.216  0.00  0.00    +0.000 A 
ATOM     21  H   UNL     1       2.856   5.869  21.214  0.00  0.00    +0.000 HD
ENDBRANCH   9  10
ENDBRANCH   8   9
ENDBRANCH   3   8
BRANCH   3  22
ATOM     22  C   UNL     1      -0.386  10.579  19.246  0.00  0.00    +0.000 C 
BRANCH  22  23
ATOM     23  C   UNL     1      -1.560  10.658  18.300  0.00  0.00    +0.000 A 
ATOM     24  C   UNL     1      -1.711   9.908  17.133  0.00  0.00    +0.000 A 
ATOM     25  C   UNL     1      -2.860  10.050  16.355  0.00  0.00    +0.000 A 
ATOM     26  C   UNL     1      -3.837  10.936  16.775  0.00  0.00    +0.000 A 
ATOM     27  N   UNL     1      -3.744  11.668  17.902  0.00  0.00    +0.000 NA
ATOM     28  C   UNL     1      -2.620  11.503  18.637  0.00  0.00    +0.000 A 
ENDBRANCH  22  23
ENDBRANCH   3  22
TORSDOF 7
ENDMDL
MODEL 7
REMARK VINA RESULT:      -7.4      1.571      3.791
REMARK  Name = 
REMARK  10 active torsions:
REMARK  status: ('A' for Active; 'I' for Inactive)
REMARK    1  A    between atoms: C_1  and  C_2
REMARK    2  A    between atoms: C_2  and  N_3
REMARK    3  A    between atoms: C_4  and  S_5
REMARK    4  A    between atoms: N_6  and  C_7
REMARK    5  A    between atoms: N_6  and  C_20
REMARK    6  A    between atoms: C_7  and  C_8
REMARK    7  A    between atoms: C_8  and  C_9
REMARK    8  A    between atoms: C_10  and  C_11
REMARK    9  A    between atoms: C_16  and  C_17
REMARK   10  A    between atoms: C_20  and  C_21
REMARK                            x       y       z     vdW  Elec       q    Type
REMARK                         _______ _______ _______ _____ _____    ______ ____
ROOT
ATOM      1  N   UNL     1       1.951   7.611  18.706  0.00  0.00    +0.000 NA
ATOM      2  C   UNL     1       2.935   7.083  18.064  0.00  0.00    +0.000 C 
ATOM      3  N   UNL     1       3.032   5.698  17.926  0.00  0.00    +0.000 N 
ENDROOT
BRANCH   1   5
ATOM      4  C   UNL     1       0.809   9.550  17.847  0.00  0.00    +0.000 C 
ATOM      5  C   UNL     1       1.768   9.036  18.908  0.00  0.00    +0.000 C 
ENDBRANCH   1   5
BRANCH   2   6
ATOM      6  S   UNL     1       4.182   8.052  17.267  0.00  0.00    +0.000 S 
ATOM      7  H   UNL     1       5.055   8.127  18.273  0.00  0.00    +0.000 HD
ENDBRANCH   2   6
BRANCH   3   8
ATOM      8  C   UNL     1       4.338   4.999  17.893  0.00  0.00    +0.000 C 
BRANCH   8   9
ATOM      9  C   UNL     1       4.542   4.066  16.692  0.00  0.00    +0.000 C 
BRANCH   9  10
ATOM     10  C   UNL     1       5.706   4.493  15.844  0.00  0.00    +0.000 A 
ATOM     11  C   UNL     1       6.828   5.201  16.254  0.00  0.00    +0.000 A 
ATOM     12  C   UNL     1       7.228   5.738  17.580  0.00  0.00    +0.000 C 
ATOM     13  N   UNL     1       7.639   5.362  15.157  0.00  0.00    +0.000 N 
ATOM     14  C   UNL     1       7.078   4.776  14.048  0.00  0.00    +0.000 A 
ATOM     15  C   UNL     1       7.549   4.692  12.733  0.00  0.00    +0.000 A 
ATOM     16  C   UNL     1       6.750   4.026  11.796  0.00  0.00    +0.000 A 
ATOM     17  C   UNL     1       5.524   3.460  12.158  0.00  0.00    +0.000 A 
ATOM     18  C   UNL     1       4.667   2.758  11.144  0.00  0.00    +0.000 C 
ATOM     19  C   UNL     1       5.076   3.559  13.486  0.00  0.00    +0.000 A 
ATOM     20  C   UNL     1       5.865   4.225  14.448  0.00  0.00    +0.000 A 
ATOM     21  H   UNL     1       8.529   5.841  15.157  0.00  0.00    +0.000 HD
ENDBRANCH   9  10
ENDBRANCH   8   9
ENDBRANCH   3   8
BRANCH   3  22
ATOM     22  C   UNL     1       1.824   4.898  18.195  0.00  0.00    +0.000 C 
BRANCH  22  23
ATOM     23  C   UNL     1       1.866   3.973  19.387  0.00  0.00    +0.000 A 
ATOM     24  C   UNL     1       1.839   2.579  19.331  0.00  0.00    +0.000 A 
ATOM     25  C   UNL     1       1.914   1.832  20.506  0.00  0.00    +0.000 A 
ATOM     26  C   UNL     1       2.026   2.503  21.712  0.00  0.00    +0.000 A 
ATOM     27  N   UNL     1       2.073   3.846  21.814  0.00  0.00    +0.000 NA
ATOM     28  C   UNL     1       2.004   4.541  20.655  0.00  0.00    +0.000 A 
ENDBRANCH  22  23
ENDBRANCH   3  22
TORSDOF 7
ENDMDL
MODEL 8
REMARK VINA RESULT:      -7.3      1.619      3.597
REMARK  Name = 
REMARK  10 active torsions:
REMARK  status: ('A' for Active; 'I' for Inactive)
REMARK    1  A    between atoms: C_1  and  C_2
REMARK    2  A    between atoms: C_2  and  N_3
REMARK    3  A    between atoms: C_4  and  S_5
REMARK    4  A    between atoms: N_6  and  C_7
REMARK    5  A    between atoms: N_6  and  C_20
REMARK    6  A    between atoms: C_7  and  C_8
REMARK    7  A    between atoms: C_8  and  C_9
REMARK    8  A    between atoms: C_10  and  C_11
REMARK    9  A    between atoms: C_16  and  C_17
REMARK   10  A    between atoms: C_20  and  C_21
REMARK                            x       y       z     vdW  Elec       q    Type
REMARK                         _______ _______ _______ _____ _____    ______ ____
ROOT
ATOM      1  N   UNL     1       2.292   6.263  19.184  0.00  0.00    +0.000 NA
ATOM      2  C   UNL     1       2.755   6.000  18.011  0.00  0.00    +0.000 C 
ATOM      3  N   UNL     1       2.595   4.732  17.452  0.00  0.00    +0.000 N 
ENDROOT
BRANCH   1   5
ATOM      4  C   UNL     1       1.355   7.621  20.938  0.00  0.00    +0.000 C 
ATOM      5  C   UNL     1       2.415   7.545  19.852  0.00  0.00    +0.000 C 
ENDBRANCH   1   5
BRANCH   2   6
ATOM      6  S   UNL     1       3.558   7.217  17.010  0.00  0.00    +0.000 S 
ATOM      7  H   UNL     1       4.808   7.043  17.441  0.00  0.00    +0.000 HD
ENDBRANCH   2   6
BRANCH   3   8
ATOM      8  C   UNL     1       3.613   4.130  16.561  0.00  0.00    +0.000 C 
BRANCH   8   9
ATOM      9  C   UNL     1       5.023   4.035  17.160  0.00  0.00    +0.000 C 
BRANCH   9  10
ATOM     10  C   UNL     1       6.056   4.652  16.261  0.00  0.00    +0.000 A 
ATOM     11  C   UNL     1       7.025   5.584  16.611  0.00  0.00    +0.000 A 
ATOM     12  C   UNL     1       7.344   6.239  17.906  0.00  0.00    +0.000 C 
ATOM     13  N   UNL     1       7.757   5.861  15.484  0.00  0.00    +0.000 N 
ATOM     14  C   UNL     1       7.296   5.134  14.413  0.00  0.00    +0.000 A 
ATOM     15  C   UNL     1       7.740   5.097  13.086  0.00  0.00    +0.000 A 
ATOM     16  C   UNL     1       7.065   4.250  12.198  0.00  0.00    +0.000 A 
ATOM     17  C   UNL     1       5.986   3.466  12.618  0.00  0.00    +0.000 A 
ATOM     18  C   UNL     1       5.261   2.571  11.655  0.00  0.00    +0.000 C 
ATOM     19  C   UNL     1       5.563   3.524  13.956  0.00  0.00    +0.000 A 
ATOM     20  C   UNL     1       6.228   4.369  14.870  0.00  0.00    +0.000 A 
ATOM     21  H   UNL     1       8.534   6.507  15.439  0.00  0.00    +0.000 HD
ENDBRANCH   9  10
ENDBRANCH   8   9
ENDBRANCH   3   8
BRANCH   3  22
ATOM     22  C   UNL     1       1.587   3.842  18.053  0.00  0.00    +0.000 C 
BRANCH  22  23
ATOM     23  C   UNL     1       1.869   3.327  19.444  0.00  0.00    +0.000 A 
ATOM     24  C   UNL     1       0.947   3.272  20.490  0.00  0.00    +0.000 A 
ATOM     25  C   UNL     1       1.323   2.745  21.725  0.00  0.00    +0.000 A 
ATOM     26  C   UNL     1       2.615   2.275  21.879  0.00  0.00    +0.000 A 
ATOM     27  N   UNL     1       3.535   2.291  20.894  0.00  0.00    +0.000 NA
ATOM     28  C   UNL     1       3.137   2.804  19.706  0.00  0.00    +0.000 A 
ENDBRANCH  22  23
ENDBRANCH   3  22
TORSDOF 7
ENDMDL
MODEL 9
REMARK VINA RESULT:      -7.3      3.011      5.337
REMARK  Name = 
REMARK  10 active torsions:
REMARK  status: ('A' for Active; 'I' for Inactive)
REMARK    1  A    between atoms: C_1  and  C_2
REMARK    2  A    between atoms: C_2  and  N_3
REMARK    3  A    between atoms: C_4  and  S_5
REMARK    4  A    between atoms: N_6  and  C_7
REMARK    5  A    between atoms: N_6  and  C_20
REMARK    6  A    between atoms: C_7  and  C_8
REMARK    7  A    between atoms: C_8  and  C_9
REMARK    8  A    between atoms: C_10  and  C_11
REMARK    9  A    between atoms: C_16  and  C_17
REMARK   10  A    between atoms: C_20  and  C_21
REMARK                            x       y       z     vdW  Elec       q    Type
REMARK                         _______ _______ _______ _____ _____    ______ ____
ROOT
ATOM      1  N   UNL     1       0.743   9.180  21.026  0.00  0.00    +0.000 NA
ATOM      2  C   UNL     1       1.243   8.666  19.956  0.00  0.00    +0.000 C 
ATOM      3  N   UNL     1       1.754   7.368  19.963  0.00  0.00    +0.000 N 
ENDROOT
BRANCH   1   5
ATOM      4  C   UNL     1      -0.411  10.693  22.502  0.00  0.00    +0.000 C 
ATOM      5  C   UNL     1       0.195  10.521  21.119  0.00  0.00    +0.000 C 
ENDBRANCH   1   5
BRANCH   2   6
ATOM      6  S   UNL     1       1.262   9.521  18.407  0.00  0.00    +0.000 S 
ATOM      7  H   UNL     1       1.775   8.552  17.647  0.00  0.00    +0.000 HD
ENDBRANCH   2   6
BRANCH   3   8
ATOM      8  C   UNL     1       2.912   6.973  19.128  0.00  0.00    +0.000 C 
BRANCH   8   9
ATOM      9  C   UNL     1       2.562   6.133  17.892  0.00  0.00    +0.000 C 
BRANCH   9  10
ATOM     10  C   UNL     1       3.698   5.239  17.485  0.00  0.00    +0.000 A 
ATOM     11  C   UNL     1       3.626   3.896  17.138  0.00  0.00    +0.000 A 
ATOM     12  C   UNL     1       2.478   2.955  17.059  0.00  0.00    +0.000 C 
ATOM     13  N   UNL     1       4.897   3.481  16.826  0.00  0.00    +0.000 N 
ATOM     14  C   UNL     1       5.791   4.516  16.954  0.00  0.00    +0.000 A 
ATOM     15  C   UNL     1       7.174   4.549  16.738  0.00  0.00    +0.000 A 
ATOM     16  C   UNL     1       7.838   5.762  16.955  0.00  0.00    +0.000 A 
ATOM     17  C   UNL     1       7.148   6.905  17.373  0.00  0.00    +0.000 A 
ATOM     18  C   UNL     1       7.869   8.198  17.617  0.00  0.00    +0.000 C 
ATOM     19  C   UNL     1       5.760   6.841  17.583  0.00  0.00    +0.000 A 
ATOM     20  C   UNL     1       5.068   5.630  17.369  0.00  0.00    +0.000 A 
ATOM     21  H   UNL     1       5.149   2.546  16.535  0.00  0.00    +0.000 HD
ENDBRANCH   9  10
ENDBRANCH   8   9
ENDBRANCH   3   8
BRANCH   3  22
ATOM     22  C   UNL     1       1.378   6.491  21.086  0.00  0.00    +0.000 C 
BRANCH  22  23
ATOM     23  C   UNL     1       1.496   5.003  20.862  0.00  0.00    +0.000 A 
ATOM     24  C   UNL     1       0.624   4.228  20.095  0.00  0.00    +0.000 A 
ATOM     25  C   UNL     1       0.858   2.862  19.939  0.00  0.00    +0.000 A 
ATOM     26  C   UNL     1       1.969   2.307  20.550  0.00  0.00    +0.000 A 
ATOM     27  N   UNL     1       2.848   3.017  21.285  0.00  0.00    +0.000 NA
ATOM     28  C   UNL     1       2.595   4.341  21.412  0.00  0.00    +0.000 A 
ENDBRANCH  22  23
ENDBRANCH   3  22
TORSDOF 7
ENDMDL
