MODEL 1
REMARK VINA RESULT:      -7.2      0.000      0.000
REMARK  Name = 
REMARK  14 active torsions:
REMARK  status: ('A' for Active; 'I' for Inactive)
REMARK    1  A    between atoms: C_1  and  C_2
REMARK    2  A    between atoms: C_2  and  O_4
REMARK    3  A    between atoms: O_4  and  C_5
REMARK    4  A    between atoms: C_8  and  C_9
REMARK    5  A    between atoms: C_10  and  S_11
REMARK    6  A    between atoms: S_11  and  N_14
REMARK    7  A    between atoms: N_14  and  C_15
REMARK    8  A    between atoms: C_15  and  C_16
REMARK    9  A    between atoms: C_16  and  C_17
REMARK   10  A    between atoms: C_17  and  C_18
REMARK   11  A    between atoms: C_18  and  C_19
REMARK   12  A    between atoms: C_26  and  O_27
REMARK   13  A    between atoms: O_27  and  C_28
REMARK   14  A    between atoms: C_28  and  C_29
REMARK                            x       y       z     vdW  Elec       q    Type
REMARK                         _______ _______ _______ _____ _____    ______ ____
ROOT
ATOM      1  C   UNL     1       4.036   6.564  17.715  0.00  0.00    +0.000 C 
ATOM      2  C   UNL     1       5.291   7.017  17.566  0.00  0.00    +0.000 C 
ENDROOT
BRANCH   1   6
ATOM      3  C   UNL     1       1.137   8.113  20.497  0.00  0.00    +0.000 A 
ATOM      4  C   UNL     1       1.763   6.868  20.679  0.00  0.00    +0.000 A 
ATOM      5  C   UNL     1       2.728   6.401  19.783  0.00  0.00    +0.000 A 
ATOM      6  C   UNL     1       3.055   7.134  18.644  0.00  0.00    +0.000 A 
ATOM      7  C   UNL     1       2.434   8.378  18.457  0.00  0.00    +0.000 A 
ATOM      8  C   UNL     1       1.480   8.866  19.372  0.00  0.00    +0.000 A 
BRANCH   3   9
ATOM      9  O   UNL     1       0.099   8.470  21.373  0.00  0.00    +0.000 OA
BRANCH   9  11
ATOM     10  C   UNL     1      -0.819   9.955  22.998  0.00  0.00    +0.000 C 
ATOM     11  C   UNL     1       0.422   9.343  22.415  0.00  0.00    +0.000 C 
ATOM     12  O   UNL     1       1.546   9.563  22.855  0.00  0.00    +0.000 OA
ENDBRANCH   9  11
ENDBRANCH   3   9
BRANCH   8  13
ATOM     13  O   UNL     1       0.991  10.154  18.975  0.00  0.00    +0.000 OA
BRANCH  13  14
ATOM     14  C   UNL     1      -0.225  10.827  19.052  0.00  0.00    +0.000 C 
ATOM     15  C   UNL     1      -1.169  10.259  18.013  0.00  0.00    +0.000 C 
ATOM     16  O   UNL     1      -0.501  11.755  19.801  0.00  0.00    +0.000 OA
ENDBRANCH  13  14
ENDBRANCH   8  13
ENDBRANCH   1   6
BRANCH   2  17
ATOM     17  S   UNL     1       6.323   6.321  16.362  0.00  0.00    +0.000 S 
ATOM     18  O   UNL     1       5.591   6.316  15.114  0.00  0.00    +0.000 OA
ATOM     19  O   UNL     1       7.642   6.908  16.443  0.00  0.00    +0.000 OA
BRANCH  17  20
ATOM     20  N   UNL     1       6.476   4.676  16.801  0.00  0.00    +0.000 NA
ATOM     21  H   UNL     1       5.986   4.517  17.679  0.00  0.00    +0.000 HD
BRANCH  20  22
ATOM     22  C   UNL     1       6.007   3.749  15.737  0.00  0.00    +0.000 C 
BRANCH  22  23
ATOM     23  C   UNL     1       4.492   3.550  15.842  0.00  0.00    +0.000 C 
BRANCH  23  24
ATOM     24  C   UNL     1       4.132   2.961  17.209  0.00  0.00    +0.000 C 
BRANCH  24  25
ATOM     25  C   UNL     1       2.621   2.837  17.433  0.00  0.00    +0.000 C 
BRANCH  25  26
ATOM     26  C   UNL     1       2.307   2.842  18.911  0.00  0.00    +0.000 A 
ATOM     27  C   UNL     1       1.018   3.149  19.364  0.00  0.00    +0.000 A 
ATOM     28  C   UNL     1       0.749   3.241  20.732  0.00  0.00    +0.000 A 
ATOM     29  C   UNL     1       1.767   3.028  21.660  0.00  0.00    +0.000 A 
ATOM     30  C   UNL     1       3.051   2.710  21.221  0.00  0.00    +0.000 A 
ATOM     31  C   UNL     1       3.320   2.617  19.854  0.00  0.00    +0.000 A 
ENDBRANCH  25  26
ENDBRANCH  24  25
ENDBRANCH  23  24
ENDBRANCH  22  23
ENDBRANCH  20  22
ENDBRANCH  17  20
ENDBRANCH   2  17
TORSDOF 12
ENDMDL
MODEL 2
REMARK VINA RESULT:      -7.0      2.719      4.847
REMARK  Name = 
REMARK  14 active torsions:
REMARK  status: ('A' for Active; 'I' for Inactive)
REMARK    1  A    between atoms: C_1  and  C_2
REMARK    2  A    between atoms: C_2  and  O_4
REMARK    3  A    between atoms: O_4  and  C_5
REMARK    4  A    between atoms: C_8  and  C_9
REMARK    5  A    between atoms: C_10  and  S_11
REMARK    6  A    between atoms: S_11  and  N_14
REMARK    7  A    between atoms: N_14  and  C_15
REMARK    8  A    between atoms: C_15  and  C_16
REMARK    9  A    between atoms: C_16  and  C_17
REMARK   10  A    between atoms: C_17  and  C_18
REMARK   11  A    between atoms: C_18  and  C_19
REMARK   12  A    between atoms: C_26  and  O_27
REMARK   13  A    between atoms: O_27  and  C_28
REMARK   14  A    between atoms: C_28  and  C_29
REMARK                            x       y       z     vdW  Elec       q    Type
REMARK                         _______ _______ _______ _____ _____    ______ ____
ROOT
ATOM      1  C   UNL     1       2.672   5.750  19.610  0.00  0.00    +0.000 C 
ATOM      2  C   UNL     1       2.180   4.893  20.520  0.00  0.00    +0.000 C 
ENDROOT
BRANCH   1   6
ATOM      3  C   UNL     1       1.257   9.747  18.864  0.00  0.00    +0.000 A 
ATOM      4  C   UNL     1       1.722   8.910  17.835  0.00  0.00    +0.000 A 
ATOM      5  C   UNL     1       2.142   7.603  18.095  0.00  0.00    +0.000 A 
ATOM      6  C   UNL     1       2.169   7.110  19.397  0.00  0.00    +0.000 A 
ATOM      7  C   UNL     1       1.706   7.940  20.429  0.00  0.00    +0.000 A 
ATOM      8  C   UNL     1       1.255   9.251  20.169  0.00  0.00    +0.000 A 
BRANCH   3   9
ATOM      9  O   UNL     1       0.956  11.082  18.549  0.00  0.00    +0.000 OA
BRANCH   9  11
ATOM     10  C   UNL     1       1.855  12.857  19.864  0.00  0.00    +0.000 C 
ATOM     11  C   UNL     1       2.001  12.005  18.637  0.00  0.00    +0.000 C 
ATOM     12  O   UNL     1       2.951  12.100  17.866  0.00  0.00    +0.000 OA
ENDBRANCH   9  11
ENDBRANCH   3   9
BRANCH   8  13
ATOM     13  O   UNL     1       0.828   9.901  21.373  0.00  0.00    +0.000 OA
BRANCH  13  14
ATOM     14  C   UNL     1       0.515   9.496  22.668  0.00  0.00    +0.000 C 
ATOM     15  C   UNL     1      -0.894   8.941  22.684  0.00  0.00    +0.000 C 
ATOM     16  O   UNL     1       1.228   9.596  23.658  0.00  0.00    +0.000 OA
ENDBRANCH  13  14
ENDBRANCH   8  13
ENDBRANCH   1   6
BRANCH   2  17
ATOM     17  S   UNL     1       2.927   3.347  20.743  0.00  0.00    +0.000 S 
ATOM     18  O   UNL     1       4.317   3.478  20.366  0.00  0.00    +0.000 OA
ATOM     19  O   UNL     1       2.558   2.801  22.030  0.00  0.00    +0.000 OA
BRANCH  17  20
ATOM     20  N   UNL     1       2.231   2.339  19.550  0.00  0.00    +0.000 NA
ATOM     21  H   UNL     1       1.370   2.765  19.212  0.00  0.00    +0.000 HD
BRANCH  20  22
ATOM     22  C   UNL     1       3.166   2.034  18.435  0.00  0.00    +0.000 C 
BRANCH  22  23
ATOM     23  C   UNL     1       3.043   3.097  17.339  0.00  0.00    +0.000 C 
BRANCH  23  24
ATOM     24  C   UNL     1       4.434   3.574  16.911  0.00  0.00    +0.000 C 
BRANCH  24  25
ATOM     25  C   UNL     1       4.498   5.081  16.644  0.00  0.00    +0.000 C 
BRANCH  25  26
ATOM     26  C   UNL     1       5.757   5.667  17.242  0.00  0.00    +0.000 A 
ATOM     27  C   UNL     1       6.504   4.943  18.180  0.00  0.00    +0.000 A 
ATOM     28  C   UNL     1       7.617   5.518  18.798  0.00  0.00    +0.000 A 
ATOM     29  C   UNL     1       7.993   6.822  18.485  0.00  0.00    +0.000 A 
ATOM     30  C   UNL     1       7.265   7.548  17.544  0.00  0.00    +0.000 A 
ATOM     31  C   UNL     1       6.153   6.974  16.925  0.00  0.00    +0.000 A 
ENDBRANCH  25  26
ENDBRANCH  24  25
ENDBRANCH  23  24
ENDBRANCH  22  23
ENDBRANCH  20  22
ENDBRANCH  17  20
ENDBRANCH   2  17
TORSDOF 12
ENDMDL
MODEL 3
REMARK VINA RESULT:      -7.0      2.928      4.958
REMARK  Name = 
REMARK  14 active torsions:
REMARK  status: ('A' for Active; 'I' for Inactive)
REMARK    1  A    between atoms: C_1  and  C_2
REMARK    2  A    between atoms: C_2  and  O_4
REMARK    3  A    between atoms: O_4  and  C_5
REMARK    4  A    between atoms: C_8  and  C_9
REMARK    5  A    between atoms: C_10  and  S_11
REMARK    6  A    between atoms: S_11  and  N_14
REMARK    7  A    between atoms: N_14  and  C_15
REMARK    8  A    between atoms: C_15  and  C_16
REMARK    9  A    between atoms: C_16  and  C_17
REMARK   10  A    between atoms: C_17  and  C_18
REMARK   11  A    between atoms: C_18  and  C_19
REMARK   12  A    between atoms: C_26  and  O_27
REMARK   13  A    between atoms: O_27  and  C_28
REMARK   14  A    between atoms: C_28  and  C_29
REMARK                            x       y       z     vdW  Elec       q    Type
REMARK                         _______ _______ _______ _____ _____    ______ ____
ROOT
ATOM      1  C   UNL     1       2.152   6.190  20.235  0.00  0.00    +0.000 C 
ATOM      2  C   UNL     1       1.338   5.141  20.440  0.00  0.00    +0.000 C 
ENDROOT
BRANCH   1   6
ATOM      3  C   UNL     1       0.905  10.212  19.340  0.00  0.00    +0.000 A 
ATOM      4  C   UNL     1       1.792   9.500  18.516  0.00  0.00    +0.000 A 
ATOM      5  C   UNL     1       2.155   8.182  18.805  0.00  0.00    +0.000 A 
ATOM      6  C   UNL     1       1.692   7.553  19.960  0.00  0.00    +0.000 A 
ATOM      7  C   UNL     1       0.805   8.260  20.787  0.00  0.00    +0.000 A 
ATOM      8  C   UNL     1       0.415   9.580  20.485  0.00  0.00    +0.000 A 
BRANCH   3   9
ATOM      9  O   UNL     1       0.671  11.566  19.051  0.00  0.00    +0.000 OA
BRANCH   9  11
ATOM     10  C   UNL     1      -1.078  13.100  19.579  0.00  0.00    +0.000 C 
ATOM     11  C   UNL     1      -0.643  11.931  18.744  0.00  0.00    +0.000 C 
ATOM     12  O   UNL     1      -1.353  11.423  17.881  0.00  0.00    +0.000 OA
ENDBRANCH   9  11
ENDBRANCH   3   9
BRANCH   8  13
ATOM     13  O   UNL     1      -0.497  10.089  21.467  0.00  0.00    +0.000 OA
BRANCH  13  14
ATOM     14  C   UNL     1      -0.437  10.380  22.827  0.00  0.00    +0.000 C 
ATOM     15  C   UNL     1      -1.255  11.623  23.102  0.00  0.00    +0.000 C 
ATOM     16  O   UNL     1       0.198   9.769  23.678  0.00  0.00    +0.000 OA
ENDBRANCH  13  14
ENDBRANCH   8  13
ENDBRANCH   1   6
BRANCH   2  17
ATOM     17  S   UNL     1       2.005   3.598  20.856  0.00  0.00    +0.000 S 
ATOM     18  O   UNL     1       2.309   3.623  22.270  0.00  0.00    +0.000 OA
ATOM     19  O   UNL     1       1.194   2.542  20.292  0.00  0.00    +0.000 OA
BRANCH  17  20
ATOM     20  N   UNL     1       3.522   3.542  20.070  0.00  0.00    +0.000 NA
ATOM     21  H   UNL     1       4.259   3.467  20.769  0.00  0.00    +0.000 HD
BRANCH  20  22
ATOM     22  C   UNL     1       3.610   2.451  19.064  0.00  0.00    +0.000 C 
BRANCH  22  23
ATOM     23  C   UNL     1       3.023   2.916  17.729  0.00  0.00    +0.000 C 
BRANCH  23  24
ATOM     24  C   UNL     1       3.614   4.274  17.338  0.00  0.00    +0.000 C 
BRANCH  24  25
ATOM     25  C   UNL     1       4.987   4.163  16.668  0.00  0.00    +0.000 C 
BRANCH  25  26
ATOM     26  C   UNL     1       5.950   5.158  17.276  0.00  0.00    +0.000 A 
ATOM     27  C   UNL     1       6.047   6.458  16.763  0.00  0.00    +0.000 A 
ATOM     28  C   UNL     1       6.998   7.349  17.266  0.00  0.00    +0.000 A 
ATOM     29  C   UNL     1       7.861   6.950  18.285  0.00  0.00    +0.000 A 
ATOM     30  C   UNL     1       7.764   5.663  18.811  0.00  0.00    +0.000 A 
ATOM     31  C   UNL     1       6.813   4.771  18.310  0.00  0.00    +0.000 A 
ENDBRANCH  25  26
ENDBRANCH  24  25
ENDBRANCH  23  24
ENDBRANCH  22  23
ENDBRANCH  20  22
ENDBRANCH  17  20
ENDBRANCH   2  17
TORSDOF 12
ENDMDL
MODEL 4
REMARK VINA RESULT:      -6.8      2.831      4.911
REMARK  Name = 
REMARK  14 active torsions:
REMARK  status: ('A' for Active; 'I' for Inactive)
REMARK    1  A    between atoms: C_1  and  C_2
REMARK    2  A    between atoms: C_2  and  O_4
REMARK    3  A    between atoms: O_4  and  C_5
REMARK    4  A    between atoms: C_8  and  C_9
REMARK    5  A    between atoms: C_10  and  S_11
REMARK    6  A    between atoms: S_11  and  N_14
REMARK    7  A    between atoms: N_14  and  C_15
REMARK    8  A    between atoms: C_15  and  C_16
REMARK    9  A    between atoms: C_16  and  C_17
REMARK   10  A    between atoms: C_17  and  C_18
REMARK   11  A    between atoms: C_18  and  C_19
REMARK   12  A    between atoms: C_26  and  O_27
REMARK   13  A    between atoms: O_27  and  C_28
REMARK   14  A    between atoms: C_28  and  C_29
REMARK                            x       y       z     vdW  Elec       q    Type
REMARK                         _______ _______ _______ _____ _____    ______ ____
ROOT
ATOM      1  C   UNL     1       2.282   5.865  20.355  0.00  0.00    +0.000 C 
ATOM      2  C   UNL     1       1.525   4.758  20.276  0.00  0.00    +0.000 C 
ENDROOT
BRANCH   1   6
ATOM      3  C   UNL     1       1.067   9.805  19.115  0.00  0.00    +0.000 A 
ATOM      4  C   UNL     1       1.950   9.017  18.357  0.00  0.00    +0.000 A 
ATOM      5  C   UNL     1       2.302   7.726  18.760  0.00  0.00    +0.000 A 
ATOM      6  C   UNL     1       1.833   7.204  19.963  0.00  0.00    +0.000 A 
ATOM      7  C   UNL     1       0.950   7.985  20.724  0.00  0.00    +0.000 A 
ATOM      8  C   UNL     1       0.570   9.278  20.308  0.00  0.00    +0.000 A 
BRANCH   3   9
ATOM      9  O   UNL     1       0.844  11.131  18.709  0.00  0.00    +0.000 OA
BRANCH   9  11
ATOM     10  C   UNL     1       2.500  12.725  18.071  0.00  0.00    +0.000 C 
ATOM     11  C   UNL     1       1.727  12.099  19.195  0.00  0.00    +0.000 C 
ATOM     12  O   UNL     1       1.842  12.452  20.365  0.00  0.00    +0.000 OA
ENDBRANCH   9  11
ENDBRANCH   3   9
BRANCH   8  13
ATOM     13  O   UNL     1      -0.339   9.876  21.241  0.00  0.00    +0.000 OA
BRANCH  13  14
ATOM     14  C   UNL     1      -0.230  10.493  22.484  0.00  0.00    +0.000 C 
ATOM     15  C   UNL     1      -0.002   9.433  23.541  0.00  0.00    +0.000 C 
ATOM     16  O   UNL     1      -0.335  11.690  22.719  0.00  0.00    +0.000 OA
ENDBRANCH  13  14
ENDBRANCH   8  13
ENDBRANCH   1   6
BRANCH   2  17
ATOM     17  S   UNL     1       2.138   3.250  20.866  0.00  0.00    +0.000 S 
ATOM     18  O   UNL     1       3.579   3.362  20.931  0.00  0.00    +0.000 OA
ATOM     19  O   UNL     1       1.377   2.825  22.020  0.00  0.00    +0.000 OA
BRANCH  17  20
ATOM     20  N   UNL     1       1.830   2.123  19.618  0.00  0.00    +0.000 NA
ATOM     21  H   UNL     1       0.982   2.393  19.124  0.00  0.00    +0.000 HD
BRANCH  20  22
ATOM     22  C   UNL     1       2.978   1.965  18.687  0.00  0.00    +0.000 C 
BRANCH  22  23
ATOM     23  C   UNL     1       2.712   2.730  17.387  0.00  0.00    +0.000 C 
BRANCH  23  24
ATOM     24  C   UNL     1       3.440   4.077  17.410  0.00  0.00    +0.000 C 
BRANCH  24  25
ATOM     25  C   UNL     1       4.637   4.131  16.457  0.00  0.00    +0.000 C 
BRANCH  25  26
ATOM     26  C   UNL     1       5.714   5.033  17.017  0.00  0.00    +0.000 A 
ATOM     27  C   UNL     1       6.595   4.564  17.999  0.00  0.00    +0.000 A 
ATOM     28  C   UNL     1       7.532   5.422  18.581  0.00  0.00    +0.000 A 
ATOM     29  C   UNL     1       7.596   6.757  18.186  0.00  0.00    +0.000 A 
ATOM     30  C   UNL     1       6.732   7.231  17.200  0.00  0.00    +0.000 A 
ATOM     31  C   UNL     1       5.796   6.374  16.618  0.00  0.00    +0.000 A 
ENDBRANCH  25  26
ENDBRANCH  24  25
ENDBRANCH  23  24
ENDBRANCH  22  23
ENDBRANCH  20  22
ENDBRANCH  17  20
ENDBRANCH   2  17
TORSDOF 12
ENDMDL
MODEL 5
REMARK VINA RESULT:      -6.8      1.408      1.896
REMARK  Name = 
REMARK  14 active torsions:
REMARK  status: ('A' for Active; 'I' for Inactive)
REMARK    1  A    between atoms: C_1  and  C_2
REMARK    2  A    between atoms: C_2  and  O_4
REMARK    3  A    between atoms: O_4  and  C_5
REMARK    4  A    between atoms: C_8  and  C_9
REMARK    5  A    between atoms: C_10  and  S_11
REMARK    6  A    between atoms: S_11  and  N_14
REMARK    7  A    between atoms: N_14  and  C_15
REMARK    8  A    between atoms: C_15  and  C_16
REMARK    9  A    between atoms: C_16  and  C_17
REMARK   10  A    between atoms: C_17  and  C_18
REMARK   11  A    between atoms: C_18  and  C_19
REMARK   12  A    between atoms: C_26  and  O_27
REMARK   13  A    between atoms: O_27  and  C_28
REMARK   14  A    between atoms: C_28  and  C_29
REMARK                            x       y       z     vdW  Elec       q    Type
REMARK                         _______ _______ _______ _____ _____    ______ ____
ROOT
ATOM      1  C   UNL     1       3.904   7.317  17.135  0.00  0.00    +0.000 C 
ATOM      2  C   UNL     1       4.169   6.019  16.913  0.00  0.00    +0.000 C 
ENDROOT
BRANCH   1   6
ATOM      3  C   UNL     1       1.073   8.633  20.100  0.00  0.00    +0.000 A 
ATOM      4  C   UNL     1       1.866   7.486  20.275  0.00  0.00    +0.000 A 
ATOM      5  C   UNL     1       2.805   7.098  19.316  0.00  0.00    +0.000 A 
ATOM      6  C   UNL     1       2.940   7.807  18.124  0.00  0.00    +0.000 A 
ATOM      7  C   UNL     1       2.151   8.954  17.944  0.00  0.00    +0.000 A 
ATOM      8  C   UNL     1       1.222   9.365  18.921  0.00  0.00    +0.000 A 
BRANCH   3   9
ATOM      9  O   UNL     1       0.075   8.902  21.051  0.00  0.00    +0.000 OA
BRANCH   9  11
ATOM     10  C   UNL     1      -0.388   9.636  23.273  0.00  0.00    +0.000 C 
ATOM     11  C   UNL     1       0.346   9.900  21.990  0.00  0.00    +0.000 C 
ATOM     12  O   UNL     1       1.112  10.847  21.841  0.00  0.00    +0.000 OA
ENDBRANCH   9  11
ENDBRANCH   3   9
BRANCH   8  13
ATOM     13  O   UNL     1       0.541  10.561  18.518  0.00  0.00    +0.000 OA
BRANCH  13  14
ATOM     14  C   UNL     1      -0.785  10.937  18.325  0.00  0.00    +0.000 C 
ATOM     15  C   UNL     1      -1.068  12.183  19.137  0.00  0.00    +0.000 C 
ATOM     16  O   UNL     1      -1.619  10.352  17.645  0.00  0.00    +0.000 OA
ENDBRANCH  13  14
ENDBRANCH   8  13
ENDBRANCH   1   6
BRANCH   2  17
ATOM     17  S   UNL     1       5.405   5.572  15.785  0.00  0.00    +0.000 S 
ATOM     18  O   UNL     1       5.235   4.166  15.490  0.00  0.00    +0.000 OA
ATOM     19  O   UNL     1       5.478   6.548  14.721  0.00  0.00    +0.000 OA
BRANCH  17  20
ATOM     20  N   UNL     1       6.868   5.673  16.663  0.00  0.00    +0.000 NA
ATOM     21  H   UNL     1       7.004   6.631  16.980  0.00  0.00    +0.000 HD
BRANCH  20  22
ATOM     22  C   UNL     1       6.930   4.710  17.795  0.00  0.00    +0.000 C 
BRANCH  22  23
ATOM     23  C   UNL     1       6.672   5.435  19.119  0.00  0.00    +0.000 C 
BRANCH  23  24
ATOM     24  C   UNL     1       5.431   4.855  19.804  0.00  0.00    +0.000 C 
BRANCH  24  25
ATOM     25  C   UNL     1       4.929   3.565  19.148  0.00  0.00    +0.000 C 
BRANCH  25  26
ATOM     26  C   UNL     1       3.439   3.417  19.354  0.00  0.00    +0.000 A 
ATOM     27  C   UNL     1       2.585   3.222  18.261  0.00  0.00    +0.000 A 
ATOM     28  C   UNL     1       1.201   3.174  18.442  0.00  0.00    +0.000 A 
ATOM     29  C   UNL     1       0.657   3.321  19.717  0.00  0.00    +0.000 A 
ATOM     30  C   UNL     1       1.498   3.502  20.813  0.00  0.00    +0.000 A 
ATOM     31  C   UNL     1       2.882   3.549  20.634  0.00  0.00    +0.000 A 
ENDBRANCH  25  26
ENDBRANCH  24  25
ENDBRANCH  23  24
ENDBRANCH  22  23
ENDBRANCH  20  22
ENDBRANCH  17  20
ENDBRANCH   2  17
TORSDOF 12
ENDMDL
MODEL 6
REMARK VINA RESULT:      -6.7      1.598      2.146
REMARK  Name = 
REMARK  14 active torsions:
REMARK  status: ('A' for Active; 'I' for Inactive)
REMARK    1  A    between atoms: C_1  and  C_2
REMARK    2  A    between atoms: C_2  and  O_4
REMARK    3  A    between atoms: O_4  and  C_5
REMARK    4  A    between atoms: C_8  and  C_9
REMARK    5  A    between atoms: C_10  and  S_11
REMARK    6  A    between atoms: S_11  and  N_14
REMARK    7  A    between atoms: N_14  and  C_15
REMARK    8  A    between atoms: C_15  and  C_16
REMARK    9  A    between atoms: C_16  and  C_17
REMARK   10  A    between atoms: C_17  and  C_18
REMARK   11  A    between atoms: C_18  and  C_19
REMARK   12  A    between atoms: C_26  and  O_27
REMARK   13  A    between atoms: O_27  and  C_28
REMARK   14  A    between atoms: C_28  and  C_29
REMARK                            x       y       z     vdW  Elec       q    Type
REMARK                         _______ _______ _______ _____ _____    ______ ____
ROOT
ATOM      1  C   UNL     1       2.990   7.615  17.218  0.00  0.00    +0.000 C 
ATOM      2  C   UNL     1       4.156   6.997  17.472  0.00  0.00    +0.000 C 
ENDROOT
BRANCH   1   6
ATOM      3  C   UNL     1       0.545   9.381  20.290  0.00  0.00    +0.000 A 
ATOM      4  C   UNL     1       1.391   8.285  20.539  0.00  0.00    +0.000 A 
ATOM      5  C   UNL     1       2.203   7.752  19.536  0.00  0.00    +0.000 A 
ATOM      6  C   UNL     1       2.153   8.254  18.237  0.00  0.00    +0.000 A 
ATOM      7  C   UNL     1       1.312   9.348  17.983  0.00  0.00    +0.000 A 
ATOM      8  C   UNL     1       0.510   9.907  18.998  0.00  0.00    +0.000 A 
BRANCH   3   9
ATOM      9  O   UNL     1      -0.324   9.794  21.313  0.00  0.00    +0.000 OA
BRANCH   9  11
ATOM     10  C   UNL     1      -1.333  11.517  22.618  0.00  0.00    +0.000 C 
ATOM     11  C   UNL     1      -0.139  11.084  21.819  0.00  0.00    +0.000 C 
ATOM     12  O   UNL     1       0.867  11.775  21.692  0.00  0.00    +0.000 OA
ENDBRANCH   9  11
ENDBRANCH   3   9
BRANCH   8  13
ATOM     13  O   UNL     1      -0.256  11.013  18.503  0.00  0.00    +0.000 OA
BRANCH  13  14
ATOM     14  C   UNL     1      -1.610  11.320  18.396  0.00  0.00    +0.000 C 
ATOM     15  C   UNL     1      -2.183  10.607  17.190  0.00  0.00    +0.000 C 
ATOM     16  O   UNL     1      -2.249  12.072  19.121  0.00  0.00    +0.000 OA
ENDBRANCH  13  14
ENDBRANCH   8  13
ENDBRANCH   1   6
BRANCH   2  17
ATOM     17  S   UNL     1       5.102   6.368  16.165  0.00  0.00    +0.000 S 
ATOM     18  O   UNL     1       4.784   4.962  16.036  0.00  0.00    +0.000 OA
ATOM     19  O   UNL     1       5.018   7.253  15.025  0.00  0.00    +0.000 OA
BRANCH  17  20
ATOM     20  N   UNL     1       6.718   6.415  16.721  0.00  0.00    +0.000 NA
ATOM     21  H   UNL     1       6.831   7.201  17.357  0.00  0.00    +0.000 HD
BRANCH  20  22
ATOM     22  C   UNL     1       7.150   5.138  17.348  0.00  0.00    +0.000 C 
BRANCH  22  23
ATOM     23  C   UNL     1       6.829   5.150  18.845  0.00  0.00    +0.000 C 
BRANCH  23  24
ATOM     24  C   UNL     1       5.676   4.187  19.144  0.00  0.00    +0.000 C 
BRANCH  24  25
ATOM     25  C   UNL     1       4.448   4.885  19.736  0.00  0.00    +0.000 C 
BRANCH  25  26
ATOM     26  C   UNL     1       3.213   4.036  19.533  0.00  0.00    +0.000 A 
ATOM     27  C   UNL     1       3.158   3.097  18.495  0.00  0.00    +0.000 A 
ATOM     28  C   UNL     1       1.987   2.376  18.252  0.00  0.00    +0.000 A 
ATOM     29  C   UNL     1       0.859   2.587  19.043  0.00  0.00    +0.000 A 
ATOM     30  C   UNL     1       0.907   3.509  20.087  0.00  0.00    +0.000 A 
ATOM     31  C   UNL     1       2.078   4.230  20.331  0.00  0.00    +0.000 A 
ENDBRANCH  25  26
ENDBRANCH  24  25
ENDBRANCH  23  24
ENDBRANCH  22  23
ENDBRANCH  20  22
ENDBRANCH  17  20
ENDBRANCH   2  17
TORSDOF 12
ENDMDL
MODEL 7
REMARK VINA RESULT:      -6.7      5.864      7.211
REMARK  Name = 
REMARK  14 active torsions:
REMARK  status: ('A' for Active; 'I' for Inactive)
REMARK    1  A    between atoms: C_1  and  C_2
REMARK    2  A    between atoms: C_2  and  O_4
REMARK    3  A    between atoms: O_4  and  C_5
REMARK    4  A    between atoms: C_8  and  C_9
REMARK    5  A    between atoms: C_10  and  S_11
REMARK    6  A    between atoms: S_11  and  N_14
REMARK    7  A    between atoms: N_14  and  C_15
REMARK    8  A    between atoms: C_15  and  C_16
REMARK    9  A    between atoms: C_16  and  C_17
REMARK   10  A    between atoms: C_17  and  C_18
REMARK   11  A    between atoms: C_18  and  C_19
REMARK   12  A    between atoms: C_26  and  O_27
REMARK   13  A    between atoms: O_27  and  C_28
REMARK   14  A    between atoms: C_28  and  C_29
REMARK                            x       y       z     vdW  Elec       q    Type
REMARK                         _______ _______ _______ _____ _____    ______ ____
ROOT
ATOM      1  C   UNL     1       8.828   9.076  18.811  0.00  0.00    +0.000 C 
ATOM      2  C   UNL     1       7.905   8.807  17.872  0.00  0.00    +0.000 C 
ENDROOT
BRANCH   1   6
ATOM      3  C   UNL     1      10.004  13.017  20.084  0.00  0.00    +0.000 A 
ATOM      4  C   UNL     1       9.781  11.968  20.994  0.00  0.00    +0.000 A 
ATOM      5  C   UNL     1       9.436  10.687  20.556  0.00  0.00    +0.000 A 
ATOM      6  C   UNL     1       9.242  10.426  19.201  0.00  0.00    +0.000 A 
ATOM      7  C   UNL     1       9.464  11.469  18.289  0.00  0.00    +0.000 A 
ATOM      8  C   UNL     1       9.839  12.756  18.723  0.00  0.00    +0.000 A 
BRANCH   3   9
ATOM      9  O   UNL     1      10.239  14.303  20.598  0.00  0.00    +0.000 OA
BRANCH   9  11
ATOM     10  C   UNL     1       9.485  15.396  22.579  0.00  0.00    +0.000 C 
ATOM     11  C   UNL     1       9.153  14.960  21.182  0.00  0.00    +0.000 C 
ATOM     12  O   UNL     1       8.081  15.210  20.640  0.00  0.00    +0.000 OA
ENDBRANCH   9  11
ENDBRANCH   3   9
BRANCH   8  13
ATOM     13  O   UNL     1      10.013  13.648  17.614  0.00  0.00    +0.000 OA
BRANCH  13  14
ATOM     14  C   UNL     1      10.359  14.987  17.456  0.00  0.00    +0.000 C 
ATOM     15  C   UNL     1      11.817  15.076  17.060  0.00  0.00    +0.000 C 
ATOM     16  O   UNL     1       9.632  15.956  17.638  0.00  0.00    +0.000 OA
ENDBRANCH  13  14
ENDBRANCH   8  13
ENDBRANCH   1   6
BRANCH   2  17
ATOM     17  S   UNL     1       7.430   7.169  17.573  0.00  0.00    +0.000 S 
ATOM     18  O   UNL     1       7.838   6.838  16.225  0.00  0.00    +0.000 OA
ATOM     19  O   UNL     1       7.813   6.333  18.688  0.00  0.00    +0.000 OA
BRANCH  17  20
ATOM     20  N   UNL     1       5.721   7.200  17.532  0.00  0.00    +0.000 NA
ATOM     21  H   UNL     1       5.408   8.144  17.314  0.00  0.00    +0.000 HD
BRANCH  20  22
ATOM     22  C   UNL     1       5.148   6.203  16.588  0.00  0.00    +0.000 C 
BRANCH  22  23
ATOM     23  C   UNL     1       4.032   5.410  17.273  0.00  0.00    +0.000 C 
BRANCH  23  24
ATOM     24  C   UNL     1       4.248   3.909  17.063  0.00  0.00    +0.000 C 
BRANCH  24  25
ATOM     25  C   UNL     1       2.979   3.080  17.288  0.00  0.00    +0.000 C 
BRANCH  25  26
ATOM     26  C   UNL     1       2.538   3.177  18.730  0.00  0.00    +0.000 A 
ATOM     27  C   UNL     1       3.325   2.634  19.754  0.00  0.00    +0.000 A 
ATOM     28  C   UNL     1       2.876   2.645  21.076  0.00  0.00    +0.000 A 
ATOM     29  C   UNL     1       1.635   3.198  21.388  0.00  0.00    +0.000 A 
ATOM     30  C   UNL     1       0.849   3.753  20.380  0.00  0.00    +0.000 A 
ATOM     31  C   UNL     1       1.298   3.743  19.058  0.00  0.00    +0.000 A 
ENDBRANCH  25  26
ENDBRANCH  24  25
ENDBRANCH  23  24
ENDBRANCH  22  23
ENDBRANCH  20  22
ENDBRANCH  17  20
ENDBRANCH   2  17
TORSDOF 12
ENDMDL
MODEL 8
REMARK VINA RESULT:      -6.6      3.381      8.877
REMARK  Name = 
REMARK  14 active torsions:
REMARK  status: ('A' for Active; 'I' for Inactive)
REMARK    1  A    between atoms: C_1  and  C_2
REMARK    2  A    between atoms: C_2  and  O_4
REMARK    3  A    between atoms: O_4  and  C_5
REMARK    4  A    between atoms: C_8  and  C_9
REMARK    5  A    between atoms: C_10  and  S_11
REMARK    6  A    between atoms: S_11  and  N_14
REMARK    7  A    between atoms: N_14  and  C_15
REMARK    8  A    between atoms: C_15  and  C_16
REMARK    9  A    between atoms: C_16  and  C_17
REMARK   10  A    between atoms: C_17  and  C_18
REMARK   11  A    between atoms: C_18  and  C_19
REMARK   12  A    between atoms: C_26  and  O_27
REMARK   13  A    between atoms: O_27  and  C_28
REMARK   14  A    between atoms: C_28  and  C_29
REMARK                            x       y       z     vdW  Elec       q    Type
REMARK                         _______ _______ _______ _____ _____    ______ ____
ROOT
ATOM      1  C   UNL     1       1.418   7.501  20.588  0.00  0.00    +0.000 C 
ATOM      2  C   UNL     1       1.461   8.739  21.109  0.00  0.00    +0.000 C 
ENDROOT
BRANCH   1   6
ATOM      3  C   UNL     1       4.213   6.051  17.651  0.00  0.00    +0.000 A 
ATOM      4  C   UNL     1       3.564   7.292  17.523  0.00  0.00    +0.000 A 
ATOM      5  C   UNL     1       2.688   7.759  18.507  0.00  0.00    +0.000 A 
ATOM      6  C   UNL     1       2.386   6.977  19.620  0.00  0.00    +0.000 A 
ATOM      7  C   UNL     1       3.031   5.738  19.753  0.00  0.00    +0.000 A 
ATOM      8  C   UNL     1       3.936   5.274  18.777  0.00  0.00    +0.000 A 
BRANCH   3   9
ATOM      9  O   UNL     1       4.992   5.596  16.575  0.00  0.00    +0.000 OA
BRANCH   9  11
ATOM     10  C   UNL     1       7.137   4.609  16.915  0.00  0.00    +0.000 C 
ATOM     11  C   UNL     1       6.363   5.862  16.628  0.00  0.00    +0.000 C 
ATOM     12  O   UNL     1       6.899   6.947  16.420  0.00  0.00    +0.000 OA
ENDBRANCH   9  11
ENDBRANCH   3   9
BRANCH   8  13
ATOM     13  O   UNL     1       4.471   3.992  19.133  0.00  0.00    +0.000 OA
BRANCH  13  14
ATOM     14  C   UNL     1       3.943   2.769  19.536  0.00  0.00    +0.000 C 
ATOM     15  C   UNL     1       3.457   2.016  18.316  0.00  0.00    +0.000 C 
ATOM     16  O   UNL     1       3.840   2.360  20.685  0.00  0.00    +0.000 OA
ENDBRANCH  13  14
ENDBRANCH   8  13
ENDBRANCH   1   6
BRANCH   2  17
ATOM     17  S   UNL     1       0.316   9.204  22.322  0.00  0.00    +0.000 S 
ATOM     18  O   UNL     1      -0.765   8.244  22.290  0.00  0.00    +0.000 OA
ATOM     19  O   UNL     1       1.002   9.504  23.559  0.00  0.00    +0.000 OA
BRANCH  17  20
ATOM     20  N   UNL     1      -0.364  10.667  21.756  0.00  0.00    +0.000 NA
ATOM     21  H   UNL     1      -0.964  10.471  20.958  0.00  0.00    +0.000 HD
BRANCH  20  22
ATOM     22  C   UNL     1      -1.092  11.413  22.817  0.00  0.00    +0.000 C 
BRANCH  22  23
ATOM     23  C   UNL     1      -1.513  12.791  22.298  0.00  0.00    +0.000 C 
BRANCH  23  24
ATOM     24  C   UNL     1      -2.652  12.646  21.284  0.00  0.00    +0.000 C 
BRANCH  24  25
ATOM     25  C   UNL     1      -2.242  13.033  19.860  0.00  0.00    +0.000 C 
BRANCH  25  26
ATOM     26  C   UNL     1      -2.452  11.868  18.919  0.00  0.00    +0.000 A 
ATOM     27  C   UNL     1      -1.361  11.122  18.455  0.00  0.00    +0.000 A 
ATOM     28  C   UNL     1      -1.545  10.103  17.518  0.00  0.00    +0.000 A 
ATOM     29  C   UNL     1      -2.821   9.821  17.034  0.00  0.00    +0.000 A 
ATOM     30  C   UNL     1      -3.916  10.549  17.498  0.00  0.00    +0.000 A 
ATOM     31  C   UNL     1      -3.733  11.567  18.436  0.00  0.00    +0.000 A 
ENDBRANCH  25  26
ENDBRANCH  24  25
ENDBRANCH  23  24
ENDBRANCH  22  23
ENDBRANCH  20  22
ENDBRANCH  17  20
ENDBRANCH   2  17
TORSDOF 12
ENDMDL
MODEL 9
REMARK VINA RESULT:      -6.6      1.538      2.089
REMARK  Name = 
REMARK  14 active torsions:
REMARK  status: ('A' for Active; 'I' for Inactive)
REMARK    1  A    between atoms: C_1  and  C_2
REMARK    2  A    between atoms: C_2  and  O_4
REMARK    3  A    between atoms: O_4  and  C_5
REMARK    4  A    between atoms: C_8  and  C_9
REMARK    5  A    between atoms: C_10  and  S_11
REMARK    6  A    between atoms: S_11  and  N_14
REMARK    7  A    between atoms: N_14  and  C_15
REMARK    8  A    between atoms: C_15  and  C_16
REMARK    9  A    between atoms: C_16  and  C_17
REMARK   10  A    between atoms: C_17  and  C_18
REMARK   11  A    between atoms: C_18  and  C_19
REMARK   12  A    between atoms: C_26  and  O_27
REMARK   13  A    between atoms: O_27  and  C_28
REMARK   14  A    between atoms: C_28  and  C_29
REMARK                            x       y       z     vdW  Elec       q    Type
REMARK                         _______ _______ _______ _____ _____    ______ ____
ROOT
ATOM      1  C   UNL     1       3.295   7.791  17.191  0.00  0.00    +0.000 C 
ATOM      2  C   UNL     1       4.021   6.666  17.299  0.00  0.00    +0.000 C 
ENDROOT
BRANCH   1   6
ATOM      3  C   UNL     1       0.562   9.087  20.255  0.00  0.00    +0.000 A 
ATOM      4  C   UNL     1       1.527   8.091  20.482  0.00  0.00    +0.000 A 
ATOM      5  C   UNL     1       2.429   7.712  19.484  0.00  0.00    +0.000 A 
ATOM      6  C   UNL     1       2.356   8.271  18.209  0.00  0.00    +0.000 A 
ATOM      7  C   UNL     1       1.395   9.266  17.978  0.00  0.00    +0.000 A 
ATOM      8  C   UNL     1       0.501   9.672  18.989  0.00  0.00    +0.000 A 
BRANCH   3   9
ATOM      9  O   UNL     1      -0.381   9.340  21.265  0.00  0.00    +0.000 OA
BRANCH   9  11
ATOM     10  C   UNL     1      -0.475  11.494  22.285  0.00  0.00    +0.000 C 
ATOM     11  C   UNL     1       0.051  10.090  22.362  0.00  0.00    +0.000 C 
ATOM     12  O   UNL     1       0.723   9.678  23.303  0.00  0.00    +0.000 OA
ENDBRANCH   9  11
ENDBRANCH   3   9
BRANCH   8  13
ATOM     13  O   UNL     1      -0.380  10.702  18.520  0.00  0.00    +0.000 OA
BRANCH  13  14
ATOM     14  C   UNL     1      -0.620  12.033  18.847  0.00  0.00    +0.000 C 
ATOM     15  C   UNL     1      -2.082  12.196  19.207  0.00  0.00    +0.000 C 
ATOM     16  O   UNL     1       0.190  12.951  18.818  0.00  0.00    +0.000 OA
ENDBRANCH  13  14
ENDBRANCH   8  13
ENDBRANCH   1   6
BRANCH   2  17
ATOM     17  S   UNL     1       5.171   6.260  16.070  0.00  0.00    +0.000 S 
ATOM     18  O   UNL     1       5.073   4.836  15.836  0.00  0.00    +0.000 OA
ATOM     19  O   UNL     1       5.073   7.197  14.974  0.00  0.00    +0.000 OA
BRANCH  17  20
ATOM     20  N   UNL     1       6.701   6.493  16.796  0.00  0.00    +0.000 NA
ATOM     21  H   UNL     1       6.655   7.288  17.429  0.00  0.00    +0.000 HD
BRANCH  20  22
ATOM     22  C   UNL     1       7.204   5.275  17.486  0.00  0.00    +0.000 C 
BRANCH  22  23
ATOM     23  C   UNL     1       7.114   5.453  19.004  0.00  0.00    +0.000 C 
BRANCH  23  24
ATOM     24  C   UNL     1       5.667   5.265  19.471  0.00  0.00    +0.000 C 
BRANCH  24  25
ATOM     25  C   UNL     1       5.114   3.868  19.171  0.00  0.00    +0.000 C 
BRANCH  25  26
ATOM     26  C   UNL     1       3.611   3.855  19.326  0.00  0.00    +0.000 A 
ATOM     27  C   UNL     1       3.020   4.137  20.565  0.00  0.00    +0.000 A 
ATOM     28  C   UNL     1       1.637   4.037  20.730  0.00  0.00    +0.000 A 
ATOM     29  C   UNL     1       0.831   3.655  19.660  0.00  0.00    +0.000 A 
ATOM     30  C   UNL     1       1.406   3.385  18.420  0.00  0.00    +0.000 A 
ATOM     31  C   UNL     1       2.789   3.484  18.253  0.00  0.00    +0.000 A 
ENDBRANCH  25  26
ENDBRANCH  24  25
ENDBRANCH  23  24
ENDBRANCH  22  23
ENDBRANCH  20  22
ENDBRANCH  17  20
ENDBRANCH   2  17
TORSDOF 12
ENDMDL
