MODEL 1
REMARK VINA RESULT:      -8.8      0.000      0.000
REMARK  Name = 
REMARK  2 active torsions:
REMARK  status: ('A' for Active; 'I' for Inactive)
REMARK    1  A    between atoms: C_4  and  C_5
REMARK    2  A    between atoms: C_5  and  N_6
REMARK                            x       y       z     vdW  Elec       q    Type
REMARK                         _______ _______ _______ _____ _____    ______ ____
ROOT
ATOM      1  N   UNL     1       4.643   4.729  17.511  0.00  0.00    +0.000 N 
ATOM      2  C   UNL     1       4.365   4.240  16.266  0.00  0.00    +0.000 A 
ATOM      3  C   UNL     1       5.295   4.411  15.245  0.00  0.00    +0.000 A 
ATOM      4  C   UNL     1       5.144   3.776  14.008  0.00  0.00    +0.000 A 
ATOM      5  C   UNL     1       6.200   3.802  13.083  0.00  0.00    +0.000 A 
ATOM      6  C   UNL     1       7.344   4.511  13.373  0.00  0.00    +0.000 A 
ATOM      7  C   UNL     1       7.425   5.291  14.525  0.00  0.00    +0.000 A 
ATOM      8  C   UNL     1       6.399   5.261  15.480  0.00  0.00    +0.000 A 
ATOM      9  C   UNL     1       6.542   5.855  16.757  0.00  0.00    +0.000 A 
ATOM     10  C   UNL     1       7.393   6.916  17.163  0.00  0.00    +0.000 A 
ATOM     11  C   UNL     1       7.891   6.921  18.465  0.00  0.00    +0.000 A 
ATOM     12  C   UNL     1       7.626   5.823  19.275  0.00  0.00    +0.000 A 
ATOM     13  C   UNL     1       6.568   4.981  18.948  0.00  0.00    +0.000 A 
ATOM     14  C   UNL     1       5.861   5.210  17.773  0.00  0.00    +0.000 A 
ENDROOT
BRANCH   1  15
ATOM     15  C   UNL     1       3.463   5.448  18.126  0.00  0.00    +0.000 C 
BRANCH  15  19
ATOM     16  C   UNL     1       1.135   3.013  20.807  0.00  0.00    +0.000 A 
ATOM     17  C   UNL     1       0.900   2.937  19.437  0.00  0.00    +0.000 A 
ATOM     18  C   UNL     1       1.622   3.746  18.557  0.00  0.00    +0.000 A 
ATOM     19  C   UNL     1       2.568   4.668  19.048  0.00  0.00    +0.000 A 
ATOM     20  C   UNL     1       2.767   4.748  20.429  0.00  0.00    +0.000 A 
ATOM     21  C   UNL     1       2.071   3.919  21.291  0.00  0.00    +0.000 A 
ENDBRANCH  15  19
ENDBRANCH   1  15
TORSDOF 2
ENDMDL
MODEL 2
REMARK VINA RESULT:      -8.7      0.194      1.068
REMARK  Name = 
REMARK  2 active torsions:
REMARK  status: ('A' for Active; 'I' for Inactive)
REMARK    1  A    between atoms: C_4  and  C_5
REMARK    2  A    between atoms: C_5  and  N_6
REMARK                            x       y       z     vdW  Elec       q    Type
REMARK                         _______ _______ _______ _____ _____    ______ ____
ROOT
ATOM      1  N   UNL     1       4.748   4.604  17.353  0.00  0.00    +0.000 N 
ATOM      2  C   UNL     1       4.494   4.125  16.098  0.00  0.00    +0.000 A 
ATOM      3  C   UNL     1       5.412   4.368  15.079  0.00  0.00    +0.000 A 
ATOM      4  C   UNL     1       5.294   3.750  13.830  0.00  0.00    +0.000 A 
ATOM      5  C   UNL     1       6.345   3.853  12.905  0.00  0.00    +0.000 A 
ATOM      6  C   UNL     1       7.448   4.620  13.208  0.00  0.00    +0.000 A 
ATOM      7  C   UNL     1       7.488   5.380  14.375  0.00  0.00    +0.000 A 
ATOM      8  C   UNL     1       6.467   5.274  15.331  0.00  0.00    +0.000 A 
ATOM      9  C   UNL     1       6.579   5.849  16.619  0.00  0.00    +0.000 A 
ATOM     10  C   UNL     1       7.371   6.948  17.045  0.00  0.00    +0.000 A 
ATOM     11  C   UNL     1       7.870   6.954  18.347  0.00  0.00    +0.000 A 
ATOM     12  C   UNL     1       7.669   5.828  19.135  0.00  0.00    +0.000 A 
ATOM     13  C   UNL     1       6.659   4.935  18.792  0.00  0.00    +0.000 A 
ATOM     14  C   UNL     1       5.937   5.147  17.623  0.00  0.00    +0.000 A 
ENDROOT
BRANCH   1  15
ATOM     15  C   UNL     1       3.530   5.244  17.982  0.00  0.00    +0.000 C 
BRANCH  15  19
ATOM     16  C   UNL     1       1.030   3.105  20.759  0.00  0.00    +0.000 A 
ATOM     17  C   UNL     1       2.021   3.953  21.246  0.00  0.00    +0.000 A 
ATOM     18  C   UNL     1       2.863   4.626  20.358  0.00  0.00    +0.000 A 
ATOM     19  C   UNL     1       2.740   4.429  18.969  0.00  0.00    +0.000 A 
ATOM     20  C   UNL     1       1.757   3.552  18.504  0.00  0.00    +0.000 A 
ATOM     21  C   UNL     1       0.905   2.915  19.389  0.00  0.00    +0.000 A 
ENDBRANCH  15  19
ENDBRANCH   1  15
TORSDOF 2
ENDMDL
MODEL 3
REMARK VINA RESULT:      -8.4      2.690      4.481
REMARK  Name = 
REMARK  2 active torsions:
REMARK  status: ('A' for Active; 'I' for Inactive)
REMARK    1  A    between atoms: C_4  and  C_5
REMARK    2  A    between atoms: C_5  and  N_6
REMARK                            x       y       z     vdW  Elec       q    Type
REMARK                         _______ _______ _______ _____ _____    ______ ____
ROOT
ATOM      1  N   UNL     1       2.881   5.894  18.240  0.00  0.00    +0.000 N 
ATOM      2  C   UNL     1       3.844   6.458  17.449  0.00  0.00    +0.000 A 
ATOM      3  C   UNL     1       4.677   5.632  16.700  0.00  0.00    +0.000 A 
ATOM      4  C   UNL     1       5.551   6.156  15.741  0.00  0.00    +0.000 A 
ATOM      5  C   UNL     1       6.218   5.286  14.864  0.00  0.00    +0.000 A 
ATOM      6  C   UNL     1       6.061   3.925  15.002  0.00  0.00    +0.000 A 
ATOM      7  C   UNL     1       5.335   3.397  16.067  0.00  0.00    +0.000 A 
ATOM      8  C   UNL     1       4.633   4.240  16.941  0.00  0.00    +0.000 A 
ATOM      9  C   UNL     1       3.708   3.741  17.889  0.00  0.00    +0.000 A 
ATOM     10  C   UNL     1       3.640   2.454  18.484  0.00  0.00    +0.000 A 
ATOM     11  C   UNL     1       2.392   1.934  18.824  0.00  0.00    +0.000 A 
ATOM     12  C   UNL     1       1.258   2.649  18.458  0.00  0.00    +0.000 A 
ATOM     13  C   UNL     1       1.380   4.004  18.162  0.00  0.00    +0.000 A 
ATOM     14  C   UNL     1       2.644   4.583  18.155  0.00  0.00    +0.000 A 
ENDROOT
BRANCH   1  15
ATOM     15  C   UNL     1       2.819   6.527  19.612  0.00  0.00    +0.000 C 
BRANCH  15  19
ATOM     16  C   UNL     1       0.160   9.886  20.041  0.00  0.00    +0.000 A 
ATOM     17  C   UNL     1       0.871   9.724  18.855  0.00  0.00    +0.000 A 
ATOM     18  C   UNL     1       1.764   8.660  18.714  0.00  0.00    +0.000 A 
ATOM     19  C   UNL     1       1.978   7.762  19.778  0.00  0.00    +0.000 A 
ATOM     20  C   UNL     1       1.276   7.960  20.970  0.00  0.00    +0.000 A 
ATOM     21  C   UNL     1       0.368   8.997  21.089  0.00  0.00    +0.000 A 
ENDBRANCH  15  19
ENDBRANCH   1  15
TORSDOF 2
ENDMDL
MODEL 4
REMARK VINA RESULT:      -8.3      2.687      4.527
REMARK  Name = 
REMARK  2 active torsions:
REMARK  status: ('A' for Active; 'I' for Inactive)
REMARK    1  A    between atoms: C_4  and  C_5
REMARK    2  A    between atoms: C_5  and  N_6
REMARK                            x       y       z     vdW  Elec       q    Type
REMARK                         _______ _______ _______ _____ _____    ______ ____
ROOT
ATOM      1  N   UNL     1       2.951   5.929  18.174  0.00  0.00    +0.000 N 
ATOM      2  C   UNL     1       3.922   6.469  17.378  0.00  0.00    +0.000 A 
ATOM      3  C   UNL     1       4.742   5.623  16.636  0.00  0.00    +0.000 A 
ATOM      4  C   UNL     1       5.623   6.122  15.673  0.00  0.00    +0.000 A 
ATOM      5  C   UNL     1       6.276   5.234  14.804  0.00  0.00    +0.000 A 
ATOM      6  C   UNL     1       6.097   3.877  14.955  0.00  0.00    +0.000 A 
ATOM      7  C   UNL     1       5.362   3.371  16.026  0.00  0.00    +0.000 A 
ATOM      8  C   UNL     1       4.675   4.234  16.891  0.00  0.00    +0.000 A 
ATOM      9  C   UNL     1       3.743   3.759  17.844  0.00  0.00    +0.000 A 
ATOM     10  C   UNL     1       3.654   2.480  18.452  0.00  0.00    +0.000 A 
ATOM     11  C   UNL     1       2.398   1.984  18.798  0.00  0.00    +0.000 A 
ATOM     12  C   UNL     1       1.276   2.714  18.425  0.00  0.00    +0.000 A 
ATOM     13  C   UNL     1       1.419   4.063  18.116  0.00  0.00    +0.000 A 
ATOM     14  C   UNL     1       2.693   4.621  18.102  0.00  0.00    +0.000 A 
ENDROOT
BRANCH   1  15
ATOM     15  C   UNL     1       2.900   6.576  19.540  0.00  0.00    +0.000 C 
BRANCH  15  19
ATOM     16  C   UNL     1       0.383  10.014  20.162  0.00  0.00    +0.000 A 
ATOM     17  C   UNL     1       0.540   9.087  21.189  0.00  0.00    +0.000 A 
ATOM     18  C   UNL     1       1.324   7.949  20.991  0.00  0.00    +0.000 A 
ATOM     19  C   UNL     1       1.935   7.711  19.743  0.00  0.00    +0.000 A 
ATOM     20  C   UNL     1       1.741   8.640  18.718  0.00  0.00    +0.000 A 
ATOM     21  C   UNL     1       0.989   9.782  18.933  0.00  0.00    +0.000 A 
ENDBRANCH  15  19
ENDBRANCH   1  15
TORSDOF 2
ENDMDL
MODEL 5
REMARK VINA RESULT:      -8.3      1.066      6.085
REMARK  Name = 
REMARK  2 active torsions:
REMARK  status: ('A' for Active; 'I' for Inactive)
REMARK    1  A    between atoms: C_4  and  C_5
REMARK    2  A    between atoms: C_5  and  N_6
REMARK                            x       y       z     vdW  Elec       q    Type
REMARK                         _______ _______ _______ _____ _____    ______ ____
ROOT
ATOM      1  N   UNL     1       5.132   4.640  16.297  0.00  0.00    +0.000 N 
ATOM      2  C   UNL     1       3.864   4.198  16.556  0.00  0.00    +0.000 A 
ATOM      3  C   UNL     1       3.337   4.358  17.835  0.00  0.00    +0.000 A 
ATOM      4  C   UNL     1       1.991   4.093  18.106  0.00  0.00    +0.000 A 
ATOM      5  C   UNL     1       1.449   4.463  19.347  0.00  0.00    +0.000 A 
ATOM      6  C   UNL     1       2.264   5.017  20.310  0.00  0.00    +0.000 A 
ATOM      7  C   UNL     1       3.639   5.116  20.108  0.00  0.00    +0.000 A 
ATOM      8  C   UNL     1       4.204   4.782  18.868  0.00  0.00    +0.000 A 
ATOM      9  C   UNL     1       5.550   5.081  18.550  0.00  0.00    +0.000 A 
ATOM     10  C   UNL     1       6.656   5.275  19.418  0.00  0.00    +0.000 A 
ATOM     11  C   UNL     1       7.659   6.167  19.043  0.00  0.00    +0.000 A 
ATOM     12  C   UNL     1       7.476   6.917  17.888  0.00  0.00    +0.000 A 
ATOM     13  C   UNL     1       6.553   6.483  16.940  0.00  0.00    +0.000 A 
ATOM     14  C   UNL     1       5.778   5.362  17.215  0.00  0.00    +0.000 A 
ENDROOT
BRANCH   1  15
ATOM     15  C   UNL     1       5.939   3.639  15.501  0.00  0.00    +0.000 C 
BRANCH  15  19
ATOM     16  C   UNL     1       7.376   4.513  11.538  0.00  0.00    +0.000 A 
ATOM     17  C   UNL     1       7.849   5.257  12.616  0.00  0.00    +0.000 A 
ATOM     18  C   UNL     1       7.367   5.010  13.902  0.00  0.00    +0.000 A 
ATOM     19  C   UNL     1       6.376   4.031  14.117  0.00  0.00    +0.000 A 
ATOM     20  C   UNL     1       5.894   3.316  13.017  0.00  0.00    +0.000 A 
ATOM     21  C   UNL     1       6.403   3.545  11.750  0.00  0.00    +0.000 A 
ENDBRANCH  15  19
ENDBRANCH   1  15
TORSDOF 2
ENDMDL
MODEL 6
REMARK VINA RESULT:      -7.9      1.131      5.981
REMARK  Name = 
REMARK  2 active torsions:
REMARK  status: ('A' for Active; 'I' for Inactive)
REMARK    1  A    between atoms: C_4  and  C_5
REMARK    2  A    between atoms: C_5  and  N_6
REMARK                            x       y       z     vdW  Elec       q    Type
REMARK                         _______ _______ _______ _____ _____    ______ ____
ROOT
ATOM      1  N   UNL     1       5.225   4.619  16.261  0.00  0.00    +0.000 N 
ATOM      2  C   UNL     1       3.944   4.203  16.498  0.00  0.00    +0.000 A 
ATOM      3  C   UNL     1       3.382   4.417  17.754  0.00  0.00    +0.000 A 
ATOM      4  C   UNL     1       2.026   4.180  17.995  0.00  0.00    +0.000 A 
ATOM      5  C   UNL     1       1.453   4.603  19.205  0.00  0.00    +0.000 A 
ATOM      6  C   UNL     1       2.246   5.182  20.170  0.00  0.00    +0.000 A 
ATOM      7  C   UNL     1       3.628   5.256  20.005  0.00  0.00    +0.000 A 
ATOM      8  C   UNL     1       4.224   4.869  18.796  0.00  0.00    +0.000 A 
ATOM      9  C   UNL     1       5.583   5.138  18.507  0.00  0.00    +0.000 A 
ATOM     10  C   UNL     1       6.665   5.350  19.401  0.00  0.00    +0.000 A 
ATOM     11  C   UNL     1       7.692   6.215  19.023  0.00  0.00    +0.000 A 
ATOM     12  C   UNL     1       7.553   6.923  17.835  0.00  0.00    +0.000 A 
ATOM     13  C   UNL     1       6.653   6.467  16.878  0.00  0.00    +0.000 A 
ATOM     14  C   UNL     1       5.854   5.366  17.170  0.00  0.00    +0.000 A 
ENDROOT
BRANCH   1  15
ATOM     15  C   UNL     1       6.041   3.579  15.527  0.00  0.00    +0.000 C 
BRANCH  15  19
ATOM     16  C   UNL     1       7.315   4.822  11.606  0.00  0.00    +0.000 A 
ATOM     17  C   UNL     1       6.393   3.786  11.729  0.00  0.00    +0.000 A 
ATOM     18  C   UNL     1       5.997   3.347  12.994  0.00  0.00    +0.000 A 
ATOM     19  C   UNL     1       6.549   3.925  14.155  0.00  0.00    +0.000 A 
ATOM     20  C   UNL     1       7.494   4.943  14.008  0.00  0.00    +0.000 A 
ATOM     21  C   UNL     1       7.856   5.394  12.751  0.00  0.00    +0.000 A 
ENDBRANCH  15  19
ENDBRANCH   1  15
TORSDOF 2
ENDMDL
MODEL 7
REMARK VINA RESULT:      -7.8      2.049      6.240
REMARK  Name = 
REMARK  2 active torsions:
REMARK  status: ('A' for Active; 'I' for Inactive)
REMARK    1  A    between atoms: C_4  and  C_5
REMARK    2  A    between atoms: C_5  and  N_6
REMARK                            x       y       z     vdW  Elec       q    Type
REMARK                         _______ _______ _______ _____ _____    ______ ____
ROOT
ATOM      1  N   UNL     1       3.113   6.568  17.720  0.00  0.00    +0.000 N 
ATOM      2  C   UNL     1       3.077   5.207  17.604  0.00  0.00    +0.000 A 
ATOM      3  C   UNL     1       2.371   4.462  18.545  0.00  0.00    +0.000 A 
ATOM      4  C   UNL     1       2.149   3.092  18.373  0.00  0.00    +0.000 A 
ATOM      5  C   UNL     1       1.261   2.421  19.228  0.00  0.00    +0.000 A 
ATOM      6  C   UNL     1       0.672   3.103  20.270  0.00  0.00    +0.000 A 
ATOM      7  C   UNL     1       1.029   4.420  20.552  0.00  0.00    +0.000 A 
ATOM      8  C   UNL     1       1.890   5.124  19.698  0.00  0.00    +0.000 A 
ATOM      9  C   UNL     1       2.096   6.519  19.820  0.00  0.00    +0.000 A 
ATOM     10  C   UNL     1       1.944   7.352  20.958  0.00  0.00    +0.000 A 
ATOM     11  C   UNL     1       1.536   8.673  20.777  0.00  0.00    +0.000 A 
ATOM     12  C   UNL     1       1.184   9.084  19.497  0.00  0.00    +0.000 A 
ATOM     13  C   UNL     1       1.629   8.347  18.404  0.00  0.00    +0.000 A 
ATOM     14  C   UNL     1       2.339   7.172  18.625  0.00  0.00    +0.000 A 
ENDROOT
BRANCH   1  15
ATOM     15  C   UNL     1       4.500   7.129  17.502  0.00  0.00    +0.000 C 
BRANCH  15  19
ATOM     16  C   UNL     1       7.206   4.368  15.606  0.00  0.00    +0.000 A 
ATOM     17  C   UNL     1       7.336   4.626  16.968  0.00  0.00    +0.000 A 
ATOM     18  C   UNL     1       6.489   5.546  17.590  0.00  0.00    +0.000 A 
ATOM     19  C   UNL     1       5.520   6.243  16.842  0.00  0.00    +0.000 A 
ATOM     20  C   UNL     1       5.426   5.990  15.471  0.00  0.00    +0.000 A 
ATOM     21  C   UNL     1       6.247   5.053  14.869  0.00  0.00    +0.000 A 
ENDBRANCH  15  19
ENDBRANCH   1  15
TORSDOF 2
ENDMDL
MODEL 8
REMARK VINA RESULT:      -7.7      2.916      4.894
REMARK  Name = 
REMARK  2 active torsions:
REMARK  status: ('A' for Active; 'I' for Inactive)
REMARK    1  A    between atoms: C_4  and  C_5
REMARK    2  A    between atoms: C_5  and  N_6
REMARK                            x       y       z     vdW  Elec       q    Type
REMARK                         _______ _______ _______ _____ _____    ______ ____
ROOT
ATOM      1  N   UNL     1       3.486   6.582  18.377  0.00  0.00    +0.000 N 
ATOM      2  C   UNL     1       2.489   5.804  18.895  0.00  0.00    +0.000 A 
ATOM      3  C   UNL     1       2.474   4.441  18.610  0.00  0.00    +0.000 A 
ATOM      4  C   UNL     1       1.589   3.572  19.256  0.00  0.00    +0.000 A 
ATOM      5  C   UNL     1       1.744   2.185  19.101  0.00  0.00    +0.000 A 
ATOM      6  C   UNL     1       2.718   1.697  18.259  0.00  0.00    +0.000 A 
ATOM      7  C   UNL     1       3.481   2.562  17.477  0.00  0.00    +0.000 A 
ATOM      8  C   UNL     1       3.369   3.951  17.633  0.00  0.00    +0.000 A 
ATOM      9  C   UNL     1       4.279   4.852  17.028  0.00  0.00    +0.000 A 
ATOM     10  C   UNL     1       5.083   4.674  15.872  0.00  0.00    +0.000 A 
ATOM     11  C   UNL     1       6.323   5.308  15.810  0.00  0.00    +0.000 A 
ATOM     12  C   UNL     1       6.769   5.995  16.933  0.00  0.00    +0.000 A 
ATOM     13  C   UNL     1       5.845   6.387  17.896  0.00  0.00    +0.000 A 
ATOM     14  C   UNL     1       4.515   6.005  17.753  0.00  0.00    +0.000 A 
ENDROOT
BRANCH   1  15
ATOM     15  C   UNL     1       2.965   7.883  17.808  0.00  0.00    +0.000 C 
BRANCH  15  19
ATOM     16  C   UNL     1      -0.100  10.097  19.867  0.00  0.00    +0.000 A 
ATOM     17  C   UNL     1       0.734   9.249  20.591  0.00  0.00    +0.000 A 
ATOM     18  C   UNL     1       1.709   8.497  19.933  0.00  0.00    +0.000 A 
ATOM     19  C   UNL     1       1.837   8.564  18.531  0.00  0.00    +0.000 A 
ATOM     20  C   UNL     1       0.971   9.400  17.821  0.00  0.00    +0.000 A 
ATOM     21  C   UNL     1       0.029  10.166  18.485  0.00  0.00    +0.000 A 
ENDBRANCH  15  19
ENDBRANCH   1  15
TORSDOF 2
ENDMDL
MODEL 9
REMARK VINA RESULT:      -7.7      2.897      4.919
REMARK  Name = 
REMARK  2 active torsions:
REMARK  status: ('A' for Active; 'I' for Inactive)
REMARK    1  A    between atoms: C_4  and  C_5
REMARK    2  A    between atoms: C_5  and  N_6
REMARK                            x       y       z     vdW  Elec       q    Type
REMARK                         _______ _______ _______ _____ _____    ______ ____
ROOT
ATOM      1  N   UNL     1       3.397   6.581  18.411  0.00  0.00    +0.000 N 
ATOM      2  C   UNL     1       2.370   5.862  18.956  0.00  0.00    +0.000 A 
ATOM      3  C   UNL     1       2.298   4.492  18.717  0.00  0.00    +0.000 A 
ATOM      4  C   UNL     1       1.381   3.682  19.393  0.00  0.00    +0.000 A 
ATOM      5  C   UNL     1       1.478   2.286  19.284  0.00  0.00    +0.000 A 
ATOM      6  C   UNL     1       2.429   1.731  18.457  0.00  0.00    +0.000 A 
ATOM      7  C   UNL     1       3.225   2.537  17.646  0.00  0.00    +0.000 A 
ATOM      8  C   UNL     1       3.171   3.934  17.755  0.00  0.00    +0.000 A 
ATOM      9  C   UNL     1       4.114   4.776  17.120  0.00  0.00    +0.000 A 
ATOM     10  C   UNL     1       4.908   4.526  15.970  0.00  0.00    +0.000 A 
ATOM     11  C   UNL     1       6.173   5.107  15.885  0.00  0.00    +0.000 A 
ATOM     12  C   UNL     1       6.649   5.812  16.983  0.00  0.00    +0.000 A 
ATOM     13  C   UNL     1       5.744   6.274  17.934  0.00  0.00    +0.000 A 
ATOM     14  C   UNL     1       4.400   5.942  17.806  0.00  0.00    +0.000 A 
ENDROOT
BRANCH   1  15
ATOM     15  C   UNL     1       2.928   7.883  17.800  0.00  0.00    +0.000 C 
BRANCH  15  19
ATOM     16  C   UNL     1      -0.176   9.926  19.973  0.00  0.00    +0.000 A 
ATOM     17  C   UNL     1      -0.042  10.146  18.604  0.00  0.00    +0.000 A 
ATOM     18  C   UNL     1       0.982   9.518  17.892  0.00  0.00    +0.000 A 
ATOM     19  C   UNL     1       1.906   8.686  18.555  0.00  0.00    +0.000 A 
ATOM     20  C   UNL     1       1.770   8.502  19.933  0.00  0.00    +0.000 A 
ATOM     21  C   UNL     1       0.732   9.102  20.625  0.00  0.00    +0.000 A 
ENDBRANCH  15  19
ENDBRANCH   1  15
TORSDOF 2
ENDMDL
