MODEL 1
REMARK VINA RESULT:      -8.5      0.000      0.000
REMARK  Name = 
REMARK  4 active torsions:
REMARK  status: ('A' for Active; 'I' for Inactive)
REMARK    1  A    between atoms: C_2  and  C_12
REMARK    2  A    between atoms: N_3  and  N_4
REMARK    3  A    between atoms: C_5  and  C_6
REMARK    4  A    between atoms: C_14  and  C_15
REMARK                            x       y       z     vdW  Elec       q    Type
REMARK                         _______ _______ _______ _____ _____    ______ ____
ROOT
ATOM      1  C   UNL     1       3.345   5.914  18.543  0.00  0.00    +0.000 A 
ATOM      2  C   UNL     1       4.698   6.247  18.356  0.00  0.00    +0.000 A 
ATOM      3  C   UNL     1       5.634   5.247  18.143  0.00  0.00    +0.000 A 
ATOM      4  N   UNL     1       5.261   3.950  18.170  0.00  0.00    +0.000 NA
ATOM      5  C   UNL     1       3.978   3.616  18.358  0.00  0.00    +0.000 A 
ATOM      6  C   UNL     1       3.691   2.264  18.436  0.00  0.00    +0.000 A 
ATOM      7  C   UNL     1       2.391   1.798  18.614  0.00  0.00    +0.000 A 
ATOM      8  C   UNL     1       1.341   2.704  18.633  0.00  0.00    +0.000 A 
ATOM      9  C   UNL     1       1.607   4.071  18.551  0.00  0.00    +0.000 A 
ATOM     10  C   UNL     1       2.940   4.559  18.493  0.00  0.00    +0.000 A 
ENDROOT
BRANCH   1  12
ATOM     11  O   UNL     1       2.172   7.811  17.847  0.00  0.00    +0.000 OA
ATOM     12  C   UNL     1       2.433   7.069  18.792  0.00  0.00    +0.000 C 
ATOM     13  N   UNL     1       1.992   7.273  20.097  0.00  0.00    +0.000 N 
ATOM     14  H   UNL     1       2.307   6.694  20.868  0.00  0.00    +0.000 HD
BRANCH  13  15
ATOM     15  N   UNL     1       1.214   8.368  20.357  0.00  0.00    +0.000 NA
ATOM     16  C   UNL     1       1.287   8.887  21.543  0.00  0.00    +0.000 C 
BRANCH  16  17
ATOM     17  C   UNL     1       0.504  10.094  21.908  0.00  0.00    +0.000 A 
ATOM     18  C   UNL     1      -0.586  10.010  22.766  0.00  0.00    +0.000 A 
ATOM     19  C   UNL     1      -1.285  11.174  23.062  0.00  0.00    +0.000 A 
ATOM     20  C   UNL     1      -0.879  12.376  22.490  0.00  0.00    +0.000 A 
ATOM     21  C   UNL     1       0.218  12.363  21.639  0.00  0.00    +0.000 A 
ATOM     22  N   UNL     1       0.924  11.249  21.328  0.00  0.00    +0.000 NA
ENDBRANCH  16  17
ENDBRANCH  13  15
ENDBRANCH   1  12
BRANCH   3  23
ATOM     23  C   UNL     1       7.087   5.553  17.870  0.00  0.00    +0.000 C 
ATOM     24  C   UNL     1       7.620   6.961  17.981  0.00  0.00    +0.000 C 
ATOM     25  C   UNL     1       7.983   5.950  19.025  0.00  0.00    +0.000 C 
ENDBRANCH   3  23
TORSDOF 4
ENDMDL
MODEL 2
REMARK VINA RESULT:      -8.5      1.116      1.340
REMARK  Name = 
REMARK  4 active torsions:
REMARK  status: ('A' for Active; 'I' for Inactive)
REMARK    1  A    between atoms: C_2  and  C_12
REMARK    2  A    between atoms: N_3  and  N_4
REMARK    3  A    between atoms: C_5  and  C_6
REMARK    4  A    between atoms: C_14  and  C_15
REMARK                            x       y       z     vdW  Elec       q    Type
REMARK                         _______ _______ _______ _____ _____    ______ ____
ROOT
ATOM      1  C   UNL     1       3.449   6.686  17.953  0.00  0.00    +0.000 A 
ATOM      2  C   UNL     1       4.793   7.067  17.798  0.00  0.00    +0.000 A 
ATOM      3  C   UNL     1       5.760   6.106  17.549  0.00  0.00    +0.000 A 
ATOM      4  N   UNL     1       5.426   4.798  17.510  0.00  0.00    +0.000 NA
ATOM      5  C   UNL     1       4.152   4.419  17.668  0.00  0.00    +0.000 A 
ATOM      6  C   UNL     1       3.905   3.057  17.679  0.00  0.00    +0.000 A 
ATOM      7  C   UNL     1       2.617   2.545  17.819  0.00  0.00    +0.000 A 
ATOM      8  C   UNL     1       1.541   3.418  17.868  0.00  0.00    +0.000 A 
ATOM      9  C   UNL     1       1.767   4.795  17.853  0.00  0.00    +0.000 A 
ATOM     10  C   UNL     1       3.085   5.323  17.834  0.00  0.00    +0.000 A 
ENDROOT
BRANCH   1  12
ATOM     11  O   UNL     1       2.276   8.615  17.352  0.00  0.00    +0.000 OA
ATOM     12  C   UNL     1       2.500   7.800  18.246  0.00  0.00    +0.000 C 
ATOM     13  N   UNL     1       1.984   7.887  19.535  0.00  0.00    +0.000 N 
ATOM     14  H   UNL     1       2.268   7.250  20.272  0.00  0.00    +0.000 HD
BRANCH  13  15
ATOM     15  N   UNL     1       1.170   8.943  19.841  0.00  0.00    +0.000 NA
ATOM     16  C   UNL     1       0.640   8.969  21.024  0.00  0.00    +0.000 C 
BRANCH  16  17
ATOM     17  C   UNL     1      -0.231  10.090  21.458  0.00  0.00    +0.000 A 
ATOM     18  C   UNL     1      -0.618  11.084  20.567  0.00  0.00    +0.000 A 
ATOM     19  C   UNL     1      -1.426  12.113  21.034  0.00  0.00    +0.000 A 
ATOM     20  C   UNL     1      -1.813  12.120  22.371  0.00  0.00    +0.000 A 
ATOM     21  C   UNL     1      -1.374  11.088  23.189  0.00  0.00    +0.000 A 
ATOM     22  N   UNL     1      -0.587  10.068  22.769  0.00  0.00    +0.000 NA
ENDBRANCH  16  17
ENDBRANCH  13  15
ENDBRANCH   1  12
BRANCH   3  23
ATOM     23  C   UNL     1       7.207   6.467  17.308  0.00  0.00    +0.000 C 
ATOM     24  C   UNL     1       7.703   7.877  17.519  0.00  0.00    +0.000 C 
ATOM     25  C   UNL     1       8.086   6.807  18.494  0.00  0.00    +0.000 C 
ENDBRANCH   3  23
TORSDOF 4
ENDMDL
MODEL 3
REMARK VINA RESULT:      -8.5      0.800      1.051
REMARK  Name = 
REMARK  4 active torsions:
REMARK  status: ('A' for Active; 'I' for Inactive)
REMARK    1  A    between atoms: C_2  and  C_12
REMARK    2  A    between atoms: N_3  and  N_4
REMARK    3  A    between atoms: C_5  and  C_6
REMARK    4  A    between atoms: C_14  and  C_15
REMARK                            x       y       z     vdW  Elec       q    Type
REMARK                         _______ _______ _______ _____ _____    ______ ____
ROOT
ATOM      1  C   UNL     1       3.323   5.839  18.651  0.00  0.00    +0.000 A 
ATOM      2  C   UNL     1       4.702   6.082  18.524  0.00  0.00    +0.000 A 
ATOM      3  C   UNL     1       5.580   5.019  18.374  0.00  0.00    +0.000 A 
ATOM      4  N   UNL     1       5.123   3.749  18.406  0.00  0.00    +0.000 NA
ATOM      5  C   UNL     1       3.814   3.503  18.538  0.00  0.00    +0.000 A 
ATOM      6  C   UNL     1       3.436   2.174  18.627  0.00  0.00    +0.000 A 
ATOM      7  C   UNL     1       2.101   1.795  18.750  0.00  0.00    +0.000 A 
ATOM      8  C   UNL     1       1.113   2.767  18.702  0.00  0.00    +0.000 A 
ATOM      9  C   UNL     1       1.471   4.112  18.608  0.00  0.00    +0.000 A 
ATOM     10  C   UNL     1       2.834   4.512  18.606  0.00  0.00    +0.000 A 
ENDROOT
BRANCH   1  12
ATOM     11  O   UNL     1       2.190   7.713  17.837  0.00  0.00    +0.000 OA
ATOM     12  C   UNL     1       2.478   7.055  18.835  0.00  0.00    +0.000 C 
ATOM     13  N   UNL     1       2.127   7.407  20.136  0.00  0.00    +0.000 N 
ATOM     14  H   UNL     1       2.464   6.892  20.942  0.00  0.00    +0.000 HD
BRANCH  13  15
ATOM     15  N   UNL     1       1.413   8.558  20.329  0.00  0.00    +0.000 NA
ATOM     16  C   UNL     1       0.604   8.599  21.341  0.00  0.00    +0.000 C 
BRANCH  16  17
ATOM     17  C   UNL     1      -0.188   9.816  21.649  0.00  0.00    +0.000 A 
ATOM     18  C   UNL     1      -0.418  10.786  20.681  0.00  0.00    +0.000 A 
ATOM     19  C   UNL     1      -1.159  11.908  21.033  0.00  0.00    +0.000 A 
ATOM     20  C   UNL     1      -1.637  12.027  22.334  0.00  0.00    +0.000 A 
ATOM     21  C   UNL     1      -1.353  11.009  23.236  0.00  0.00    +0.000 A 
ATOM     22  N   UNL     1      -0.636   9.902  22.929  0.00  0.00    +0.000 NA
ENDBRANCH  16  17
ENDBRANCH  13  15
ENDBRANCH   1  12
BRANCH   3  23
ATOM     23  C   UNL     1       7.062   5.225  18.166  0.00  0.00    +0.000 C 
ATOM     24  C   UNL     1       7.655   6.612  18.115  0.00  0.00    +0.000 C 
ATOM     25  C   UNL     1       7.898   5.750  19.315  0.00  0.00    +0.000 C 
ENDBRANCH   3  23
TORSDOF 4
ENDMDL
MODEL 4
REMARK VINA RESULT:      -8.3      4.643      6.905
REMARK  Name = 
REMARK  4 active torsions:
REMARK  status: ('A' for Active; 'I' for Inactive)
REMARK    1  A    between atoms: C_2  and  C_12
REMARK    2  A    between atoms: N_3  and  N_4
REMARK    3  A    between atoms: C_5  and  C_6
REMARK    4  A    between atoms: C_14  and  C_15
REMARK                            x       y       z     vdW  Elec       q    Type
REMARK                         _______ _______ _______ _____ _____    ______ ____
ROOT
ATOM      1  C   UNL     1       6.430   5.651  17.370  0.00  0.00    +0.000 A 
ATOM      2  C   UNL     1       6.898   5.043  16.193  0.00  0.00    +0.000 A 
ATOM      3  C   UNL     1       6.048   4.246  15.441  0.00  0.00    +0.000 A 
ATOM      4  N   UNL     1       4.789   4.006  15.865  0.00  0.00    +0.000 NA
ATOM      5  C   UNL     1       4.333   4.569  16.990  0.00  0.00    +0.000 A 
ATOM      6  C   UNL     1       3.054   4.219  17.387  0.00  0.00    +0.000 A 
ATOM      7  C   UNL     1       2.467   4.754  18.532  0.00  0.00    +0.000 A 
ATOM      8  C   UNL     1       3.147   5.724  19.253  0.00  0.00    +0.000 A 
ATOM      9  C   UNL     1       4.436   6.095  18.868  0.00  0.00    +0.000 A 
ATOM     10  C   UNL     1       5.087   5.464  17.774  0.00  0.00    +0.000 A 
ENDROOT
BRANCH   1  12
ATOM     11  O   UNL     1       8.009   5.940  19.068  0.00  0.00    +0.000 OA
ATOM     12  C   UNL     1       7.439   6.463  18.111  0.00  0.00    +0.000 C 
ATOM     13  N   UNL     1       7.621   7.785  17.716  0.00  0.00    +0.000 N 
ATOM     14  H   UNL     1       7.063   8.209  16.983  0.00  0.00    +0.000 HD
BRANCH  13  15
ATOM     15  N   UNL     1       8.490   8.565  18.430  0.00  0.00    +0.000 NA
ATOM     16  C   UNL     1       8.618   9.804  18.070  0.00  0.00    +0.000 C 
BRANCH  16  17
ATOM     17  C   UNL     1       9.513  10.734  18.803  0.00  0.00    +0.000 A 
ATOM     18  C   UNL     1      10.505  11.447  18.141  0.00  0.00    +0.000 A 
ATOM     19  C   UNL     1      11.318  12.295  18.883  0.00  0.00    +0.000 A 
ATOM     20  C   UNL     1      11.119  12.396  20.257  0.00  0.00    +0.000 A 
ATOM     21  C   UNL     1      10.107  11.641  20.834  0.00  0.00    +0.000 A 
ATOM     22  N   UNL     1       9.295  10.806  20.142  0.00  0.00    +0.000 NA
ENDBRANCH  16  17
ENDBRANCH  13  15
ENDBRANCH   1  12
BRANCH   3  23
ATOM     23  C   UNL     1       6.479   3.623  14.134  0.00  0.00    +0.000 C 
ATOM     24  C   UNL     1       5.551   3.593  12.944  0.00  0.00    +0.000 C 
ATOM     25  C   UNL     1       6.727   4.521  12.939  0.00  0.00    +0.000 C 
ENDBRANCH   3  23
TORSDOF 4
ENDMDL
MODEL 5
REMARK VINA RESULT:      -8.3      1.385      1.670
REMARK  Name = 
REMARK  4 active torsions:
REMARK  status: ('A' for Active; 'I' for Inactive)
REMARK    1  A    between atoms: C_2  and  C_12
REMARK    2  A    between atoms: N_3  and  N_4
REMARK    3  A    between atoms: C_5  and  C_6
REMARK    4  A    between atoms: C_14  and  C_15
REMARK                            x       y       z     vdW  Elec       q    Type
REMARK                         _______ _______ _______ _____ _____    ______ ____
ROOT
ATOM      1  C   UNL     1       3.014   5.810  18.132  0.00  0.00    +0.000 A 
ATOM      2  C   UNL     1       4.174   5.997  17.362  0.00  0.00    +0.000 A 
ATOM      3  C   UNL     1       4.836   4.899  16.831  0.00  0.00    +0.000 A 
ATOM      4  N   UNL     1       4.402   3.649  17.099  0.00  0.00    +0.000 NA
ATOM      5  C   UNL     1       3.305   3.456  17.841  0.00  0.00    +0.000 A 
ATOM      6  C   UNL     1       2.967   2.144  18.121  0.00  0.00    +0.000 A 
ATOM      7  C   UNL     1       1.837   1.819  18.869  0.00  0.00    +0.000 A 
ATOM      8  C   UNL     1       0.982   2.830  19.280  0.00  0.00    +0.000 A 
ATOM      9  C   UNL     1       1.301   4.160  19.004  0.00  0.00    +0.000 A 
ATOM     10  C   UNL     1       2.513   4.504  18.348  0.00  0.00    +0.000 A 
ENDROOT
BRANCH   1  12
ATOM     11  O   UNL     1       2.123   7.956  17.880  0.00  0.00    +0.000 OA
ATOM     12  C   UNL     1       2.403   7.059  18.675  0.00  0.00    +0.000 C 
ATOM     13  N   UNL     1       2.253   7.158  20.055  0.00  0.00    +0.000 N 
ATOM     14  H   UNL     1       2.585   6.435  20.685  0.00  0.00    +0.000 HD
BRANCH  13  15
ATOM     15  N   UNL     1       1.762   8.324  20.575  0.00  0.00    +0.000 NA
ATOM     16  C   UNL     1       0.497   8.368  20.860  0.00  0.00    +0.000 C 
BRANCH  16  17
ATOM     17  C   UNL     1      -0.120   9.578  21.456  0.00  0.00    +0.000 A 
ATOM     18  C   UNL     1      -0.513   9.601  22.789  0.00  0.00    +0.000 A 
ATOM     19  C   UNL     1      -1.095  10.761  23.288  0.00  0.00    +0.000 A 
ATOM     20  C   UNL     1      -1.270  11.851  22.441  0.00  0.00    +0.000 A 
ATOM     21  C   UNL     1      -0.852  11.736  21.122  0.00  0.00    +0.000 A 
ATOM     22  N   UNL     1      -0.281  10.623  20.602  0.00  0.00    +0.000 NA
ENDBRANCH  16  17
ENDBRANCH  13  15
ENDBRANCH   1  12
BRANCH   3  23
ATOM     23  C   UNL     1       6.047   5.046  15.941  0.00  0.00    +0.000 C 
ATOM     24  C   UNL     1       6.537   3.894  15.098  0.00  0.00    +0.000 C 
ATOM     25  C   UNL     1       5.858   5.055  14.438  0.00  0.00    +0.000 C 
ENDBRANCH   3  23
TORSDOF 4
ENDMDL
MODEL 6
REMARK VINA RESULT:      -8.3      4.513      7.245
REMARK  Name = 
REMARK  4 active torsions:
REMARK  status: ('A' for Active; 'I' for Inactive)
REMARK    1  A    between atoms: C_2  and  C_12
REMARK    2  A    between atoms: N_3  and  N_4
REMARK    3  A    between atoms: C_5  and  C_6
REMARK    4  A    between atoms: C_14  and  C_15
REMARK                            x       y       z     vdW  Elec       q    Type
REMARK                         _______ _______ _______ _____ _____    ______ ____
ROOT
ATOM      1  C   UNL     1       6.386   5.477  17.946  0.00  0.00    +0.000 A 
ATOM      2  C   UNL     1       5.363   5.167  18.858  0.00  0.00    +0.000 A 
ATOM      3  C   UNL     1       4.278   4.408  18.448  0.00  0.00    +0.000 A 
ATOM      4  N   UNL     1       4.172   4.012  17.162  0.00  0.00    +0.000 NA
ATOM      5  C   UNL     1       5.133   4.309  16.279  0.00  0.00    +0.000 A 
ATOM      6  C   UNL     1       4.916   3.922  14.968  0.00  0.00    +0.000 A 
ATOM      7  C   UNL     1       5.852   4.163  13.965  0.00  0.00    +0.000 A 
ATOM      8  C   UNL     1       7.071   4.734  14.298  0.00  0.00    +0.000 A 
ATOM      9  C   UNL     1       7.314   5.127  15.615  0.00  0.00    +0.000 A 
ATOM     10  C   UNL     1       6.315   4.996  16.617  0.00  0.00    +0.000 A 
ENDROOT
BRANCH   1  12
ATOM     11  O   UNL     1       8.159   5.870  19.417  0.00  0.00    +0.000 OA
ATOM     12  C   UNL     1       7.489   6.323  18.490  0.00  0.00    +0.000 C 
ATOM     13  N   UNL     1       7.644   7.601  17.960  0.00  0.00    +0.000 N 
ATOM     14  H   UNL     1       7.010   7.974  17.262  0.00  0.00    +0.000 HD
BRANCH  13  15
ATOM     15  N   UNL     1       8.603   8.416  18.496  0.00  0.00    +0.000 NA
ATOM     16  C   UNL     1       8.511   9.688  18.258  0.00  0.00    +0.000 C 
BRANCH  16  17
ATOM     17  C   UNL     1       9.486  10.653  18.822  0.00  0.00    +0.000 A 
ATOM     18  C   UNL     1      10.425  11.281  18.012  0.00  0.00    +0.000 A 
ATOM     19  C   UNL     1      11.319  12.168  18.601  0.00  0.00    +0.000 A 
ATOM     20  C   UNL     1      11.251  12.391  19.973  0.00  0.00    +0.000 A 
ATOM     21  C   UNL     1      10.283  11.714  20.703  0.00  0.00    +0.000 A 
ATOM     22  N   UNL     1       9.395  10.845  20.164  0.00  0.00    +0.000 NA
ENDBRANCH  16  17
ENDBRANCH  13  15
ENDBRANCH   1  12
BRANCH   3  23
ATOM     23  C   UNL     1       3.184   3.989  19.403  0.00  0.00    +0.000 C 
ATOM     24  C   UNL     1       2.476   5.004  20.268  0.00  0.00    +0.000 C 
ATOM     25  C   UNL     1       1.755   4.394  19.105  0.00  0.00    +0.000 C 
ENDBRANCH   3  23
TORSDOF 4
ENDMDL
MODEL 7
REMARK VINA RESULT:      -8.2      1.481      1.702
REMARK  Name = 
REMARK  4 active torsions:
REMARK  status: ('A' for Active; 'I' for Inactive)
REMARK    1  A    between atoms: C_2  and  C_12
REMARK    2  A    between atoms: N_3  and  N_4
REMARK    3  A    between atoms: C_5  and  C_6
REMARK    4  A    between atoms: C_14  and  C_15
REMARK                            x       y       z     vdW  Elec       q    Type
REMARK                         _______ _______ _______ _____ _____    ______ ____
ROOT
ATOM      1  C   UNL     1       3.007   5.806  18.782  0.00  0.00    +0.000 A 
ATOM      2  C   UNL     1       3.805   5.699  17.630  0.00  0.00    +0.000 A 
ATOM      3  C   UNL     1       4.463   4.511  17.352  0.00  0.00    +0.000 A 
ATOM      4  N   UNL     1       4.387   3.474  18.214  0.00  0.00    +0.000 NA
ATOM      5  C   UNL     1       3.640   3.566  19.321  0.00  0.00    +0.000 A 
ATOM      6  C   UNL     1       3.668   2.482  20.182  0.00  0.00    +0.000 A 
ATOM      7  C   UNL     1       2.919   2.456  21.356  0.00  0.00    +0.000 A 
ATOM      8  C   UNL     1       2.059   3.507  21.636  0.00  0.00    +0.000 A 
ATOM      9  C   UNL     1       2.011   4.608  20.779  0.00  0.00    +0.000 A 
ATOM     10  C   UNL     1       2.862   4.694  19.645  0.00  0.00    +0.000 A 
ENDROOT
BRANCH   1  12
ATOM     11  O   UNL     1       2.246   7.880  18.018  0.00  0.00    +0.000 OA
ATOM     12  C   UNL     1       2.369   7.139  18.993  0.00  0.00    +0.000 C 
ATOM     13  N   UNL     1       2.018   7.488  20.294  0.00  0.00    +0.000 N 
ATOM     14  H   UNL     1       2.223   6.888  21.086  0.00  0.00    +0.000 HD
BRANCH  13  15
ATOM     15  N   UNL     1       1.499   8.734  20.516  0.00  0.00    +0.000 NA
ATOM     16  C   UNL     1       0.779   8.903  21.581  0.00  0.00    +0.000 C 
BRANCH  16  17
ATOM     17  C   UNL     1       0.200  10.226  21.922  0.00  0.00    +0.000 A 
ATOM     18  C   UNL     1      -0.845  10.339  22.831  0.00  0.00    +0.000 A 
ATOM     19  C   UNL     1      -1.352  11.605  23.102  0.00  0.00    +0.000 A 
ATOM     20  C   UNL     1      -0.807  12.708  22.454  0.00  0.00    +0.000 A 
ATOM     21  C   UNL     1       0.232  12.499  21.557  0.00  0.00    +0.000 A 
ATOM     22  N   UNL     1       0.752  11.281  21.269  0.00  0.00    +0.000 NA
ENDBRANCH  16  17
ENDBRANCH  13  15
ENDBRANCH   1  12
BRANCH   3  23
ATOM     23  C   UNL     1       5.278   4.319  16.096  0.00  0.00    +0.000 C 
ATOM     24  C   UNL     1       5.617   5.488  15.202  0.00  0.00    +0.000 C 
ATOM     25  C   UNL     1       6.690   4.868  16.045  0.00  0.00    +0.000 C 
ENDBRANCH   3  23
TORSDOF 4
ENDMDL
MODEL 8
REMARK VINA RESULT:      -8.1      1.475      1.925
REMARK  Name = 
REMARK  4 active torsions:
REMARK  status: ('A' for Active; 'I' for Inactive)
REMARK    1  A    between atoms: C_2  and  C_12
REMARK    2  A    between atoms: N_3  and  N_4
REMARK    3  A    between atoms: C_5  and  C_6
REMARK    4  A    between atoms: C_14  and  C_15
REMARK                            x       y       z     vdW  Elec       q    Type
REMARK                         _______ _______ _______ _____ _____    ______ ____
ROOT
ATOM      1  C   UNL     1       2.974   5.924  18.286  0.00  0.00    +0.000 A 
ATOM      2  C   UNL     1       4.088   6.032  17.436  0.00  0.00    +0.000 A 
ATOM      3  C   UNL     1       4.699   4.887  16.947  0.00  0.00    +0.000 A 
ATOM      4  N   UNL     1       4.262   3.668  17.329  0.00  0.00    +0.000 NA
ATOM      5  C   UNL     1       3.209   3.549  18.146  0.00  0.00    +0.000 A 
ATOM      6  C   UNL     1       2.867   2.267  18.540  0.00  0.00    +0.000 A 
ATOM      7  C   UNL     1       1.781   2.019  19.375  0.00  0.00    +0.000 A 
ATOM      8  C   UNL     1       0.968   3.074  19.763  0.00  0.00    +0.000 A 
ATOM      9  C   UNL     1       1.291   4.374  19.373  0.00  0.00    +0.000 A 
ATOM     10  C   UNL     1       2.466   4.647  18.623  0.00  0.00    +0.000 A 
ENDROOT
BRANCH   1  12
ATOM     11  O   UNL     1       2.217   8.108  17.945  0.00  0.00    +0.000 OA
ATOM     12  C   UNL     1       2.417   7.220  18.773  0.00  0.00    +0.000 C 
ATOM     13  N   UNL     1       2.225   7.365  20.143  0.00  0.00    +0.000 N 
ATOM     14  H   UNL     1       2.492   6.644  20.804  0.00  0.00    +0.000 HD
BRANCH  13  15
ATOM     15  N   UNL     1       1.783   8.572  20.614  0.00  0.00    +0.000 NA
ATOM     16  C   UNL     1       0.575   8.627  21.082  0.00  0.00    +0.000 C 
BRANCH  16  17
ATOM     17  C   UNL     1       0.019   9.884  21.643  0.00  0.00    +0.000 A 
ATOM     18  C   UNL     1       0.335  11.118  21.088  0.00  0.00    +0.000 A 
ATOM     19  C   UNL     1      -0.209  12.261  21.664  0.00  0.00    +0.000 A 
ATOM     20  C   UNL     1      -1.039  12.133  22.773  0.00  0.00    +0.000 A 
ATOM     21  C   UNL     1      -1.295  10.859  23.263  0.00  0.00    +0.000 A 
ATOM     22  N   UNL     1      -0.784   9.724  22.727  0.00  0.00    +0.000 NA
ENDBRANCH  16  17
ENDBRANCH  13  15
ENDBRANCH   1  12
BRANCH   3  23
ATOM     23  C   UNL     1       5.856   4.945  15.978  0.00  0.00    +0.000 C 
ATOM     24  C   UNL     1       6.334   3.706  15.261  0.00  0.00    +0.000 C 
ATOM     25  C   UNL     1       5.586   4.757  14.500  0.00  0.00    +0.000 C 
ENDBRANCH   3  23
TORSDOF 4
ENDMDL
MODEL 9
REMARK VINA RESULT:      -8.0      1.653      3.380
REMARK  Name = 
REMARK  4 active torsions:
REMARK  status: ('A' for Active; 'I' for Inactive)
REMARK    1  A    between atoms: C_2  and  C_12
REMARK    2  A    between atoms: N_3  and  N_4
REMARK    3  A    between atoms: C_5  and  C_6
REMARK    4  A    between atoms: C_14  and  C_15
REMARK                            x       y       z     vdW  Elec       q    Type
REMARK                         _______ _______ _______ _____ _____    ______ ____
ROOT
ATOM      1  C   UNL     1       2.963   6.198  18.777  0.00  0.00    +0.000 A 
ATOM      2  C   UNL     1       2.623   5.179  19.684  0.00  0.00    +0.000 A 
ATOM      3  C   UNL     1       3.175   3.915  19.542  0.00  0.00    +0.000 A 
ATOM      4  N   UNL     1       3.994   3.643  18.504  0.00  0.00    +0.000 NA
ATOM      5  C   UNL     1       4.318   4.600  17.626  0.00  0.00    +0.000 A 
ATOM      6  C   UNL     1       5.110   4.221  16.556  0.00  0.00    +0.000 A 
ATOM      7  C   UNL     1       5.524   5.133  15.588  0.00  0.00    +0.000 A 
ATOM      8  C   UNL     1       5.203   6.474  15.738  0.00  0.00    +0.000 A 
ATOM      9  C   UNL     1       4.410   6.879  16.812  0.00  0.00    +0.000 A 
ATOM     10  C   UNL     1       3.883   5.935  17.734  0.00  0.00    +0.000 A 
ENDROOT
BRANCH   1  12
ATOM     11  O   UNL     1       2.147   8.263  18.048  0.00  0.00    +0.000 OA
ATOM     12  C   UNL     1       2.288   7.508  19.010  0.00  0.00    +0.000 C 
ATOM     13  N   UNL     1       1.922   7.823  20.315  0.00  0.00    +0.000 N 
ATOM     14  H   UNL     1       2.142   7.215  21.097  0.00  0.00    +0.000 HD
BRANCH  13  15
ATOM     15  N   UNL     1       1.367   9.050  20.558  0.00  0.00    +0.000 NA
ATOM     16  C   UNL     1       0.688   9.195  21.653  0.00  0.00    +0.000 C 
BRANCH  16  17
ATOM     17  C   UNL     1       0.076  10.497  22.017  0.00  0.00    +0.000 A 
ATOM     18  C   UNL     1      -0.996  10.564  22.898  0.00  0.00    +0.000 A 
ATOM     19  C   UNL     1      -1.534  11.811  23.193  0.00  0.00    +0.000 A 
ATOM     20  C   UNL     1      -0.990  12.944  22.595  0.00  0.00    +0.000 A 
ATOM     21  C   UNL     1       0.078  12.780  21.722  0.00  0.00    +0.000 A 
ATOM     22  N   UNL     1       0.628  11.581  21.413  0.00  0.00    +0.000 NA
ENDBRANCH  16  17
ENDBRANCH  13  15
ENDBRANCH   1  12
BRANCH   3  23
ATOM     23  C   UNL     1       2.897   2.803  20.526  0.00  0.00    +0.000 C 
ATOM     24  C   UNL     1       2.140   3.067  21.805  0.00  0.00    +0.000 C 
ATOM     25  C   UNL     1       1.474   2.312  20.696  0.00  0.00    +0.000 C 
ENDBRANCH   3  23
TORSDOF 4
ENDMDL
