MODEL 1
REMARK VINA RESULT:      -7.7      0.000      0.000
REMARK  Name = 
REMARK  13 active torsions:
REMARK  status: ('A' for Active; 'I' for Inactive)
REMARK    1  A    between atoms: C_1  and  C_2
REMARK    2  A    between atoms: C_2  and  N_3
REMARK    3  A    between atoms: N_3  and  C_4
REMARK    4  A    between atoms: C_4  and  C_5
REMARK    5  A    between atoms: C_6  and  O_8
REMARK    6  A    between atoms: O_8  and  C_9
REMARK    7  A    between atoms: C_12  and  C_13
REMARK    8  A    between atoms: N_15  and  C_16
REMARK    9  A    between atoms: C_20  and  C_21
REMARK   10  A    between atoms: C_21  and  C_22
REMARK   11  A    between atoms: C_22  and  N_23
REMARK   12  A    between atoms: N_23  and  S_24
REMARK   13  A    between atoms: S_24  and  C_27
REMARK                            x       y       z     vdW  Elec       q    Type
REMARK                         _______ _______ _______ _____ _____    ______ ____
ROOT
ATOM      1  C   UNL     1       1.691   4.852  20.840  0.00  0.00    +0.000 A 
ATOM      2  C   UNL     1       2.201   3.981  21.800  0.00  0.00    +0.000 A 
ATOM      3  C   UNL     1       2.616   2.694  21.447  0.00  0.00    +0.000 A 
ATOM      4  C   UNL     1       2.536   2.263  20.123  0.00  0.00    +0.000 A 
ATOM      5  C   UNL     1       2.021   3.110  19.135  0.00  0.00    +0.000 A 
ATOM      6  C   UNL     1       1.578   4.396  19.522  0.00  0.00    +0.000 A 
ENDROOT
BRANCH   1   9
ATOM      7  C   UNL     1       1.704   7.301  20.416  0.00  0.00    +0.000 C 
ATOM      8  O   UNL     1       2.455   7.305  19.442  0.00  0.00    +0.000 OA
ATOM      9  N   UNL     1       1.286   6.185  21.119  0.00  0.00    +0.000 N 
ATOM     10  H   UNL     1       0.514   6.300  21.762  0.00  0.00    +0.000 HD
BRANCH   7  14
ATOM     11  C   UNL     1      -0.124  10.953  21.700  0.00  0.00    +0.000 A 
ATOM     12  C   UNL     1       0.125   9.932  22.613  0.00  0.00    +0.000 A 
ATOM     13  C   UNL     1       0.758   8.765  22.176  0.00  0.00    +0.000 A 
ATOM     14  C   UNL     1       1.139   8.616  20.832  0.00  0.00    +0.000 A 
ATOM     15  C   UNL     1       0.881   9.644  19.921  0.00  0.00    +0.000 A 
ATOM     16  C   UNL     1       0.236  10.809  20.356  0.00  0.00    +0.000 A 
BRANCH  11  17
ATOM     17  O   UNL     1      -0.879  12.048  22.164  0.00  0.00    +0.000 OA
BRANCH  17  19
ATOM     18  N   UNL     1      -1.372  14.116  21.220  0.00  0.00    +0.000 N 
ATOM     19  C   UNL     1      -0.424  13.338  21.878  0.00  0.00    +0.000 C 
ATOM     20  O   UNL     1       0.710  13.733  22.129  0.00  0.00    +0.000 OA
BRANCH  18  22
ATOM     21  C   UNL     1      -0.328  15.267  19.256  0.00  0.00    +0.000 C 
ATOM     22  C   UNL     1      -0.930  15.387  20.644  0.00  0.00    +0.000 C 
ENDBRANCH  18  22
BRANCH  18  23
ATOM     23  C   UNL     1      -2.723  13.640  20.923  0.00  0.00    +0.000 C 
ATOM     24  C   UNL     1      -3.755  14.754  20.854  0.00  0.00    +0.000 C 
ENDBRANCH  18  23
ENDBRANCH  17  19
ENDBRANCH  11  17
ENDBRANCH   7  14
ENDBRANCH   1   9
BRANCH   5  25
ATOM     25  C   UNL     1       1.988   2.621  17.693  0.00  0.00    +0.000 C 
BRANCH  25  26
ATOM     26  C   UNL     1       3.129   3.187  16.849  0.00  0.00    +0.000 C 
BRANCH  26  27
ATOM     27  N   UNL     1       4.456   3.036  17.461  0.00  0.00    +0.000 NA
ATOM     28  H   UNL     1       5.045   2.269  17.137  0.00  0.00    +0.000 HD
BRANCH  27  29
ATOM     29  S   UNL     1       5.362   4.473  17.534  0.00  0.00    +0.000 S 
ATOM     30  O   UNL     1       4.403   5.550  17.612  0.00  0.00    +0.000 OA
ATOM     31  O   UNL     1       6.391   4.297  18.535  0.00  0.00    +0.000 OA
BRANCH  29  32
ATOM     32  C   UNL     1       6.120   4.547  15.953  0.00  0.00    +0.000 A 
ATOM     33  C   UNL     1       5.588   3.839  14.879  0.00  0.00    +0.000 A 
ATOM     34  C   UNL     1       6.191   3.966  13.631  0.00  0.00    +0.000 A 
ATOM     35  C   UNL     1       7.297   4.796  13.512  0.00  0.00    +0.000 A 
ATOM     36  N   UNL     1       7.828   5.492  14.543  0.00  0.00    +0.000 NA
ATOM     37  C   UNL     1       7.221   5.361  15.748  0.00  0.00    +0.000 A 
ENDBRANCH  29  32
ENDBRANCH  27  29
ENDBRANCH  26  27
ENDBRANCH  25  26
ENDBRANCH   5  25
TORSDOF 11
ENDMDL
MODEL 2
REMARK VINA RESULT:      -7.6      3.903     11.619
REMARK  Name = 
REMARK  13 active torsions:
REMARK  status: ('A' for Active; 'I' for Inactive)
REMARK    1  A    between atoms: C_1  and  C_2
REMARK    2  A    between atoms: C_2  and  N_3
REMARK    3  A    between atoms: N_3  and  C_4
REMARK    4  A    between atoms: C_4  and  C_5
REMARK    5  A    between atoms: C_6  and  O_8
REMARK    6  A    between atoms: O_8  and  C_9
REMARK    7  A    between atoms: C_12  and  C_13
REMARK    8  A    between atoms: N_15  and  C_16
REMARK    9  A    between atoms: C_20  and  C_21
REMARK   10  A    between atoms: C_21  and  C_22
REMARK   11  A    between atoms: C_22  and  N_23
REMARK   12  A    between atoms: N_23  and  S_24
REMARK   13  A    between atoms: S_24  and  C_27
REMARK                            x       y       z     vdW  Elec       q    Type
REMARK                         _______ _______ _______ _____ _____    ______ ____
ROOT
ATOM      1  C   UNL     1      -0.729  12.574  20.865  0.00  0.00    +0.000 A 
ATOM      2  C   UNL     1      -0.871  13.725  20.095  0.00  0.00    +0.000 A 
ATOM      3  C   UNL     1      -1.697  14.770  20.519  0.00  0.00    +0.000 A 
ATOM      4  C   UNL     1      -2.386  14.681  21.728  0.00  0.00    +0.000 A 
ATOM      5  C   UNL     1      -2.273  13.534  22.522  0.00  0.00    +0.000 A 
ATOM      6  C   UNL     1      -1.456  12.477  22.057  0.00  0.00    +0.000 A 
ENDROOT
BRANCH   1   9
ATOM      7  C   UNL     1      -0.217  10.471  19.644  0.00  0.00    +0.000 C 
ATOM      8  O   UNL     1      -1.276  10.364  19.029  0.00  0.00    +0.000 OA
ATOM      9  N   UNL     1       0.121  11.490  20.516  0.00  0.00    +0.000 N 
ATOM     10  H   UNL     1       1.090  11.567  20.792  0.00  0.00    +0.000 HD
BRANCH   7  14
ATOM     11  C   UNL     1       2.622   7.420  18.667  0.00  0.00    +0.000 A 
ATOM     12  C   UNL     1       2.223   8.343  17.705  0.00  0.00    +0.000 A 
ATOM     13  C   UNL     1       1.325   9.353  18.060  0.00  0.00    +0.000 A 
ATOM     14  C   UNL     1       0.824   9.440  19.370  0.00  0.00    +0.000 A 
ATOM     15  C   UNL     1       1.226   8.505  20.328  0.00  0.00    +0.000 A 
ATOM     16  C   UNL     1       2.117   7.485  19.969  0.00  0.00    +0.000 A 
BRANCH  11  17
ATOM     17  O   UNL     1       3.424   6.349  18.224  0.00  0.00    +0.000 OA
BRANCH  17  19
ATOM     18  N   UNL     1       3.752   4.093  17.759  0.00  0.00    +0.000 N 
ATOM     19  C   UNL     1       2.837   5.087  18.098  0.00  0.00    +0.000 C 
ATOM     20  O   UNL     1       1.634   4.878  18.219  0.00  0.00    +0.000 OA
BRANCH  18  22
ATOM     21  C   UNL     1       3.340   1.711  18.411  0.00  0.00    +0.000 C 
ATOM     22  C   UNL     1       3.223   2.791  17.352  0.00  0.00    +0.000 C 
ENDBRANCH  18  22
BRANCH  18  23
ATOM     23  C   UNL     1       5.185   4.348  17.617  0.00  0.00    +0.000 C 
ATOM     24  C   UNL     1       5.684   4.212  16.188  0.00  0.00    +0.000 C 
ENDBRANCH  18  23
ENDBRANCH  17  19
ENDBRANCH  11  17
ENDBRANCH   7  14
ENDBRANCH   1   9
BRANCH   5  25
ATOM     25  C   UNL     1      -3.007  13.489  23.856  0.00  0.00    +0.000 C 
BRANCH  25  26
ATOM     26  C   UNL     1      -4.521  13.369  23.697  0.00  0.00    +0.000 C 
BRANCH  26  27
ATOM     27  N   UNL     1      -4.941  12.343  22.733  0.00  0.00    +0.000 NA
ATOM     28  H   UNL     1      -4.921  11.368  23.035  0.00  0.00    +0.000 HD
BRANCH  27  29
ATOM     29  S   UNL     1      -6.412  12.677  21.948  0.00  0.00    +0.000 S 
ATOM     30  O   UNL     1      -7.379  11.757  22.501  0.00  0.00    +0.000 OA
ATOM     31  O   UNL     1      -6.619  14.108  21.982  0.00  0.00    +0.000 OA
BRANCH  29  32
ATOM     32  C   UNL     1      -6.100  12.190  20.291  0.00  0.00    +0.000 A 
ATOM     33  C   UNL     1      -7.146  11.811  19.455  0.00  0.00    +0.000 A 
ATOM     34  C   UNL     1      -6.860  11.482  18.134  0.00  0.00    +0.000 A 
ATOM     35  C   UNL     1      -5.541  11.547  17.707  0.00  0.00    +0.000 A 
ATOM     36  N   UNL     1      -4.511  11.913  18.504  0.00  0.00    +0.000 NA
ATOM     37  C   UNL     1      -4.813  12.238  19.785  0.00  0.00    +0.000 A 
ENDBRANCH  29  32
ENDBRANCH  27  29
ENDBRANCH  26  27
ENDBRANCH  25  26
ENDBRANCH   5  25
TORSDOF 11
ENDMDL
MODEL 3
REMARK VINA RESULT:      -7.5      2.144      2.840
REMARK  Name = 
REMARK  13 active torsions:
REMARK  status: ('A' for Active; 'I' for Inactive)
REMARK    1  A    between atoms: C_1  and  C_2
REMARK    2  A    between atoms: C_2  and  N_3
REMARK    3  A    between atoms: N_3  and  C_4
REMARK    4  A    between atoms: C_4  and  C_5
REMARK    5  A    between atoms: C_6  and  O_8
REMARK    6  A    between atoms: O_8  and  C_9
REMARK    7  A    between atoms: C_12  and  C_13
REMARK    8  A    between atoms: N_15  and  C_16
REMARK    9  A    between atoms: C_20  and  C_21
REMARK   10  A    between atoms: C_21  and  C_22
REMARK   11  A    between atoms: C_22  and  N_23
REMARK   12  A    between atoms: N_23  and  S_24
REMARK   13  A    between atoms: S_24  and  C_27
REMARK                            x       y       z     vdW  Elec       q    Type
REMARK                         _______ _______ _______ _____ _____    ______ ____
ROOT
ATOM      1  C   UNL     1       1.880   4.814  20.433  0.00  0.00    +0.000 A 
ATOM      2  C   UNL     1       1.616   3.832  21.384  0.00  0.00    +0.000 A 
ATOM      3  C   UNL     1       2.040   2.515  21.187  0.00  0.00    +0.000 A 
ATOM      4  C   UNL     1       2.745   2.164  20.036  0.00  0.00    +0.000 A 
ATOM      5  C   UNL     1       3.020   3.125  19.056  0.00  0.00    +0.000 A 
ATOM      6  C   UNL     1       2.553   4.443  19.264  0.00  0.00    +0.000 A 
ENDROOT
BRANCH   1   9
ATOM      7  C   UNL     1       2.007   7.219  19.819  0.00  0.00    +0.000 C 
ATOM      8  O   UNL     1       2.806   7.119  18.888  0.00  0.00    +0.000 OA
ATOM      9  N   UNL     1       1.513   6.178  20.584  0.00  0.00    +0.000 N 
ATOM     10  H   UNL     1       0.715   6.371  21.174  0.00  0.00    +0.000 HD
BRANCH   7  14
ATOM     11  C   UNL     1       0.695  11.230  20.535  0.00  0.00    +0.000 A 
ATOM     12  C   UNL     1       1.075  10.832  19.257  0.00  0.00    +0.000 A 
ATOM     13  C   UNL     1       1.463   9.507  19.041  0.00  0.00    +0.000 A 
ATOM     14  C   UNL     1       1.473   8.582  20.099  0.00  0.00    +0.000 A 
ATOM     15  C   UNL     1       1.094   8.991  21.381  0.00  0.00    +0.000 A 
ATOM     16  C   UNL     1       0.717  10.322  21.599  0.00  0.00    +0.000 A 
BRANCH  11  17
ATOM     17  O   UNL     1       0.440  12.603  20.723  0.00  0.00    +0.000 OA
BRANCH  17  19
ATOM     18  N   UNL     1       1.409  14.455  19.703  0.00  0.00    +0.000 N 
ATOM     19  C   UNL     1       1.521  13.488  20.699  0.00  0.00    +0.000 C 
ATOM     20  O   UNL     1       2.495  13.397  21.439  0.00  0.00    +0.000 OA
BRANCH  18  22
ATOM     21  C   UNL     1       3.064  15.195  17.975  0.00  0.00    +0.000 C 
ATOM     22  C   UNL     1       2.587  15.274  19.414  0.00  0.00    +0.000 C 
ENDBRANCH  18  22
BRANCH  18  23
ATOM     23  C   UNL     1       0.245  14.560  18.824  0.00  0.00    +0.000 C 
ATOM     24  C   UNL     1      -0.496  15.880  18.956  0.00  0.00    +0.000 C 
ENDBRANCH  18  23
ENDBRANCH  17  19
ENDBRANCH  11  17
ENDBRANCH   7  14
ENDBRANCH   1   9
BRANCH   5  25
ATOM     25  C   UNL     1       3.829   2.715  17.832  0.00  0.00    +0.000 C 
BRANCH  25  26
ATOM     26  C   UNL     1       3.607   3.641  16.637  0.00  0.00    +0.000 C 
BRANCH  26  27
ATOM     27  N   UNL     1       4.005   5.034  16.878  0.00  0.00    +0.000 NA
ATOM     28  H   UNL     1       4.063   5.352  17.847  0.00  0.00    +0.000 HD
BRANCH  27  29
ATOM     29  S   UNL     1       5.388   5.527  16.022  0.00  0.00    +0.000 S 
ATOM     30  O   UNL     1       5.848   4.366  15.298  0.00  0.00    +0.000 OA
ATOM     31  O   UNL     1       5.074   6.768  15.349  0.00  0.00    +0.000 OA
BRANCH  29  32
ATOM     32  C   UNL     1       6.549   5.856  17.296  0.00  0.00    +0.000 A 
ATOM     33  C   UNL     1       7.248   7.060  17.325  0.00  0.00    +0.000 A 
ATOM     34  C   UNL     1       8.122   7.301  18.381  0.00  0.00    +0.000 A 
ATOM     35  C   UNL     1       8.257   6.328  19.361  0.00  0.00    +0.000 A 
ATOM     36  N   UNL     1       7.587   5.153  19.352  0.00  0.00    +0.000 NA
ATOM     37  C   UNL     1       6.735   4.942  18.319  0.00  0.00    +0.000 A 
ENDBRANCH  29  32
ENDBRANCH  27  29
ENDBRANCH  26  27
ENDBRANCH  25  26
ENDBRANCH   5  25
TORSDOF 11
ENDMDL
MODEL 4
REMARK VINA RESULT:      -7.5      2.056      2.900
REMARK  Name = 
REMARK  13 active torsions:
REMARK  status: ('A' for Active; 'I' for Inactive)
REMARK    1  A    between atoms: C_1  and  C_2
REMARK    2  A    between atoms: C_2  and  N_3
REMARK    3  A    between atoms: N_3  and  C_4
REMARK    4  A    between atoms: C_4  and  C_5
REMARK    5  A    between atoms: C_6  and  O_8
REMARK    6  A    between atoms: O_8  and  C_9
REMARK    7  A    between atoms: C_12  and  C_13
REMARK    8  A    between atoms: N_15  and  C_16
REMARK    9  A    between atoms: C_20  and  C_21
REMARK   10  A    between atoms: C_21  and  C_22
REMARK   11  A    between atoms: C_22  and  N_23
REMARK   12  A    between atoms: N_23  and  S_24
REMARK   13  A    between atoms: S_24  and  C_27
REMARK                            x       y       z     vdW  Elec       q    Type
REMARK                         _______ _______ _______ _____ _____    ______ ____
ROOT
ATOM      1  C   UNL     1       2.310   5.116  20.196  0.00  0.00    +0.000 A 
ATOM      2  C   UNL     1       2.215   4.359  21.362  0.00  0.00    +0.000 A 
ATOM      3  C   UNL     1       2.615   3.020  21.377  0.00  0.00    +0.000 A 
ATOM      4  C   UNL     1       3.126   2.421  20.226  0.00  0.00    +0.000 A 
ATOM      5  C   UNL     1       3.227   3.151  19.036  0.00  0.00    +0.000 A 
ATOM      6  C   UNL     1       2.787   4.495  19.037  0.00  0.00    +0.000 A 
ENDROOT
BRANCH   1   9
ATOM      7  C   UNL     1       2.254   7.321  19.052  0.00  0.00    +0.000 C 
ATOM      8  O   UNL     1       2.832   6.995  18.016  0.00  0.00    +0.000 OA
ATOM      9  N   UNL     1       1.959   6.490  20.117  0.00  0.00    +0.000 N 
ATOM     10  H   UNL     1       1.305   6.832  20.809  0.00  0.00    +0.000 HD
BRANCH   7  14
ATOM     11  C   UNL     1       1.102  11.438  19.266  0.00  0.00    +0.000 A 
ATOM     12  C   UNL     1       1.827  10.967  18.175  0.00  0.00    +0.000 A 
ATOM     13  C   UNL     1       2.157   9.611  18.111  0.00  0.00    +0.000 A 
ATOM     14  C   UNL     1       1.767   8.728  19.132  0.00  0.00    +0.000 A 
ATOM     15  C   UNL     1       1.043   9.211  20.226  0.00  0.00    +0.000 A 
ATOM     16  C   UNL     1       0.723  10.572  20.297  0.00  0.00    +0.000 A 
BRANCH  11  17
ATOM     17  O   UNL     1       0.910  12.832  19.345  0.00  0.00    +0.000 OA
BRANCH  17  19
ATOM     18  N   UNL     1       0.344  14.536  20.824  0.00  0.00    +0.000 N 
ATOM     19  C   UNL     1       1.204  13.476  20.549  0.00  0.00    +0.000 C 
ATOM     20  O   UNL     1       2.152  13.178  21.269  0.00  0.00    +0.000 OA
BRANCH  18  22
ATOM     21  C   UNL     1      -0.275  15.438  23.077  0.00  0.00    +0.000 C 
ATOM     22  C   UNL     1       0.704  15.440  21.917  0.00  0.00    +0.000 C 
ENDBRANCH  18  22
BRANCH  18  23
ATOM     23  C   UNL     1      -0.785  14.886  19.963  0.00  0.00    +0.000 C 
ATOM     24  C   UNL     1      -0.499  16.057  19.037  0.00  0.00    +0.000 C 
ENDBRANCH  18  23
ENDBRANCH  17  19
ENDBRANCH  11  17
ENDBRANCH   7  14
ENDBRANCH   1   9
BRANCH   5  25
ATOM     25  C   UNL     1       3.829   2.478  17.810  0.00  0.00    +0.000 C 
BRANCH  25  26
ATOM     26  C   UNL     1       4.198   3.470  16.708  0.00  0.00    +0.000 C 
BRANCH  26  27
ATOM     27  N   UNL     1       5.609   3.419  16.306  0.00  0.00    +0.000 NA
ATOM     28  H   UNL     1       5.910   2.637  15.723  0.00  0.00    +0.000 HD
BRANCH  27  29
ATOM     29  S   UNL     1       6.213   4.878  15.676  0.00  0.00    +0.000 S 
ATOM     30  O   UNL     1       7.209   4.511  14.696  0.00  0.00    +0.000 OA
ATOM     31  O   UNL     1       5.085   5.716  15.336  0.00  0.00    +0.000 OA
BRANCH  29  32
ATOM     32  C   UNL     1       7.050   5.587  17.046  0.00  0.00    +0.000 A 
ATOM     33  C   UNL     1       7.344   6.948  17.070  0.00  0.00    +0.000 A 
ATOM     34  C   UNL     1       7.963   7.479  18.198  0.00  0.00    +0.000 A 
ATOM     35  C   UNL     1       8.259   6.626  19.252  0.00  0.00    +0.000 A 
ATOM     36  N   UNL     1       7.980   5.302  19.249  0.00  0.00    +0.000 NA
ATOM     37  C   UNL     1       7.370   4.807  18.144  0.00  0.00    +0.000 A 
ENDBRANCH  29  32
ENDBRANCH  27  29
ENDBRANCH  26  27
ENDBRANCH  25  26
ENDBRANCH   5  25
TORSDOF 11
ENDMDL
MODEL 5
REMARK VINA RESULT:      -7.5      2.628      4.296
REMARK  Name = 
REMARK  13 active torsions:
REMARK  status: ('A' for Active; 'I' for Inactive)
REMARK    1  A    between atoms: C_1  and  C_2
REMARK    2  A    between atoms: C_2  and  N_3
REMARK    3  A    between atoms: N_3  and  C_4
REMARK    4  A    between atoms: C_4  and  C_5
REMARK    5  A    between atoms: C_6  and  O_8
REMARK    6  A    between atoms: O_8  and  C_9
REMARK    7  A    between atoms: C_12  and  C_13
REMARK    8  A    between atoms: N_15  and  C_16
REMARK    9  A    between atoms: C_20  and  C_21
REMARK   10  A    between atoms: C_21  and  C_22
REMARK   11  A    between atoms: C_22  and  N_23
REMARK   12  A    between atoms: N_23  and  S_24
REMARK   13  A    between atoms: S_24  and  C_27
REMARK                            x       y       z     vdW  Elec       q    Type
REMARK                         _______ _______ _______ _____ _____    ______ ____
ROOT
ATOM      1  C   UNL     1       1.344   9.169  19.445  0.00  0.00    +0.000 A 
ATOM      2  C   UNL     1       1.926   9.251  18.183  0.00  0.00    +0.000 A 
ATOM      3  C   UNL     1       2.652   8.177  17.660  0.00  0.00    +0.000 A 
ATOM      4  C   UNL     1       2.797   6.999  18.392  0.00  0.00    +0.000 A 
ATOM      5  C   UNL     1       2.231   6.886  19.667  0.00  0.00    +0.000 A 
ATOM      6  C   UNL     1       1.528   7.997  20.187  0.00  0.00    +0.000 A 
ENDROOT
BRANCH   1   9
ATOM      7  C   UNL     1      -0.276  10.048  21.111  0.00  0.00    +0.000 C 
ATOM      8  O   UNL     1      -0.448   9.011  21.751  0.00  0.00    +0.000 OA
ATOM      9  N   UNL     1       0.562  10.205  20.022  0.00  0.00    +0.000 N 
ATOM     10  H   UNL     1       0.765  11.148  19.722  0.00  0.00    +0.000 HD
BRANCH   7  14
ATOM     11  C   UNL     1      -2.510  13.383  22.597  0.00  0.00    +0.000 A 
ATOM     12  C   UNL     1      -2.155  12.340  23.447  0.00  0.00    +0.000 A 
ATOM     13  C   UNL     1      -1.393  11.282  22.947  0.00  0.00    +0.000 A 
ATOM     14  C   UNL     1      -0.988  11.263  21.601  0.00  0.00    +0.000 A 
ATOM     15  C   UNL     1      -1.353  12.312  20.753  0.00  0.00    +0.000 A 
ATOM     16  C   UNL     1      -2.128  13.367  21.252  0.00  0.00    +0.000 A 
BRANCH  11  17
ATOM     17  O   UNL     1      -3.387  14.356  23.119  0.00  0.00    +0.000 OA
BRANCH  17  19
ATOM     18  N   UNL     1      -5.128  15.535  22.124  0.00  0.00    +0.000 N 
ATOM     19  C   UNL     1      -4.721  14.337  22.706  0.00  0.00    +0.000 C 
ATOM     20  O   UNL     1      -5.477  13.387  22.882  0.00  0.00    +0.000 OA
BRANCH  18  22
ATOM     21  C   UNL     1      -7.257  16.574  22.934  0.00  0.00    +0.000 C 
ATOM     22  C   UNL     1      -6.559  15.726  21.887  0.00  0.00    +0.000 C 
ENDBRANCH  18  22
BRANCH  18  23
ATOM     23  C   UNL     1      -4.222  16.664  21.916  0.00  0.00    +0.000 C 
ATOM     24  C   UNL     1      -3.819  16.856  20.463  0.00  0.00    +0.000 C 
ENDBRANCH  18  23
ENDBRANCH  17  19
ENDBRANCH  11  17
ENDBRANCH   7  14
ENDBRANCH   1   9
BRANCH   5  25
ATOM     25  C   UNL     1       2.373   5.569  20.419  0.00  0.00    +0.000 C 
BRANCH  25  26
ATOM     26  C   UNL     1       1.698   4.401  19.702  0.00  0.00    +0.000 C 
BRANCH  26  27
ATOM     27  N   UNL     1       2.479   3.157  19.721  0.00  0.00    +0.000 NA
ATOM     28  H   UNL     1       2.091   2.359  20.227  0.00  0.00    +0.000 HD
BRANCH  27  29
ATOM     29  S   UNL     1       3.045   2.658  18.197  0.00  0.00    +0.000 S 
ATOM     30  O   UNL     1       3.548   1.316  18.376  0.00  0.00    +0.000 OA
ATOM     31  O   UNL     1       2.021   2.963  17.222  0.00  0.00    +0.000 OA
BRANCH  29  32
ATOM     32  C   UNL     1       4.420   3.712  17.919  0.00  0.00    +0.000 A 
ATOM     33  C   UNL     1       4.593   4.341  16.689  0.00  0.00    +0.000 A 
ATOM     34  C   UNL     1       5.669   5.208  16.527  0.00  0.00    +0.000 A 
ATOM     35  C   UNL     1       6.524   5.408  17.602  0.00  0.00    +0.000 A 
ATOM     36  N   UNL     1       6.373   4.807  18.805  0.00  0.00    +0.000 NA
ATOM     37  C   UNL     1       5.313   3.973  18.943  0.00  0.00    +0.000 A 
ENDBRANCH  29  32
ENDBRANCH  27  29
ENDBRANCH  26  27
ENDBRANCH  25  26
ENDBRANCH   5  25
TORSDOF 11
ENDMDL
MODEL 6
REMARK VINA RESULT:      -7.5      2.678      4.363
REMARK  Name = 
REMARK  13 active torsions:
REMARK  status: ('A' for Active; 'I' for Inactive)
REMARK    1  A    between atoms: C_1  and  C_2
REMARK    2  A    between atoms: C_2  and  N_3
REMARK    3  A    between atoms: N_3  and  C_4
REMARK    4  A    between atoms: C_4  and  C_5
REMARK    5  A    between atoms: C_6  and  O_8
REMARK    6  A    between atoms: O_8  and  C_9
REMARK    7  A    between atoms: C_12  and  C_13
REMARK    8  A    between atoms: N_15  and  C_16
REMARK    9  A    between atoms: C_20  and  C_21
REMARK   10  A    between atoms: C_21  and  C_22
REMARK   11  A    between atoms: C_22  and  N_23
REMARK   12  A    between atoms: N_23  and  S_24
REMARK   13  A    between atoms: S_24  and  C_27
REMARK                            x       y       z     vdW  Elec       q    Type
REMARK                         _______ _______ _______ _____ _____    ______ ____
ROOT
ATOM      1  C   UNL     1       1.426   8.959  19.353  0.00  0.00    +0.000 A 
ATOM      2  C   UNL     1       2.065   9.000  18.116  0.00  0.00    +0.000 A 
ATOM      3  C   UNL     1       2.838   7.922  17.676  0.00  0.00    +0.000 A 
ATOM      4  C   UNL     1       2.974   6.780  18.466  0.00  0.00    +0.000 A 
ATOM      5  C   UNL     1       2.352   6.710  19.717  0.00  0.00    +0.000 A 
ATOM      6  C   UNL     1       1.601   7.826  20.154  0.00  0.00    +0.000 A 
ENDROOT
BRANCH   1   9
ATOM      7  C   UNL     1       0.833  11.351  19.670  0.00  0.00    +0.000 C 
ATOM      8  O   UNL     1       1.770  11.847  19.046  0.00  0.00    +0.000 OA
ATOM      9  N   UNL     1       0.595  10.000  19.847  0.00  0.00    +0.000 N 
ATOM     10  H   UNL     1      -0.312   9.728  20.200  0.00  0.00    +0.000 HD
BRANCH   7  14
ATOM     11  C   UNL     1      -1.878  14.157  21.431  0.00  0.00    +0.000 A 
ATOM     12  C   UNL     1      -0.707  14.598  20.822  0.00  0.00    +0.000 A 
ATOM     13  C   UNL     1       0.142  13.666  20.221  0.00  0.00    +0.000 A 
ATOM     14  C   UNL     1      -0.175  12.297  20.229  0.00  0.00    +0.000 A 
ATOM     15  C   UNL     1      -1.351  11.862  20.847  0.00  0.00    +0.000 A 
ATOM     16  C   UNL     1      -2.196  12.796  21.460  0.00  0.00    +0.000 A 
BRANCH  11  17
ATOM     17  O   UNL     1      -2.630  15.120  22.134  0.00  0.00    +0.000 OA
BRANCH  17  19
ATOM     18  N   UNL     1      -4.764  14.723  22.968  0.00  0.00    +0.000 N 
ATOM     19  C   UNL     1      -4.005  15.191  21.899  0.00  0.00    +0.000 C 
ATOM     20  O   UNL     1      -4.499  15.574  20.843  0.00  0.00    +0.000 OA
BRANCH  18  22
ATOM     21  C   UNL     1      -7.096  15.356  23.624  0.00  0.00    +0.000 C 
ATOM     22  C   UNL     1      -6.195  14.508  22.746  0.00  0.00    +0.000 C 
ENDBRANCH  18  22
BRANCH  18  23
ATOM     23  C   UNL     1      -4.170  14.268  24.225  0.00  0.00    +0.000 C 
ATOM     24  C   UNL     1      -4.341  12.777  24.469  0.00  0.00    +0.000 C 
ENDBRANCH  18  23
ENDBRANCH  17  19
ENDBRANCH  11  17
ENDBRANCH   7  14
ENDBRANCH   1   9
BRANCH   5  25
ATOM     25  C   UNL     1       2.487   5.431  20.534  0.00  0.00    +0.000 C 
BRANCH  25  26
ATOM     26  C   UNL     1       1.830   4.227  19.863  0.00  0.00    +0.000 C 
BRANCH  26  27
ATOM     27  N   UNL     1       2.733   3.085  19.665  0.00  0.00    +0.000 NA
ATOM     28  H   UNL     1       2.511   2.213  20.148  0.00  0.00    +0.000 HD
BRANCH  27  29
ATOM     29  S   UNL     1       3.119   2.768  18.040  0.00  0.00    +0.000 S 
ATOM     30  O   UNL     1       3.524   1.382  17.987  0.00  0.00    +0.000 OA
ATOM     31  O   UNL     1       2.041   3.277  17.221  0.00  0.00    +0.000 OA
BRANCH  29  32
ATOM     32  C   UNL     1       4.547   3.752  17.770  0.00  0.00    +0.000 A 
ATOM     33  C   UNL     1       4.788   4.322  16.524  0.00  0.00    +0.000 A 
ATOM     34  C   UNL     1       5.905   5.137  16.366  0.00  0.00    +0.000 A 
ATOM     35  C   UNL     1       6.730   5.346  17.462  0.00  0.00    +0.000 A 
ATOM     36  N   UNL     1       6.513   4.801  18.682  0.00  0.00    +0.000 NA
ATOM     37  C   UNL     1       5.414   4.018  18.815  0.00  0.00    +0.000 A 
ENDBRANCH  29  32
ENDBRANCH  27  29
ENDBRANCH  26  27
ENDBRANCH  25  26
ENDBRANCH   5  25
TORSDOF 11
ENDMDL
MODEL 7
REMARK VINA RESULT:      -7.4      3.032     11.624
REMARK  Name = 
REMARK  13 active torsions:
REMARK  status: ('A' for Active; 'I' for Inactive)
REMARK    1  A    between atoms: C_1  and  C_2
REMARK    2  A    between atoms: C_2  and  N_3
REMARK    3  A    between atoms: N_3  and  C_4
REMARK    4  A    between atoms: C_4  and  C_5
REMARK    5  A    between atoms: C_6  and  O_8
REMARK    6  A    between atoms: O_8  and  C_9
REMARK    7  A    between atoms: C_12  and  C_13
REMARK    8  A    between atoms: N_15  and  C_16
REMARK    9  A    between atoms: C_20  and  C_21
REMARK   10  A    between atoms: C_21  and  C_22
REMARK   11  A    between atoms: C_22  and  N_23
REMARK   12  A    between atoms: N_23  and  S_24
REMARK   13  A    between atoms: S_24  and  C_27
REMARK                            x       y       z     vdW  Elec       q    Type
REMARK                         _______ _______ _______ _____ _____    ______ ____
ROOT
ATOM      1  C   UNL     1       1.415   8.598  20.138  0.00  0.00    +0.000 A 
ATOM      2  C   UNL     1       1.319   8.596  21.528  0.00  0.00    +0.000 A 
ATOM      3  C   UNL     1       0.419   9.441  22.182  0.00  0.00    +0.000 A 
ATOM      4  C   UNL     1      -0.408  10.295  21.452  0.00  0.00    +0.000 A 
ATOM      5  C   UNL     1      -0.332  10.328  20.055  0.00  0.00    +0.000 A 
ATOM      6  C   UNL     1       0.609   9.487  19.418  0.00  0.00    +0.000 A 
ENDROOT
BRANCH   1   9
ATOM      7  C   UNL     1       2.441   6.389  19.648  0.00  0.00    +0.000 C 
ATOM      8  O   UNL     1       1.852   5.730  20.503  0.00  0.00    +0.000 OA
ATOM      9  N   UNL     1       2.279   7.741  19.406  0.00  0.00    +0.000 N 
ATOM     10  H   UNL     1       2.665   8.111  18.548  0.00  0.00    +0.000 HD
BRANCH   7  14
ATOM     11  C   UNL     1       4.943   4.315  16.862  0.00  0.00    +0.000 A 
ATOM     12  C   UNL     1       4.694   5.675  16.706  0.00  0.00    +0.000 A 
ATOM     13  C   UNL     1       3.906   6.337  17.651  0.00  0.00    +0.000 A 
ATOM     14  C   UNL     1       3.365   5.644  18.747  0.00  0.00    +0.000 A 
ATOM     15  C   UNL     1       3.616   4.276  18.893  0.00  0.00    +0.000 A 
ATOM     16  C   UNL     1       4.397   3.610  17.939  0.00  0.00    +0.000 A 
BRANCH  11  17
ATOM     17  O   UNL     1       5.633   3.671  15.815  0.00  0.00    +0.000 OA
BRANCH  17  19
ATOM     18  N   UNL     1       6.731   4.419  13.905  0.00  0.00    +0.000 N 
ATOM     19  C   UNL     1       6.771   4.288  15.291  0.00  0.00    +0.000 C 
ATOM     20  O   UNL     1       7.734   4.633  15.969  0.00  0.00    +0.000 OA
BRANCH  18  22
ATOM     21  C   UNL     1       7.776   5.881  12.162  0.00  0.00    +0.000 C 
ATOM     22  C   UNL     1       7.964   4.812  13.222  0.00  0.00    +0.000 C 
ENDBRANCH  18  22
BRANCH  18  23
ATOM     23  C   UNL     1       5.581   4.006  13.102  0.00  0.00    +0.000 C 
ATOM     24  C   UNL     1       5.913   2.937  12.074  0.00  0.00    +0.000 C 
ENDBRANCH  18  23
ENDBRANCH  17  19
ENDBRANCH  11  17
ENDBRANCH   7  14
ENDBRANCH   1   9
BRANCH   5  25
ATOM     25  C   UNL     1      -1.280  11.241  19.289  0.00  0.00    +0.000 C 
BRANCH  25  26
ATOM     26  C   UNL     1      -0.904  12.718  19.405  0.00  0.00    +0.000 C 
BRANCH  26  27
ATOM     27  N   UNL     1      -2.020  13.589  19.795  0.00  0.00    +0.000 NA
ATOM     28  H   UNL     1      -2.946  13.167  19.882  0.00  0.00    +0.000 HD
BRANCH  27  29
ATOM     29  S   UNL     1      -1.704  14.577  21.142  0.00  0.00    +0.000 S 
ATOM     30  O   UNL     1      -0.352  14.275  21.552  0.00  0.00    +0.000 OA
ATOM     31  O   UNL     1      -2.116  15.923  20.811  0.00  0.00    +0.000 OA
BRANCH  29  32
ATOM     32  C   UNL     1      -2.788  13.940  22.366  0.00  0.00    +0.000 A 
ATOM     33  C   UNL     1      -2.634  12.641  22.842  0.00  0.00    +0.000 A 
ATOM     34  C   UNL     1      -3.483  12.192  23.849  0.00  0.00    +0.000 A 
ATOM     35  C   UNL     1      -4.446  13.063  24.337  0.00  0.00    +0.000 A 
ATOM     36  N   UNL     1      -4.612  14.329  23.889  0.00  0.00    +0.000 NA
ATOM     37  C   UNL     1      -3.769  14.748  22.914  0.00  0.00    +0.000 A 
ENDBRANCH  29  32
ENDBRANCH  27  29
ENDBRANCH  26  27
ENDBRANCH  25  26
ENDBRANCH   5  25
TORSDOF 11
ENDMDL
MODEL 8
REMARK VINA RESULT:      -7.4      2.524      4.120
REMARK  Name = 
REMARK  13 active torsions:
REMARK  status: ('A' for Active; 'I' for Inactive)
REMARK    1  A    between atoms: C_1  and  C_2
REMARK    2  A    between atoms: C_2  and  N_3
REMARK    3  A    between atoms: N_3  and  C_4
REMARK    4  A    between atoms: C_4  and  C_5
REMARK    5  A    between atoms: C_6  and  O_8
REMARK    6  A    between atoms: O_8  and  C_9
REMARK    7  A    between atoms: C_12  and  C_13
REMARK    8  A    between atoms: N_15  and  C_16
REMARK    9  A    between atoms: C_20  and  C_21
REMARK   10  A    between atoms: C_21  and  C_22
REMARK   11  A    between atoms: C_22  and  N_23
REMARK   12  A    between atoms: N_23  and  S_24
REMARK   13  A    between atoms: S_24  and  C_27
REMARK                            x       y       z     vdW  Elec       q    Type
REMARK                         _______ _______ _______ _____ _____    ______ ____
ROOT
ATOM      1  C   UNL     1       1.226   8.996  19.923  0.00  0.00    +0.000 A 
ATOM      2  C   UNL     1       1.715   9.122  18.625  0.00  0.00    +0.000 A 
ATOM      3  C   UNL     1       2.355   8.050  17.997  0.00  0.00    +0.000 A 
ATOM      4  C   UNL     1       2.506   6.831  18.657  0.00  0.00    +0.000 A 
ATOM      5  C   UNL     1       2.034   6.673  19.965  0.00  0.00    +0.000 A 
ATOM      6  C   UNL     1       1.418   7.782  20.591  0.00  0.00    +0.000 A 
ENDROOT
BRANCH   1   9
ATOM      7  C   UNL     1      -0.633  10.628  20.166  0.00  0.00    +0.000 C 
ATOM      8  O   UNL     1      -1.250  10.342  19.142  0.00  0.00    +0.000 OA
ATOM      9  N   UNL     1       0.533  10.030  20.609  0.00  0.00    +0.000 N 
ATOM     10  H   UNL     1       0.821  10.215  21.561  0.00  0.00    +0.000 HD
BRANCH   7  14
ATOM     11  C   UNL     1      -2.335  13.790  22.496  0.00  0.00    +0.000 A 
ATOM     12  C   UNL     1      -2.881  13.454  21.261  0.00  0.00    +0.000 A 
ATOM     13  C   UNL     1      -2.331  12.392  20.538  0.00  0.00    +0.000 A 
ATOM     14  C   UNL     1      -1.237  11.670  21.044  0.00  0.00    +0.000 A 
ATOM     15  C   UNL     1      -0.691  12.017  22.283  0.00  0.00    +0.000 A 
ATOM     16  C   UNL     1      -1.235  13.089  23.002  0.00  0.00    +0.000 A 
BRANCH  11  17
ATOM     17  O   UNL     1      -2.842  14.947  23.121  0.00  0.00    +0.000 OA
BRANCH  17  19
ATOM     18  N   UNL     1      -4.024  16.713  22.175  0.00  0.00    +0.000 N 
ATOM     19  C   UNL     1      -2.772  16.159  22.431  0.00  0.00    +0.000 C 
ATOM     20  O   UNL     1      -1.723  16.663  22.040  0.00  0.00    +0.000 OA
BRANCH  18  22
ATOM     21  C   UNL     1      -4.618  17.481  19.867  0.00  0.00    +0.000 C 
ATOM     22  C   UNL     1      -4.092  17.841  21.245  0.00  0.00    +0.000 C 
ENDBRANCH  18  22
BRANCH  18  23
ATOM     23  C   UNL     1      -5.270  16.109  22.644  0.00  0.00    +0.000 C 
ATOM     24  C   UNL     1      -5.800  16.732  23.925  0.00  0.00    +0.000 C 
ENDBRANCH  18  23
ENDBRANCH  17  19
ENDBRANCH  11  17
ENDBRANCH   7  14
ENDBRANCH   1   9
BRANCH   5  25
ATOM     25  C   UNL     1       2.177   5.315  20.639  0.00  0.00    +0.000 C 
BRANCH  25  26
ATOM     26  C   UNL     1       1.700   4.162  19.758  0.00  0.00    +0.000 C 
BRANCH  26  27
ATOM     27  N   UNL     1       2.692   3.093  19.584  0.00  0.00    +0.000 NA
ATOM     28  H   UNL     1       2.523   2.205  20.059  0.00  0.00    +0.000 HD
BRANCH  27  29
ATOM     29  S   UNL     1       3.145   2.811  17.970  0.00  0.00    +0.000 S 
ATOM     30  O   UNL     1       3.618   1.447  17.918  0.00  0.00    +0.000 OA
ATOM     31  O   UNL     1       2.071   3.276  17.120  0.00  0.00    +0.000 OA
BRANCH  29  32
ATOM     32  C   UNL     1       4.532   3.865  17.755  0.00  0.00    +0.000 A 
ATOM     33  C   UNL     1       5.273   4.293  18.853  0.00  0.00    +0.000 A 
ATOM     34  C   UNL     1       6.395   5.086  18.634  0.00  0.00    +0.000 A 
ATOM     35  C   UNL     1       6.727   5.415  17.328  0.00  0.00    +0.000 A 
ATOM     36  N   UNL     1       6.020   5.009  16.248  0.00  0.00    +0.000 NA
ATOM     37  C   UNL     1       4.936   4.230  16.483  0.00  0.00    +0.000 A 
ENDBRANCH  29  32
ENDBRANCH  27  29
ENDBRANCH  26  27
ENDBRANCH  25  26
ENDBRANCH   5  25
TORSDOF 11
ENDMDL
MODEL 9
REMARK VINA RESULT:      -7.4      1.728      2.410
REMARK  Name = 
REMARK  13 active torsions:
REMARK  status: ('A' for Active; 'I' for Inactive)
REMARK    1  A    between atoms: C_1  and  C_2
REMARK    2  A    between atoms: C_2  and  N_3
REMARK    3  A    between atoms: N_3  and  C_4
REMARK    4  A    between atoms: C_4  and  C_5
REMARK    5  A    between atoms: C_6  and  O_8
REMARK    6  A    between atoms: O_8  and  C_9
REMARK    7  A    between atoms: C_12  and  C_13
REMARK    8  A    between atoms: N_15  and  C_16
REMARK    9  A    between atoms: C_20  and  C_21
REMARK   10  A    between atoms: C_21  and  C_22
REMARK   11  A    between atoms: C_22  and  N_23
REMARK   12  A    between atoms: N_23  and  S_24
REMARK   13  A    between atoms: S_24  and  C_27
REMARK                            x       y       z     vdW  Elec       q    Type
REMARK                         _______ _______ _______ _____ _____    ______ ____
ROOT
ATOM      1  C   UNL     1       1.854   5.182  20.450  0.00  0.00    +0.000 A 
ATOM      2  C   UNL     1       1.177   3.966  20.398  0.00  0.00    +0.000 A 
ATOM      3  C   UNL     1       1.796   2.826  19.880  0.00  0.00    +0.000 A 
ATOM      4  C   UNL     1       3.110   2.884  19.414  0.00  0.00    +0.000 A 
ATOM      5  C   UNL     1       3.816   4.092  19.444  0.00  0.00    +0.000 A 
ATOM      6  C   UNL     1       3.157   5.239  19.943  0.00  0.00    +0.000 A 
ENDROOT
BRANCH   1   9
ATOM      7  C   UNL     1       1.467   7.637  20.466  0.00  0.00    +0.000 C 
ATOM      8  O   UNL     1       2.087   7.917  19.441  0.00  0.00    +0.000 OA
ATOM      9  N   UNL     1       1.300   6.371  20.997  0.00  0.00    +0.000 N 
ATOM     10  H   UNL     1       0.603   6.256  21.720  0.00  0.00    +0.000 HD
BRANCH   7  14
ATOM     11  C   UNL     1      -0.302  11.002  22.433  0.00  0.00    +0.000 A 
ATOM     12  C   UNL     1       0.210  11.130  21.145  0.00  0.00    +0.000 A 
ATOM     13  C   UNL     1       0.747  10.007  20.510  0.00  0.00    +0.000 A 
ATOM     14  C   UNL     1       0.776   8.761  21.159  0.00  0.00    +0.000 A 
ATOM     15  C   UNL     1       0.263   8.642  22.454  0.00  0.00    +0.000 A 
ATOM     16  C   UNL     1      -0.264   9.771  23.095  0.00  0.00    +0.000 A 
BRANCH  11  17
ATOM     17  O   UNL     1      -0.710  12.189  23.074  0.00  0.00    +0.000 OA
BRANCH  17  19
ATOM     18  N   UNL     1      -1.697  14.171  22.362  0.00  0.00    +0.000 N 
ATOM     19  C   UNL     1      -1.877  12.816  22.630  0.00  0.00    +0.000 C 
ATOM     20  O   UNL     1      -2.962  12.252  22.535  0.00  0.00    +0.000 OA
BRANCH  18  22
ATOM     21  C   UNL     1      -3.458  15.621  23.396  0.00  0.00    +0.000 C 
ATOM     22  C   UNL     1      -2.893  14.985  22.139  0.00  0.00    +0.000 C 
ENDBRANCH  18  22
BRANCH  18  23
ATOM     23  C   UNL     1      -0.401  14.838  22.477  0.00  0.00    +0.000 C 
ATOM     24  C   UNL     1      -0.236  16.006  21.518  0.00  0.00    +0.000 C 
ENDBRANCH  18  23
ENDBRANCH  17  19
ENDBRANCH  11  17
ENDBRANCH   7  14
ENDBRANCH   1   9
BRANCH   5  25
ATOM     25  C   UNL     1       5.262   4.110  18.967  0.00  0.00    +0.000 C 
BRANCH  25  26
ATOM     26  C   UNL     1       6.036   5.331  19.462  0.00  0.00    +0.000 C 
BRANCH  26  27
ATOM     27  N   UNL     1       7.044   5.824  18.515  0.00  0.00    +0.000 NA
ATOM     28  H   UNL     1       7.719   5.152  18.145  0.00  0.00    +0.000 HD
BRANCH  27  29
ATOM     29  S   UNL     1       6.417   6.771  17.250  0.00  0.00    +0.000 S 
ATOM     30  O   UNL     1       5.061   7.096  17.626  0.00  0.00    +0.000 OA
ATOM     31  O   UNL     1       7.387   7.798  16.941  0.00  0.00    +0.000 OA
BRANCH  29  32
ATOM     32  C   UNL     1       6.342   5.643  15.907  0.00  0.00    +0.000 A 
ATOM     33  C   UNL     1       5.122   5.115  15.493  0.00  0.00    +0.000 A 
ATOM     34  C   UNL     1       5.101   4.264  14.392  0.00  0.00    +0.000 A 
ATOM     35  C   UNL     1       6.300   3.981  13.753  0.00  0.00    +0.000 A 
ATOM     36  N   UNL     1       7.495   4.485  14.139  0.00  0.00    +0.000 NA
ATOM     37  C   UNL     1       7.491   5.318  15.209  0.00  0.00    +0.000 A 
ENDBRANCH  29  32
ENDBRANCH  27  29
ENDBRANCH  26  27
ENDBRANCH  25  26
ENDBRANCH   5  25
TORSDOF 11
ENDMDL
