MODEL 1
REMARK VINA RESULT:      -9.1      0.000      0.000
REMARK  Name = 
REMARK  6 active torsions:
REMARK  status: ('A' for Active; 'I' for Inactive)
REMARK    1  A    between atoms: C_1  and  O_2
REMARK    2  A    between atoms: O_2  and  C_3
REMARK    3  A    between atoms: C_9  and  C_10
REMARK    4  A    between atoms: C_16  and  C_17
REMARK    5  A    between atoms: N_24  and  S_25
REMARK    6  A    between atoms: S_25  and  C_26
REMARK                            x       y       z     vdW  Elec       q    Type
REMARK                         _______ _______ _______ _____ _____    ______ ____
ROOT
ATOM      1  C   UNL     1       4.012   4.388  18.713  0.00  0.00    +0.000 A 
ATOM      2  C   UNL     1       3.711   3.231  19.462  0.00  0.00    +0.000 A 
ATOM      3  C   UNL     1       2.756   3.276  20.472  0.00  0.00    +0.000 A 
ATOM      4  N   UNL     1       2.022   4.350  20.808  0.00  0.00    +0.000 NA
ATOM      5  C   UNL     1       2.302   5.433  20.055  0.00  0.00    +0.000 A 
ATOM      6  N   UNL     1       1.679   6.636  20.204  0.00  0.00    +0.000 N 
ATOM      7  C   UNL     1       2.186   7.580  19.328  0.00  0.00    +0.000 A 
ATOM      8  C   UNL     1       3.178   6.924  18.627  0.00  0.00    +0.000 A 
ATOM      9  C   UNL     1       3.253   5.547  19.048  0.00  0.00    +0.000 A 
ATOM     10  H   UNL     1       0.954   6.780  20.890  0.00  0.00    +0.000 HD
ENDROOT
BRANCH   7  11
ATOM     11  C   UNL     1       1.649   8.918  19.376  0.00  0.00    +0.000 C 
ATOM     12  C   UNL     1       0.787   9.298  20.391  0.00  0.00    +0.000 C 
ATOM     13  C   UNL     1      -0.125  10.622  20.383  0.00  0.00    +0.000 C 
ATOM     14  C   UNL     1       0.305  12.198  20.515  0.00  0.00    +0.000 C 
ATOM     15  C   UNL     1       1.225  12.538  19.308  0.00  0.00    +0.000 C 
ATOM     16  C   UNL     1       1.086  11.223  18.539  0.00  0.00    +0.000 C 
ATOM     17  C   UNL     1       1.968   9.983  18.257  0.00  0.00    +0.000 C 
ATOM     18  N   UNL     1      -0.345  10.655  18.947  0.00  0.00    +0.000 NA
BRANCH  18  19
ATOM     19  S   UNL     1      -1.851  11.234  18.442  0.00  0.00    +0.000 S 
ATOM     20  C   UNL     1      -2.622   9.725  17.753  0.00  0.00    +0.000 C 
ATOM     21  O   UNL     1      -2.660  11.591  19.592  0.00  0.00    +0.000 OA
ATOM     22  O   UNL     1      -1.670  12.150  17.359  0.00  0.00    +0.000 OA
ENDBRANCH  18  19
ENDBRANCH   7  11
BRANCH   1  29
ATOM     23  C   UNL     1       6.415   4.609  17.834  0.00  0.00    +0.000 A 
ATOM     24  C   UNL     1       7.312   4.610  16.748  0.00  0.00    +0.000 A 
ATOM     25  C   UNL     1       6.850   4.446  15.444  0.00  0.00    +0.000 A 
ATOM     26  C   UNL     1       5.500   4.244  15.229  0.00  0.00    +0.000 A 
ATOM     27  F   UNL     1       5.044   4.096  13.978  0.00  0.00    +0.000 F 
ATOM     28  C   UNL     1       4.607   4.187  16.292  0.00  0.00    +0.000 A 
ATOM     29  C   UNL     1       5.023   4.397  17.623  0.00  0.00    +0.000 A 
BRANCH  23  31
ATOM     30  C   UNL     1       7.846   5.761  19.366  0.00  0.00    +0.000 C 
ATOM     31  O   UNL     1       6.840   4.782  19.130  0.00  0.00    +0.000 OA
ENDBRANCH  23  31
ENDBRANCH   1  29
TORSDOF 4
ENDMDL
MODEL 2
REMARK VINA RESULT:      -8.7      1.460      2.193
REMARK  Name = 
REMARK  6 active torsions:
REMARK  status: ('A' for Active; 'I' for Inactive)
REMARK    1  A    between atoms: C_1  and  O_2
REMARK    2  A    between atoms: O_2  and  C_3
REMARK    3  A    between atoms: C_9  and  C_10
REMARK    4  A    between atoms: C_16  and  C_17
REMARK    5  A    between atoms: N_24  and  S_25
REMARK    6  A    between atoms: S_25  and  C_26
REMARK                            x       y       z     vdW  Elec       q    Type
REMARK                         _______ _______ _______ _____ _____    ______ ____
ROOT
ATOM      1  C   UNL     1       4.298   4.180  18.826  0.00  0.00    +0.000 A 
ATOM      2  C   UNL     1       4.205   2.998  19.591  0.00  0.00    +0.000 A 
ATOM      3  C   UNL     1       3.328   2.925  20.668  0.00  0.00    +0.000 A 
ATOM      4  N   UNL     1       2.488   3.898  21.061  0.00  0.00    +0.000 NA
ATOM      5  C   UNL     1       2.570   5.003  20.294  0.00  0.00    +0.000 A 
ATOM      6  N   UNL     1       1.809   6.116  20.493  0.00  0.00    +0.000 N 
ATOM      7  C   UNL     1       2.124   7.113  19.585  0.00  0.00    +0.000 A 
ATOM      8  C   UNL     1       3.139   6.586  18.811  0.00  0.00    +0.000 A 
ATOM      9  C   UNL     1       3.421   5.233  19.221  0.00  0.00    +0.000 A 
ATOM     10  H   UNL     1       1.123   6.169  21.230  0.00  0.00    +0.000 HD
ENDROOT
BRANCH   7  11
ATOM     11  C   UNL     1       1.423   8.370  19.678  0.00  0.00    +0.000 C 
ATOM     12  C   UNL     1       0.816   8.926  18.565  0.00  0.00    +0.000 C 
ATOM     13  C   UNL     1       0.299  10.444  18.455  0.00  0.00    +0.000 C 
ATOM     14  C   UNL     1      -0.969  11.181  19.187  0.00  0.00    +0.000 C 
ATOM     15  C   UNL     1      -0.721  11.127  20.722  0.00  0.00    +0.000 C 
ATOM     16  C   UNL     1       0.694  10.549  20.704  0.00  0.00    +0.000 C 
ATOM     17  C   UNL     1       1.362   9.191  21.025  0.00  0.00    +0.000 C 
ATOM     18  N   UNL     1       1.316  11.022  19.317  0.00  0.00    +0.000 NA
BRANCH  18  19
ATOM     19  S   UNL     1       1.831  12.580  18.911  0.00  0.00    +0.000 S 
ATOM     20  C   UNL     1       2.335  13.245  20.539  0.00  0.00    +0.000 C 
ATOM     21  O   UNL     1       3.049  12.516  18.126  0.00  0.00    +0.000 OA
ATOM     22  O   UNL     1       0.712  13.351  18.467  0.00  0.00    +0.000 OA
ENDBRANCH  18  19
ENDBRANCH   7  11
BRANCH   1  29
ATOM     23  C   UNL     1       6.606   4.602  17.782  0.00  0.00    +0.000 A 
ATOM     24  C   UNL     1       7.412   4.719  16.634  0.00  0.00    +0.000 A 
ATOM     25  C   UNL     1       6.858   4.599  15.361  0.00  0.00    +0.000 A 
ATOM     26  C   UNL     1       5.511   4.324  15.238  0.00  0.00    +0.000 A 
ATOM     27  F   UNL     1       4.966   4.217  14.018  0.00  0.00    +0.000 F 
ATOM     28  C   UNL     1       4.709   4.152  16.360  0.00  0.00    +0.000 A 
ATOM     29  C   UNL     1       5.216   4.314  17.665  0.00  0.00    +0.000 A 
BRANCH  23  31
ATOM     30  C   UNL     1       7.868   5.906  19.341  0.00  0.00    +0.000 C 
ATOM     31  O   UNL     1       7.122   4.729  19.051  0.00  0.00    +0.000 OA
ENDBRANCH  23  31
ENDBRANCH   1  29
TORSDOF 4
ENDMDL
MODEL 3
REMARK VINA RESULT:      -8.7      1.692      2.247
REMARK  Name = 
REMARK  6 active torsions:
REMARK  status: ('A' for Active; 'I' for Inactive)
REMARK    1  A    between atoms: C_1  and  O_2
REMARK    2  A    between atoms: O_2  and  C_3
REMARK    3  A    between atoms: C_9  and  C_10
REMARK    4  A    between atoms: C_16  and  C_17
REMARK    5  A    between atoms: N_24  and  S_25
REMARK    6  A    between atoms: S_25  and  C_26
REMARK                            x       y       z     vdW  Elec       q    Type
REMARK                         _______ _______ _______ _____ _____    ______ ____
ROOT
ATOM      1  C   UNL     1       4.027   4.320  19.155  0.00  0.00    +0.000 A 
ATOM      2  C   UNL     1       3.885   3.072  19.798  0.00  0.00    +0.000 A 
ATOM      3  C   UNL     1       2.979   2.918  20.841  0.00  0.00    +0.000 A 
ATOM      4  N   UNL     1       2.151   3.869  21.306  0.00  0.00    +0.000 NA
ATOM      5  C   UNL     1       2.280   5.041  20.654  0.00  0.00    +0.000 A 
ATOM      6  N   UNL     1       1.540   6.150  20.942  0.00  0.00    +0.000 N 
ATOM      7  C   UNL     1       1.903   7.222  20.144  0.00  0.00    +0.000 A 
ATOM      8  C   UNL     1       2.925   6.746  19.347  0.00  0.00    +0.000 A 
ATOM      9  C   UNL     1       3.165   5.353  19.629  0.00  0.00    +0.000 A 
ATOM     10  H   UNL     1       0.836   6.148  21.663  0.00  0.00    +0.000 HD
ENDROOT
BRANCH   7  11
ATOM     11  C   UNL     1       1.230   8.481  20.342  0.00  0.00    +0.000 C 
ATOM     12  C   UNL     1       0.613   9.128  19.285  0.00  0.00    +0.000 C 
ATOM     13  C   UNL     1       0.124  10.660  19.296  0.00  0.00    +0.000 C 
ATOM     14  C   UNL     1      -1.113  11.366  20.107  0.00  0.00    +0.000 C 
ATOM     15  C   UNL     1      -0.837  11.195  21.628  0.00  0.00    +0.000 C 
ATOM     16  C   UNL     1       0.566  10.593  21.539  0.00  0.00    +0.000 C 
ATOM     17  C   UNL     1       1.212   9.203  21.746  0.00  0.00    +0.000 C 
ATOM     18  N   UNL     1       1.170  11.155  20.176  0.00  0.00    +0.000 NA
BRANCH  18  19
ATOM     19  S   UNL     1       1.709  12.728  19.874  0.00  0.00    +0.000 S 
ATOM     20  C   UNL     1       2.644  12.512  18.317  0.00  0.00    +0.000 C 
ATOM     21  O   UNL     1       0.587  13.584  19.536  0.00  0.00    +0.000 OA
ATOM     22  O   UNL     1       2.648  13.112  20.881  0.00  0.00    +0.000 OA
ENDBRANCH  18  19
ENDBRANCH   7  11
BRANCH   1  29
ATOM     23  C   UNL     1       6.315   5.003  18.210  0.00  0.00    +0.000 A 
ATOM     24  C   UNL     1       7.157   5.194  17.097  0.00  0.00    +0.000 A 
ATOM     25  C   UNL     1       6.687   4.980  15.804  0.00  0.00    +0.000 A 
ATOM     26  C   UNL     1       5.391   4.537  15.625  0.00  0.00    +0.000 A 
ATOM     27  F   UNL     1       4.925   4.338  14.384  0.00  0.00    +0.000 F 
ATOM     28  C   UNL     1       4.561   4.291  16.712  0.00  0.00    +0.000 A 
ATOM     29  C   UNL     1       4.979   4.542  18.035  0.00  0.00    +0.000 A 
BRANCH  23  31
ATOM     30  C   UNL     1       8.054   5.755  19.669  0.00  0.00    +0.000 C 
ATOM     31  O   UNL     1       6.747   5.220  19.497  0.00  0.00    +0.000 OA
ENDBRANCH  23  31
ENDBRANCH   1  29
TORSDOF 4
ENDMDL
MODEL 4
REMARK VINA RESULT:      -8.3      3.469      8.671
REMARK  Name = 
REMARK  6 active torsions:
REMARK  status: ('A' for Active; 'I' for Inactive)
REMARK    1  A    between atoms: C_1  and  O_2
REMARK    2  A    between atoms: O_2  and  C_3
REMARK    3  A    between atoms: C_9  and  C_10
REMARK    4  A    between atoms: C_16  and  C_17
REMARK    5  A    between atoms: N_24  and  S_25
REMARK    6  A    between atoms: S_25  and  C_26
REMARK                            x       y       z     vdW  Elec       q    Type
REMARK                         _______ _______ _______ _____ _____    ______ ____
ROOT
ATOM      1  C   UNL     1       0.088  10.729  20.936  0.00  0.00    +0.000 A 
ATOM      2  C   UNL     1      -0.527  10.741  22.206  0.00  0.00    +0.000 A 
ATOM      3  C   UNL     1      -0.434   9.634  23.042  0.00  0.00    +0.000 A 
ATOM      4  N   UNL     1       0.245   8.505  22.775  0.00  0.00    +0.000 NA
ATOM      5  C   UNL     1       0.852   8.531  21.572  0.00  0.00    +0.000 A 
ATOM      6  N   UNL     1       1.606   7.505  21.086  0.00  0.00    +0.000 N 
ATOM      7  C   UNL     1       2.080   7.783  19.815  0.00  0.00    +0.000 A 
ATOM      8  C   UNL     1       1.572   9.029  19.507  0.00  0.00    +0.000 A 
ATOM      9  C   UNL     1       0.813   9.542  20.620  0.00  0.00    +0.000 A 
ATOM     10  H   UNL     1       1.763   6.661  21.615  0.00  0.00    +0.000 HD
ENDROOT
BRANCH   7  11
ATOM     11  C   UNL     1       2.876   6.782  19.148  0.00  0.00    +0.000 C 
ATOM     12  C   UNL     1       3.319   5.661  19.828  0.00  0.00    +0.000 C 
ATOM     13  C   UNL     1       4.464   4.657  19.310  0.00  0.00    +0.000 C 
ATOM     14  C   UNL     1       4.440   3.577  18.078  0.00  0.00    +0.000 C 
ATOM     15  C   UNL     1       4.209   4.371  16.761  0.00  0.00    +0.000 C 
ATOM     16  C   UNL     1       4.303   5.788  17.329  0.00  0.00    +0.000 C 
ATOM     17  C   UNL     1       3.324   6.944  17.643  0.00  0.00    +0.000 C 
ATOM     18  N   UNL     1       5.247   5.659  18.605  0.00  0.00    +0.000 NA
BRANCH  18  19
ATOM     19  S   UNL     1       6.921   5.428  18.613  0.00  0.00    +0.000 S 
ATOM     20  C   UNL     1       7.528   7.062  18.058  0.00  0.00    +0.000 C 
ATOM     21  O   UNL     1       7.400   5.280  19.975  0.00  0.00    +0.000 OA
ATOM     22  O   UNL     1       7.276   4.480  17.604  0.00  0.00    +0.000 OA
ENDBRANCH  18  19
ENDBRANCH   7  11
BRANCH   1  29
ATOM     23  C   UNL     1      -0.872  11.956  18.894  0.00  0.00    +0.000 A 
ATOM     24  C   UNL     1      -0.872  13.082  18.048  0.00  0.00    +0.000 A 
ATOM     25  C   UNL     1       0.028  14.125  18.252  0.00  0.00    +0.000 A 
ATOM     26  C   UNL     1       0.900  14.061  19.321  0.00  0.00    +0.000 A 
ATOM     27  F   UNL     1       1.777  15.054  19.520  0.00  0.00    +0.000 F 
ATOM     28  C   UNL     1       0.880  12.983  20.198  0.00  0.00    +0.000 A 
ATOM     29  C   UNL     1       0.021  11.883  20.001  0.00  0.00    +0.000 A 
BRANCH  23  31
ATOM     30  C   UNL     1      -1.646  10.185  17.485  0.00  0.00    +0.000 C 
ATOM     31  O   UNL     1      -1.739  10.905  18.709  0.00  0.00    +0.000 OA
ENDBRANCH  23  31
ENDBRANCH   1  29
TORSDOF 4
ENDMDL
MODEL 5
REMARK VINA RESULT:      -8.0      1.815      2.337
REMARK  Name = 
REMARK  6 active torsions:
REMARK  status: ('A' for Active; 'I' for Inactive)
REMARK    1  A    between atoms: C_1  and  O_2
REMARK    2  A    between atoms: O_2  and  C_3
REMARK    3  A    between atoms: C_9  and  C_10
REMARK    4  A    between atoms: C_16  and  C_17
REMARK    5  A    between atoms: N_24  and  S_25
REMARK    6  A    between atoms: S_25  and  C_26
REMARK                            x       y       z     vdW  Elec       q    Type
REMARK                         _______ _______ _______ _____ _____    ______ ____
ROOT
ATOM      1  C   UNL     1       4.155   4.836  18.715  0.00  0.00    +0.000 A 
ATOM      2  C   UNL     1       4.085   3.671  19.508  0.00  0.00    +0.000 A 
ATOM      3  C   UNL     1       3.226   3.614  20.599  0.00  0.00    +0.000 A 
ATOM      4  N   UNL     1       2.381   4.587  20.982  0.00  0.00    +0.000 NA
ATOM      5  C   UNL     1       2.441   5.676  20.190  0.00  0.00    +0.000 A 
ATOM      6  N   UNL     1       1.671   6.786  20.374  0.00  0.00    +0.000 N 
ATOM      7  C   UNL     1       1.963   7.764  19.439  0.00  0.00    +0.000 A 
ATOM      8  C   UNL     1       2.971   7.230  18.662  0.00  0.00    +0.000 A 
ATOM      9  C   UNL     1       3.274   5.890  19.098  0.00  0.00    +0.000 A 
ATOM     10  H   UNL     1       0.996   6.849  21.120  0.00  0.00    +0.000 HD
ENDROOT
BRANCH   7  11
ATOM     11  C   UNL     1       1.251   9.016  19.514  0.00  0.00    +0.000 C 
ATOM     12  C   UNL     1       1.365   9.957  18.505  0.00  0.00    +0.000 C 
ATOM     13  C   UNL     1       0.901  11.492  18.615  0.00  0.00    +0.000 C 
ATOM     14  C   UNL     1      -0.605  12.136  18.685  0.00  0.00    +0.000 C 
ATOM     15  C   UNL     1      -1.292  11.589  19.969  0.00  0.00    +0.000 C 
ATOM     16  C   UNL     1      -0.092  10.861  20.576  0.00  0.00    +0.000 C 
ATOM     17  C   UNL     1       0.361   9.393  20.762  0.00  0.00    +0.000 C 
ATOM     18  N   UNL     1       1.185  11.644  20.033  0.00  0.00    +0.000 NA
BRANCH  18  19
ATOM     19  S   UNL     1       1.726  13.169  20.520  0.00  0.00    +0.000 S 
ATOM     20  C   UNL     1       0.365  13.720  21.611  0.00  0.00    +0.000 C 
ATOM     21  O   UNL     1       2.885  13.036  21.383  0.00  0.00    +0.000 OA
ATOM     22  O   UNL     1       1.748  14.049  19.394  0.00  0.00    +0.000 OA
ENDBRANCH  18  19
ENDBRANCH   7  11
BRANCH   1  29
ATOM     23  C   UNL     1       6.313   5.619  17.563  0.00  0.00    +0.000 A 
ATOM     24  C   UNL     1       7.109   5.692  16.403  0.00  0.00    +0.000 A 
ATOM     25  C   UNL     1       6.661   5.153  15.199  0.00  0.00    +0.000 A 
ATOM     26  C   UNL     1       5.440   4.509  15.164  0.00  0.00    +0.000 A 
ATOM     27  F   UNL     1       4.996   3.996  14.008  0.00  0.00    +0.000 F 
ATOM     28  C   UNL     1       4.665   4.379  16.310  0.00  0.00    +0.000 A 
ATOM     29  C   UNL     1       5.055   4.952  17.537  0.00  0.00    +0.000 A 
BRANCH  23  31
ATOM     30  C   UNL     1       7.904   5.620  19.350  0.00  0.00    +0.000 C 
ATOM     31  O   UNL     1       6.722   6.153  18.762  0.00  0.00    +0.000 OA
ENDBRANCH  23  31
ENDBRANCH   1  29
TORSDOF 4
ENDMDL
MODEL 6
REMARK VINA RESULT:      -7.9      3.352      8.685
REMARK  Name = 
REMARK  6 active torsions:
REMARK  status: ('A' for Active; 'I' for Inactive)
REMARK    1  A    between atoms: C_1  and  O_2
REMARK    2  A    between atoms: O_2  and  C_3
REMARK    3  A    between atoms: C_9  and  C_10
REMARK    4  A    between atoms: C_16  and  C_17
REMARK    5  A    between atoms: N_24  and  S_25
REMARK    6  A    between atoms: S_25  and  C_26
REMARK                            x       y       z     vdW  Elec       q    Type
REMARK                         _______ _______ _______ _____ _____    ______ ____
ROOT
ATOM      1  C   UNL     1       0.270  11.477  21.228  0.00  0.00    +0.000 A 
ATOM      2  C   UNL     1      -0.489  11.680  22.399  0.00  0.00    +0.000 A 
ATOM      3  C   UNL     1      -0.885  10.597  23.177  0.00  0.00    +0.000 A 
ATOM      4  N   UNL     1      -0.577   9.310  22.941  0.00  0.00    +0.000 NA
ATOM      5  C   UNL     1       0.177   9.145  21.837  0.00  0.00    +0.000 A 
ATOM      6  N   UNL     1       0.621   7.932  21.401  0.00  0.00    +0.000 N 
ATOM      7  C   UNL     1       1.342   8.050  20.225  0.00  0.00    +0.000 A 
ATOM      8  C   UNL     1       1.319   9.396  19.922  0.00  0.00    +0.000 A 
ATOM      9  C   UNL     1       0.610  10.121  20.947  0.00  0.00    +0.000 A 
ATOM     10  H   UNL     1       0.415   7.079  21.898  0.00  0.00    +0.000 HD
ENDROOT
BRANCH   7  11
ATOM     11  C   UNL     1       1.861   6.849  19.618  0.00  0.00    +0.000 C 
ATOM     12  C   UNL     1       2.041   5.698  20.367  0.00  0.00    +0.000 C 
ATOM     13  C   UNL     1       2.900   4.420  19.906  0.00  0.00    +0.000 C 
ATOM     14  C   UNL     1       2.590   3.303  18.747  0.00  0.00    +0.000 C 
ATOM     15  C   UNL     1       2.523   4.046  17.383  0.00  0.00    +0.000 C 
ATOM     16  C   UNL     1       2.965   5.431  17.856  0.00  0.00    +0.000 C 
ATOM     17  C   UNL     1       2.298   6.806  18.102  0.00  0.00    +0.000 C 
ATOM     18  N   UNL     1       3.882   5.159  19.130  0.00  0.00    +0.000 NA
BRANCH  18  19
ATOM     19  S   UNL     1       5.453   4.536  19.138  0.00  0.00    +0.000 S 
ATOM     20  C   UNL     1       5.872   4.549  17.357  0.00  0.00    +0.000 C 
ATOM     21  O   UNL     1       6.364   5.481  19.756  0.00  0.00    +0.000 OA
ATOM     22  O   UNL     1       5.421   3.168  19.554  0.00  0.00    +0.000 OA
ENDBRANCH  18  19
ENDBRANCH   7  11
BRANCH   1  29
ATOM     23  C   UNL     1      -0.090  13.197  19.354  0.00  0.00    +0.000 A 
ATOM     24  C   UNL     1       0.410  14.252  18.567  0.00  0.00    +0.000 A 
ATOM     25  C   UNL     1       1.720  14.700  18.727  0.00  0.00    +0.000 A 
ATOM     26  C   UNL     1       2.515  14.121  19.697  0.00  0.00    +0.000 A 
ATOM     27  F   UNL     1       3.779  14.537  19.851  0.00  0.00    +0.000 F 
ATOM     28  C   UNL     1       2.022  13.115  20.520  0.00  0.00    +0.000 A 
ATOM     29  C   UNL     1       0.721  12.597  20.360  0.00  0.00    +0.000 A 
BRANCH  23  31
ATOM     30  C   UNL     1      -1.656  11.933  18.062  0.00  0.00    +0.000 C 
ATOM     31  O   UNL     1      -1.373  12.725  19.210  0.00  0.00    +0.000 OA
ENDBRANCH  23  31
ENDBRANCH   1  29
TORSDOF 4
ENDMDL
MODEL 7
REMARK VINA RESULT:      -7.8      3.369      8.577
REMARK  Name = 
REMARK  6 active torsions:
REMARK  status: ('A' for Active; 'I' for Inactive)
REMARK    1  A    between atoms: C_1  and  O_2
REMARK    2  A    between atoms: O_2  and  C_3
REMARK    3  A    between atoms: C_9  and  C_10
REMARK    4  A    between atoms: C_16  and  C_17
REMARK    5  A    between atoms: N_24  and  S_25
REMARK    6  A    between atoms: S_25  and  C_26
REMARK                            x       y       z     vdW  Elec       q    Type
REMARK                         _______ _______ _______ _____ _____    ______ ____
ROOT
ATOM      1  C   UNL     1      -0.306  10.029  20.345  0.00  0.00    +0.000 A 
ATOM      2  C   UNL     1      -0.556  10.398  21.683  0.00  0.00    +0.000 A 
ATOM      3  C   UNL     1       0.129   9.778  22.723  0.00  0.00    +0.000 A 
ATOM      4  N   UNL     1       1.081   8.839  22.583  0.00  0.00    +0.000 NA
ATOM      5  C   UNL     1       1.327   8.529  21.294  0.00  0.00    +0.000 A 
ATOM      6  N   UNL     1       2.257   7.612  20.904  0.00  0.00    +0.000 N 
ATOM      7  C   UNL     1       2.275   7.465  19.527  0.00  0.00    +0.000 A 
ATOM      8  C   UNL     1       1.295   8.319  19.061  0.00  0.00    +0.000 A 
ATOM      9  C   UNL     1       0.697   9.032  20.162  0.00  0.00    +0.000 A 
ATOM     10  H   UNL     1       2.830   7.117  21.569  0.00  0.00    +0.000 HD
ENDROOT
BRANCH   7  11
ATOM     11  C   UNL     1       3.190   6.509  18.953  0.00  0.00    +0.000 C 
ATOM     12  C   UNL     1       3.617   5.413  19.682  0.00  0.00    +0.000 C 
ATOM     13  C   UNL     1       4.862   4.473  19.293  0.00  0.00    +0.000 C 
ATOM     14  C   UNL     1       5.026   3.393  18.071  0.00  0.00    +0.000 C 
ATOM     15  C   UNL     1       4.894   4.174  16.732  0.00  0.00    +0.000 C 
ATOM     16  C   UNL     1       4.851   5.593  17.300  0.00  0.00    +0.000 C 
ATOM     17  C   UNL     1       3.784   6.695  17.503  0.00  0.00    +0.000 C 
ATOM     18  N   UNL     1       5.661   5.515  18.669  0.00  0.00    +0.000 NA
BRANCH  18  19
ATOM     19  S   UNL     1       7.335   5.374  18.855  0.00  0.00    +0.000 S 
ATOM     20  C   UNL     1       7.918   6.998  18.246  0.00  0.00    +0.000 C 
ATOM     21  O   UNL     1       7.682   5.342  20.263  0.00  0.00    +0.000 OA
ATOM     22  O   UNL     1       7.833   4.381  17.954  0.00  0.00    +0.000 OA
ENDBRANCH  18  19
ENDBRANCH   7  11
BRANCH   1  29
ATOM     23  C   UNL     1      -0.712  11.961  18.701  0.00  0.00    +0.000 A 
ATOM     24  C   UNL     1      -1.425  12.492  17.609  0.00  0.00    +0.000 A 
ATOM     25  C   UNL     1      -2.462  11.772  17.020  0.00  0.00    +0.000 A 
ATOM     26  C   UNL     1      -2.759  10.510  17.495  0.00  0.00    +0.000 A 
ATOM     27  F   UNL     1      -3.761   9.814  16.942  0.00  0.00    +0.000 F 
ATOM     28  C   UNL     1      -2.031   9.947  18.537  0.00  0.00    +0.000 A 
ATOM     29  C   UNL     1      -1.008  10.658  19.195  0.00  0.00    +0.000 A 
BRANCH  23  31
ATOM     30  C   UNL     1       0.332  14.066  19.147  0.00  0.00    +0.000 C 
ATOM     31  O   UNL     1       0.307  12.653  19.312  0.00  0.00    +0.000 OA
ENDBRANCH  23  31
ENDBRANCH   1  29
TORSDOF 4
ENDMDL
MODEL 8
REMARK VINA RESULT:      -7.7      3.418      8.605
REMARK  Name = 
REMARK  6 active torsions:
REMARK  status: ('A' for Active; 'I' for Inactive)
REMARK    1  A    between atoms: C_1  and  O_2
REMARK    2  A    between atoms: O_2  and  C_3
REMARK    3  A    between atoms: C_9  and  C_10
REMARK    4  A    between atoms: C_16  and  C_17
REMARK    5  A    between atoms: N_24  and  S_25
REMARK    6  A    between atoms: S_25  and  C_26
REMARK                            x       y       z     vdW  Elec       q    Type
REMARK                         _______ _______ _______ _____ _____    ______ ____
ROOT
ATOM      1  C   UNL     1       0.282  10.799  20.939  0.00  0.00    +0.000 A 
ATOM      2  C   UNL     1      -0.409  10.864  22.167  0.00  0.00    +0.000 A 
ATOM      3  C   UNL     1      -0.522   9.735  22.971  0.00  0.00    +0.000 A 
ATOM      4  N   UNL     1       0.013   8.531  22.709  0.00  0.00    +0.000 NA
ATOM      5  C   UNL     1       0.698   8.502  21.548  0.00  0.00    +0.000 A 
ATOM      6  N   UNL     1       1.337   7.394  21.077  0.00  0.00    +0.000 N 
ATOM      7  C   UNL     1       1.927   7.635  19.848  0.00  0.00    +0.000 A 
ATOM      8  C   UNL     1       1.615   8.947  19.551  0.00  0.00    +0.000 A 
ATOM      9  C   UNL     1       0.860   9.532  20.630  0.00  0.00    +0.000 A 
ATOM     10  H   UNL     1       1.341   6.524  21.586  0.00  0.00    +0.000 HD
ENDROOT
BRANCH   7  11
ATOM     11  C   UNL     1       2.624   6.552  19.199  0.00  0.00    +0.000 C 
ATOM     12  C   UNL     1       1.926   5.565  18.525  0.00  0.00    +0.000 C 
ATOM     13  C   UNL     1       2.540   4.156  18.052  0.00  0.00    +0.000 C 
ATOM     14  C   UNL     1       3.629   3.824  16.873  0.00  0.00    +0.000 C 
ATOM     15  C   UNL     1       4.956   4.549  17.240  0.00  0.00    +0.000 C 
ATOM     16  C   UNL     1       4.563   5.053  18.629  0.00  0.00    +0.000 C 
ATOM     17  C   UNL     1       4.194   6.411  19.274  0.00  0.00    +0.000 C 
ATOM     18  N   UNL     1       3.478   4.013  19.154  0.00  0.00    +0.000 NA
BRANCH  18  19
ATOM     19  S   UNL     1       3.756   2.433  19.688  0.00  0.00    +0.000 S 
ATOM     20  C   UNL     1       2.720   2.357  21.193  0.00  0.00    +0.000 C 
ATOM     21  O   UNL     1       3.168   1.482  18.764  0.00  0.00    +0.000 OA
ATOM     22  O   UNL     1       5.118   2.305  20.104  0.00  0.00    +0.000 OA
ENDBRANCH  18  19
ENDBRANCH   7  11
BRANCH   1  29
ATOM     23  C   UNL     1      -0.513  12.337  19.042  0.00  0.00    +0.000 A 
ATOM     24  C   UNL     1      -0.295  13.463  18.224  0.00  0.00    +0.000 A 
ATOM     25  C   UNL     1       0.870  14.216  18.348  0.00  0.00    +0.000 A 
ATOM     26  C   UNL     1       1.796  13.869  19.311  0.00  0.00    +0.000 A 
ATOM     27  F   UNL     1       2.925  14.582  19.431  0.00  0.00    +0.000 F 
ATOM     28  C   UNL     1       1.575  12.794  20.163  0.00  0.00    +0.000 A 
ATOM     29  C   UNL     1       0.435  11.974  20.041  0.00  0.00    +0.000 A 
BRANCH  23  31
ATOM     30  C   UNL     1      -1.681  10.593  17.895  0.00  0.00    +0.000 C 
ATOM     31  O   UNL     1      -1.645  11.565  18.934  0.00  0.00    +0.000 OA
ENDBRANCH  23  31
ENDBRANCH   1  29
TORSDOF 4
ENDMDL
MODEL 9
REMARK VINA RESULT:      -7.7      1.580      2.020
REMARK  Name = 
REMARK  6 active torsions:
REMARK  status: ('A' for Active; 'I' for Inactive)
REMARK    1  A    between atoms: C_1  and  O_2
REMARK    2  A    between atoms: O_2  and  C_3
REMARK    3  A    between atoms: C_9  and  C_10
REMARK    4  A    between atoms: C_16  and  C_17
REMARK    5  A    between atoms: N_24  and  S_25
REMARK    6  A    between atoms: S_25  and  C_26
REMARK                            x       y       z     vdW  Elec       q    Type
REMARK                         _______ _______ _______ _____ _____    ______ ____
ROOT
ATOM      1  C   UNL     1       3.938   5.173  18.559  0.00  0.00    +0.000 A 
ATOM      2  C   UNL     1       3.757   4.071  19.420  0.00  0.00    +0.000 A 
ATOM      3  C   UNL     1       2.835   4.134  20.459  0.00  0.00    +0.000 A 
ATOM      4  N   UNL     1       2.028   5.175  20.727  0.00  0.00    +0.000 NA
ATOM      5  C   UNL     1       2.194   6.202  19.870  0.00  0.00    +0.000 A 
ATOM      6  N   UNL     1       1.481   7.361  19.935  0.00  0.00    +0.000 N 
ATOM      7  C   UNL     1       1.880   8.257  18.958  0.00  0.00    +0.000 A 
ATOM      8  C   UNL     1       2.899   7.617  18.279  0.00  0.00    +0.000 A 
ATOM      9  C   UNL     1       3.098   6.296  18.819  0.00  0.00    +0.000 A 
ATOM     10  H   UNL     1       0.769   7.511  20.633  0.00  0.00    +0.000 HD
ENDROOT
BRANCH   7  11
ATOM     11  C   UNL     1       1.237   9.547  18.908  0.00  0.00    +0.000 C 
ATOM     12  C   UNL     1       1.957  10.706  19.145  0.00  0.00    +0.000 C 
ATOM     13  C   UNL     1       1.313  12.149  19.441  0.00  0.00    +0.000 C 
ATOM     14  C   UNL     1       0.506  13.168  18.444  0.00  0.00    +0.000 C 
ATOM     15  C   UNL     1      -0.777  12.434  17.958  0.00  0.00    +0.000 C 
ATOM     16  C   UNL     1      -0.671  11.186  18.837  0.00  0.00    +0.000 C 
ATOM     17  C   UNL     1      -0.311   9.694  18.639  0.00  0.00    +0.000 C 
ATOM     18  N   UNL     1       0.131  11.659  20.130  0.00  0.00    +0.000 NA
BRANCH  18  19
ATOM     19  S   UNL     1      -0.448  12.628  21.388  0.00  0.00    +0.000 S 
ATOM     20  C   UNL     1      -0.819  11.386  22.679  0.00  0.00    +0.000 C 
ATOM     21  O   UNL     1       0.625  13.439  21.929  0.00  0.00    +0.000 OA
ATOM     22  O   UNL     1      -1.691  13.219  21.000  0.00  0.00    +0.000 OA
ENDBRANCH  18  19
ENDBRANCH   7  11
BRANCH   1  29
ATOM     23  C   UNL     1       6.238   5.662  17.525  0.00  0.00    +0.000 A 
ATOM     24  C   UNL     1       7.098   5.621  16.411  0.00  0.00    +0.000 A 
ATOM     25  C   UNL     1       6.652   5.128  15.187  0.00  0.00    +0.000 A 
ATOM     26  C   UNL     1       5.363   4.643  15.086  0.00  0.00    +0.000 A 
ATOM     27  F   UNL     1       4.921   4.177  13.910  0.00  0.00    +0.000 F 
ATOM     28  C   UNL     1       4.516   4.627  16.188  0.00  0.00    +0.000 A 
ATOM     29  C   UNL     1       4.908   5.161  17.433  0.00  0.00    +0.000 A 
BRANCH  23  31
ATOM     30  C   UNL     1       7.935   5.773  19.207  0.00  0.00    +0.000 C 
ATOM     31  O   UNL     1       6.645   6.155  18.743  0.00  0.00    +0.000 OA
ENDBRANCH  23  31
ENDBRANCH   1  29
TORSDOF 4
ENDMDL
