MODEL 1
REMARK VINA RESULT:      -5.8      0.000      0.000
REMARK  Name = 
REMARK  18 active torsions:
REMARK  status: ('A' for Active; 'I' for Inactive)
REMARK    1  A    between atoms: C_1  and  C_2
REMARK    2  A    between atoms: C_2  and  C_3
REMARK    3  A    between atoms: C_2  and  C_4
REMARK    4  A    between atoms: C_4  and  N_5
REMARK    5  A    between atoms: C_4  and  C_6
REMARK    6  A    between atoms: N_8  and  C_9
REMARK    7  A    between atoms: C_9  and  C_10
REMARK    8  A    between atoms: C_10  and  C_11
REMARK    9  A    between atoms: C_11  and  N_12
REMARK   10  A    between atoms: N_12  and  C_13
REMARK   11  A    between atoms: C_13  and  C_14
REMARK   12  A    between atoms: C_14  and  C_15
REMARK   13  A    between atoms: C_15  and  C_16
REMARK   14  A    between atoms: C_16  and  N_17
REMARK   15  A    between atoms: N_17  and  C_18
REMARK   16  A    between atoms: C_18  and  C_19
REMARK   17  A    between atoms: C_19  and  C_20
REMARK   18  A    between atoms: C_20  and  N_21
REMARK                            x       y       z     vdW  Elec       q    Type
REMARK                         _______ _______ _______ _____ _____    ______ ____
ROOT
ATOM      1  C   UNL     1       6.667   6.196  17.392  0.00  0.00    +0.000 C 
ENDROOT
BRANCH   1   2
ATOM      2  N   UNL     1       6.739   6.077  15.936  0.00  0.00    +0.000 NA
ATOM      3  H   UNL     1       7.337   5.287  15.690  0.00  0.00    +0.000 HD
BRANCH   2   4
ATOM      4  C   UNL     1       5.406   5.870  15.372  0.00  0.00    +0.000 C 
BRANCH   4   5
ATOM      5  C   UNL     1       5.304   4.462  14.792  0.00  0.00    +0.000 C 
BRANCH   5   6
ATOM      6  C   UNL     1       6.616   4.056  14.119  0.00  0.00    +0.000 C 
BRANCH   6   7
ATOM      7  C   UNL     1       6.489   4.134  12.600  0.00  0.00    +0.000 C 
BRANCH   7   8
ATOM      8  N   UNL     1       6.427   2.785  12.039  0.00  0.00    +0.000 NA
ATOM      9  H   UNL     1       6.788   2.113  12.718  0.00  0.00    +0.000 HD
BRANCH   8  10
ATOM     10  C   UNL     1       5.053   2.437  11.687  0.00  0.00    +0.000 C 
BRANCH  10  11
ATOM     11  C   UNL     1       4.332   3.651  11.101  0.00  0.00    +0.000 C 
BRANCH  11  12
ATOM     12  C   UNL     1       3.187   3.204  10.194  0.00  0.00    +0.000 C 
BRANCH  12  13
ATOM     13  N   UNL     1       2.870   4.241   9.219  0.00  0.00    +0.000 NA
ATOM     14  H   UNL     1       3.683   4.842   9.084  0.00  0.00    +0.000 HD
ATOM     15  H   UNL     1       2.131   4.838   9.588  0.00  0.00    +0.000 HD
ENDBRANCH  12  13
ENDBRANCH  11  12
ENDBRANCH  10  11
ENDBRANCH   8  10
ENDBRANCH   7   8
ENDBRANCH   6   7
ENDBRANCH   5   6
ENDBRANCH   4   5
ENDBRANCH   2   4
ENDBRANCH   1   2
BRANCH   1  16
ATOM     16  C   UNL     1       6.895   4.831  18.036  0.00  0.00    +0.000 C 
BRANCH  16  17
ATOM     17  C   UNL     1       5.898   4.603  19.166  0.00  0.00    +0.000 C 
BRANCH  17  20
ATOM     18  C   UNL     1       3.943   3.372  18.312  0.00  0.00    +0.000 C 
ATOM     19  O   UNL     1       3.450   4.384  17.814  0.00  0.00    +0.000 OA
ATOM     20  N   UNL     1       5.148   3.379  18.979  0.00  0.00    +0.000 N 
ATOM     21  H   UNL     1       5.559   2.505  19.283  0.00  0.00    +0.000 HD
BRANCH  18  22
ATOM     22  C   UNL     1       3.221   2.003  18.272  0.00  0.00    +0.000 C 
BRANCH  22  23
ATOM     23  N   UNL     1       4.223   0.937  18.484  0.00  0.00    +0.000 NA
ATOM     24  H   UNL     1       4.817   1.236  19.263  0.00  0.00    +0.000 HD
ATOM     25  H   UNL     1       4.866   0.953  17.689  0.00  0.00    +0.000 HD
ENDBRANCH  22  23
BRANCH  22  27
ATOM     26  C   UNL     1       0.714   2.428  18.694  0.00  0.00    +0.000 C 
ATOM     27  C   UNL     1       2.044   1.930  19.273  0.00  0.00    +0.000 C 
ATOM     28  C   UNL     1       2.359   2.710  20.556  0.00  0.00    +0.000 C 
ENDBRANCH  22  27
ENDBRANCH  18  22
ENDBRANCH  17  20
ENDBRANCH  16  17
ENDBRANCH   1  16
TORSDOF 16
ENDMDL
MODEL 2
REMARK VINA RESULT:      -5.7      2.380      6.995
REMARK  Name = 
REMARK  18 active torsions:
REMARK  status: ('A' for Active; 'I' for Inactive)
REMARK    1  A    between atoms: C_1  and  C_2
REMARK    2  A    between atoms: C_2  and  C_3
REMARK    3  A    between atoms: C_2  and  C_4
REMARK    4  A    between atoms: C_4  and  N_5
REMARK    5  A    between atoms: C_4  and  C_6
REMARK    6  A    between atoms: N_8  and  C_9
REMARK    7  A    between atoms: C_9  and  C_10
REMARK    8  A    between atoms: C_10  and  C_11
REMARK    9  A    between atoms: C_11  and  N_12
REMARK   10  A    between atoms: N_12  and  C_13
REMARK   11  A    between atoms: C_13  and  C_14
REMARK   12  A    between atoms: C_14  and  C_15
REMARK   13  A    between atoms: C_15  and  C_16
REMARK   14  A    between atoms: C_16  and  N_17
REMARK   15  A    between atoms: N_17  and  C_18
REMARK   16  A    between atoms: C_18  and  C_19
REMARK   17  A    between atoms: C_19  and  C_20
REMARK   18  A    between atoms: C_20  and  N_21
REMARK                            x       y       z     vdW  Elec       q    Type
REMARK                         _______ _______ _______ _____ _____    ______ ____
ROOT
ATOM      1  C   UNL     1       6.756   5.633  19.541  0.00  0.00    +0.000 C 
ENDROOT
BRANCH   1   2
ATOM      2  N   UNL     1       5.481   5.099  19.065  0.00  0.00    +0.000 NA
ATOM      3  H   UNL     1       4.939   4.755  19.860  0.00  0.00    +0.000 HD
BRANCH   2   4
ATOM      4  C   UNL     1       4.718   6.134  18.369  0.00  0.00    +0.000 C 
BRANCH   4   5
ATOM      5  C   UNL     1       3.233   5.782  18.391  0.00  0.00    +0.000 C 
BRANCH   5   6
ATOM      6  C   UNL     1       2.480   6.670  19.383  0.00  0.00    +0.000 C 
BRANCH   6   7
ATOM      7  C   UNL     1       1.795   5.822  20.452  0.00  0.00    +0.000 C 
BRANCH   7   8
ATOM      8  N   UNL     1       2.748   4.866  21.011  0.00  0.00    +0.000 NA
ATOM      9  H   UNL     1       3.249   5.295  21.790  0.00  0.00    +0.000 HD
BRANCH   8  10
ATOM     10  C   UNL     1       2.061   3.664  21.474  0.00  0.00    +0.000 C 
BRANCH  10  11
ATOM     11  C   UNL     1       0.995   3.241  20.462  0.00  0.00    +0.000 C 
BRANCH  11  12
ATOM     12  C   UNL     1       1.583   2.265  19.445  0.00  0.00    +0.000 C 
BRANCH  12  13
ATOM     13  N   UNL     1       1.204   2.647  18.090  0.00  0.00    +0.000 NA
ATOM     14  H   UNL     1       0.424   3.304  18.126  0.00  0.00    +0.000 HD
ATOM     15  H   UNL     1       0.863   1.827  17.590  0.00  0.00    +0.000 HD
ENDBRANCH  12  13
ENDBRANCH  11  12
ENDBRANCH  10  11
ENDBRANCH   8  10
ENDBRANCH   7   8
ENDBRANCH   6   7
ENDBRANCH   5   6
ENDBRANCH   4   5
ENDBRANCH   2   4
ENDBRANCH   1   2
BRANCH   1  16
ATOM     16  C   UNL     1       7.729   5.770  18.374  0.00  0.00    +0.000 C 
BRANCH  16  17
ATOM     17  C   UNL     1       7.699   4.517  17.506  0.00  0.00    +0.000 C 
BRANCH  17  20
ATOM     18  C   UNL     1       6.490   4.378  15.365  0.00  0.00    +0.000 C 
ATOM     19  O   UNL     1       5.589   3.695  15.852  0.00  0.00    +0.000 OA
ATOM     20  N   UNL     1       7.557   4.842  16.102  0.00  0.00    +0.000 N 
ATOM     21  H   UNL     1       8.219   5.481  15.682  0.00  0.00    +0.000 HD
BRANCH  18  22
ATOM     22  C   UNL     1       6.527   4.736  13.859  0.00  0.00    +0.000 C 
BRANCH  22  23
ATOM     23  N   UNL     1       7.833   5.359  13.556  0.00  0.00    +0.000 NA
ATOM     24  H   UNL     1       7.712   6.371  13.660  0.00  0.00    +0.000 HD
ATOM     25  H   UNL     1       8.002   5.253  12.553  0.00  0.00    +0.000 HD
ENDBRANCH  22  23
BRANCH  22  27
ATOM     26  C   UNL     1       7.192   3.358  11.785  0.00  0.00    +0.000 C 
ATOM     27  C   UNL     1       6.218   3.518  12.958  0.00  0.00    +0.000 C 
ATOM     28  C   UNL     1       4.783   3.578  12.418  0.00  0.00    +0.000 C 
ENDBRANCH  22  27
ENDBRANCH  18  22
ENDBRANCH  17  20
ENDBRANCH  16  17
ENDBRANCH   1  16
TORSDOF 16
ENDMDL
MODEL 3
REMARK VINA RESULT:      -5.6      3.944      7.241
REMARK  Name = 
REMARK  18 active torsions:
REMARK  status: ('A' for Active; 'I' for Inactive)
REMARK    1  A    between atoms: C_1  and  C_2
REMARK    2  A    between atoms: C_2  and  C_3
REMARK    3  A    between atoms: C_2  and  C_4
REMARK    4  A    between atoms: C_4  and  N_5
REMARK    5  A    between atoms: C_4  and  C_6
REMARK    6  A    between atoms: N_8  and  C_9
REMARK    7  A    between atoms: C_9  and  C_10
REMARK    8  A    between atoms: C_10  and  C_11
REMARK    9  A    between atoms: C_11  and  N_12
REMARK   10  A    between atoms: N_12  and  C_13
REMARK   11  A    between atoms: C_13  and  C_14
REMARK   12  A    between atoms: C_14  and  C_15
REMARK   13  A    between atoms: C_15  and  C_16
REMARK   14  A    between atoms: C_16  and  N_17
REMARK   15  A    between atoms: N_17  and  C_18
REMARK   16  A    between atoms: C_18  and  C_19
REMARK   17  A    between atoms: C_19  and  C_20
REMARK   18  A    between atoms: C_20  and  N_21
REMARK                            x       y       z     vdW  Elec       q    Type
REMARK                         _______ _______ _______ _____ _____    ______ ____
ROOT
ATOM      1  C   UNL     1       6.266   5.122  16.222  0.00  0.00    +0.000 C 
ENDROOT
BRANCH   1   2
ATOM      2  N   UNL     1       5.853   6.521  16.112  0.00  0.00    +0.000 NA
ATOM      3  H   UNL     1       4.858   6.563  15.886  0.00  0.00    +0.000 HD
BRANCH   2   4
ATOM      4  C   UNL     1       6.095   7.227  17.370  0.00  0.00    +0.000 C 
BRANCH   4   5
ATOM      5  C   UNL     1       7.596   7.402  17.582  0.00  0.00    +0.000 C 
BRANCH   5   6
ATOM      6  C   UNL     1       7.975   8.884  17.586  0.00  0.00    +0.000 C 
BRANCH   6   7
ATOM      7  C   UNL     1       8.829   9.218  18.806  0.00  0.00    +0.000 C 
BRANCH   7   8
ATOM      8  N   UNL     1       9.127  10.650  18.824  0.00  0.00    +0.000 NA
ATOM      9  H   UNL     1       8.261  11.182  18.725  0.00  0.00    +0.000 HD
BRANCH   8  10
ATOM     10  C   UNL     1       9.792  11.022  20.070  0.00  0.00    +0.000 C 
BRANCH  10  11
ATOM     11  C   UNL     1      10.881  12.060  19.799  0.00  0.00    +0.000 C 
BRANCH  11  12
ATOM     12  C   UNL     1      12.022  11.439  18.995  0.00  0.00    +0.000 C 
BRANCH  12  13
ATOM     13  N   UNL     1      11.862  11.723  17.573  0.00  0.00    +0.000 NA
ATOM     14  H   UNL     1      11.057  11.211  17.212  0.00  0.00    +0.000 HD
ATOM     15  H   UNL     1      12.673  11.374  17.065  0.00  0.00    +0.000 HD
ENDBRANCH  12  13
ENDBRANCH  11  12
ENDBRANCH  10  11
ENDBRANCH   8  10
ENDBRANCH   7   8
ENDBRANCH   6   7
ENDBRANCH   5   6
ENDBRANCH   4   5
ENDBRANCH   2   4
ENDBRANCH   1   2
BRANCH   1  16
ATOM     16  C   UNL     1       5.039   4.230  16.387  0.00  0.00    +0.000 C 
BRANCH  16  17
ATOM     17  C   UNL     1       4.855   3.843  17.850  0.00  0.00    +0.000 C 
BRANCH  17  20
ATOM     18  C   UNL     1       2.712   2.862  18.563  0.00  0.00    +0.000 C 
ATOM     19  O   UNL     1       3.156   1.715  18.520  0.00  0.00    +0.000 OA
ATOM     20  N   UNL     1       3.475   3.970  18.267  0.00  0.00    +0.000 N 
ATOM     21  H   UNL     1       3.093   4.896  18.413  0.00  0.00    +0.000 HD
BRANCH  18  22
ATOM     22  C   UNL     1       1.231   3.156  18.906  0.00  0.00    +0.000 C 
BRANCH  22  23
ATOM     23  N   UNL     1       0.423   1.966  18.563  0.00  0.00    +0.000 NA
ATOM     24  H   UNL     1      -0.273   1.854  19.305  0.00  0.00    +0.000 HD
ATOM     25  H   UNL     1       1.018   1.143  18.682  0.00  0.00    +0.000 HD
ENDBRANCH  22  23
BRANCH  22  27
ATOM     26  C   UNL     1       1.512   5.043  20.639  0.00  0.00    +0.000 C 
ATOM     27  C   UNL     1       1.046   3.606  20.374  0.00  0.00    +0.000 C 
ATOM     28  C   UNL     1       1.766   2.656  21.340  0.00  0.00    +0.000 C 
ENDBRANCH  22  27
ENDBRANCH  18  22
ENDBRANCH  17  20
ENDBRANCH  16  17
ENDBRANCH   1  16
TORSDOF 16
ENDMDL
MODEL 4
REMARK VINA RESULT:      -5.5      3.857      7.045
REMARK  Name = 
REMARK  18 active torsions:
REMARK  status: ('A' for Active; 'I' for Inactive)
REMARK    1  A    between atoms: C_1  and  C_2
REMARK    2  A    between atoms: C_2  and  C_3
REMARK    3  A    between atoms: C_2  and  C_4
REMARK    4  A    between atoms: C_4  and  N_5
REMARK    5  A    between atoms: C_4  and  C_6
REMARK    6  A    between atoms: N_8  and  C_9
REMARK    7  A    between atoms: C_9  and  C_10
REMARK    8  A    between atoms: C_10  and  C_11
REMARK    9  A    between atoms: C_11  and  N_12
REMARK   10  A    between atoms: N_12  and  C_13
REMARK   11  A    between atoms: C_13  and  C_14
REMARK   12  A    between atoms: C_14  and  C_15
REMARK   13  A    between atoms: C_15  and  C_16
REMARK   14  A    between atoms: C_16  and  N_17
REMARK   15  A    between atoms: N_17  and  C_18
REMARK   16  A    between atoms: C_18  and  C_19
REMARK   17  A    between atoms: C_19  and  C_20
REMARK   18  A    between atoms: C_20  and  N_21
REMARK                            x       y       z     vdW  Elec       q    Type
REMARK                         _______ _______ _______ _____ _____    ______ ____
ROOT
ATOM      1  C   UNL     1       7.089   4.700  15.536  0.00  0.00    +0.000 C 
ENDROOT
BRANCH   1   2
ATOM      2  N   UNL     1       6.610   5.987  16.037  0.00  0.00    +0.000 NA
ATOM      3  H   UNL     1       5.598   5.944  16.171  0.00  0.00    +0.000 HD
BRANCH   2   4
ATOM      4  C   UNL     1       7.255   6.316  17.307  0.00  0.00    +0.000 C 
BRANCH   4   5
ATOM      5  C   UNL     1       7.313   7.831  17.479  0.00  0.00    +0.000 C 
BRANCH   5   6
ATOM      6  C   UNL     1       8.387   8.222  18.496  0.00  0.00    +0.000 C 
BRANCH   6   7
ATOM      7  C   UNL     1       8.723   9.706  18.381  0.00  0.00    +0.000 C 
BRANCH   7   8
ATOM      8  N   UNL     1       9.308  10.179  19.635  0.00  0.00    +0.000 NA
ATOM      9  H   UNL     1       9.613   9.381  20.195  0.00  0.00    +0.000 HD
BRANCH   8  10
ATOM     10  C   UNL     1      10.445  11.057  19.374  0.00  0.00    +0.000 C 
BRANCH  10  11
ATOM     11  C   UNL     1      10.321  11.684  17.984  0.00  0.00    +0.000 C 
BRANCH  11  12
ATOM     12  C   UNL     1      10.628  13.179  18.045  0.00  0.00    +0.000 C 
BRANCH  12  13
ATOM     13  N   UNL     1       9.824  13.908  17.072  0.00  0.00    +0.000 NA
ATOM     14  H   UNL     1      10.363  14.691  16.701  0.00  0.00    +0.000 HD
ATOM     15  H   UNL     1       9.014  14.314  17.539  0.00  0.00    +0.000 HD
ENDBRANCH  12  13
ENDBRANCH  11  12
ENDBRANCH  10  11
ENDBRANCH   8  10
ENDBRANCH   7   8
ENDBRANCH   6   7
ENDBRANCH   5   6
ENDBRANCH   4   5
ENDBRANCH   2   4
ENDBRANCH   1   2
BRANCH   1  16
ATOM     16  C   UNL     1       5.903   3.804  15.189  0.00  0.00    +0.000 C 
BRANCH  16  17
ATOM     17  C   UNL     1       4.669   4.227  15.978  0.00  0.00    +0.000 C 
BRANCH  17  20
ATOM     18  C   UNL     1       3.414   3.104  17.776  0.00  0.00    +0.000 C 
ATOM     19  O   UNL     1       2.349   3.189  17.165  0.00  0.00    +0.000 OA
ATOM     20  N   UNL     1       4.606   3.570  17.267  0.00  0.00    +0.000 N 
ATOM     21  H   UNL     1       5.470   3.388  17.763  0.00  0.00    +0.000 HD
BRANCH  18  22
ATOM     22  C   UNL     1       3.497   2.507  19.202  0.00  0.00    +0.000 C 
BRANCH  22  23
ATOM     23  N   UNL     1       4.916   2.233  19.515  0.00  0.00    +0.000 NA
ATOM     24  H   UNL     1       5.230   2.973  20.149  0.00  0.00    +0.000 HD
ATOM     25  H   UNL     1       5.461   2.413  18.669  0.00  0.00    +0.000 HD
ENDBRANCH  22  23
BRANCH  22  27
ATOM     26  C   UNL     1       1.283   3.276  20.274  0.00  0.00    +0.000 C 
ATOM     27  C   UNL     1       2.811   3.406  20.257  0.00  0.00    +0.000 C 
ATOM     28  C   UNL     1       3.190   4.880  20.060  0.00  0.00    +0.000 C 
ENDBRANCH  22  27
ENDBRANCH  18  22
ENDBRANCH  17  20
ENDBRANCH  16  17
ENDBRANCH   1  16
TORSDOF 16
ENDMDL
MODEL 5
REMARK VINA RESULT:      -5.5      5.821      8.480
REMARK  Name = 
REMARK  18 active torsions:
REMARK  status: ('A' for Active; 'I' for Inactive)
REMARK    1  A    between atoms: C_1  and  C_2
REMARK    2  A    between atoms: C_2  and  C_3
REMARK    3  A    between atoms: C_2  and  C_4
REMARK    4  A    between atoms: C_4  and  N_5
REMARK    5  A    between atoms: C_4  and  C_6
REMARK    6  A    between atoms: N_8  and  C_9
REMARK    7  A    between atoms: C_9  and  C_10
REMARK    8  A    between atoms: C_10  and  C_11
REMARK    9  A    between atoms: C_11  and  N_12
REMARK   10  A    between atoms: N_12  and  C_13
REMARK   11  A    between atoms: C_13  and  C_14
REMARK   12  A    between atoms: C_14  and  C_15
REMARK   13  A    between atoms: C_15  and  C_16
REMARK   14  A    between atoms: C_16  and  N_17
REMARK   15  A    between atoms: N_17  and  C_18
REMARK   16  A    between atoms: C_18  and  C_19
REMARK   17  A    between atoms: C_19  and  C_20
REMARK   18  A    between atoms: C_20  and  N_21
REMARK                            x       y       z     vdW  Elec       q    Type
REMARK                         _______ _______ _______ _____ _____    ______ ____
ROOT
ATOM      1  C   UNL     1       3.232   7.158  18.149  0.00  0.00    +0.000 C 
ENDROOT
BRANCH   1   2
ATOM      2  N   UNL     1       3.044   5.762  18.539  0.00  0.00    +0.000 NA
ATOM      3  H   UNL     1       2.045   5.566  18.628  0.00  0.00    +0.000 HD
BRANCH   2   4
ATOM      4  C   UNL     1       3.626   4.867  17.540  0.00  0.00    +0.000 C 
BRANCH   4   5
ATOM      5  C   UNL     1       2.695   3.680  17.306  0.00  0.00    +0.000 C 
BRANCH   5   6
ATOM      6  C   UNL     1       1.300   3.966  17.864  0.00  0.00    +0.000 C 
BRANCH   6   7
ATOM      7  C   UNL     1       0.846   2.835  18.784  0.00  0.00    +0.000 C 
BRANCH   7   8
ATOM      8  N   UNL     1       0.698   3.338  20.150  0.00  0.00    +0.000 NA
ATOM      9  H   UNL     1      -0.281   3.276  20.434  0.00  0.00    +0.000 HD
BRANCH   8  10
ATOM     10  C   UNL     1       1.527   2.570  21.074  0.00  0.00    +0.000 C 
BRANCH  10  11
ATOM     11  C   UNL     1       2.955   3.118  21.084  0.00  0.00    +0.000 C 
BRANCH  11  12
ATOM     12  C   UNL     1       3.936   2.058  20.586  0.00  0.00    +0.000 C 
BRANCH  12  13
ATOM     13  N   UNL     1       5.029   2.678  19.847  0.00  0.00    +0.000 NA
ATOM     14  H   UNL     1       5.599   3.236  20.483  0.00  0.00    +0.000 HD
ATOM     15  H   UNL     1       4.648   3.328  19.161  0.00  0.00    +0.000 HD
ENDBRANCH  12  13
ENDBRANCH  11  12
ENDBRANCH  10  11
ENDBRANCH   8  10
ENDBRANCH   7   8
ENDBRANCH   6   7
ENDBRANCH   5   6
ENDBRANCH   4   5
ENDBRANCH   2   4
ENDBRANCH   1   2
BRANCH   1  16
ATOM     16  C   UNL     1       1.897   7.763  17.724  0.00  0.00    +0.000 C 
BRANCH  16  17
ATOM     17  C   UNL     1       1.815   9.225  18.150  0.00  0.00    +0.000 C 
BRANCH  17  20
ATOM     18  C   UNL     1      -0.051  10.776  18.570  0.00  0.00    +0.000 C 
ATOM     19  O   UNL     1       0.459  11.201  19.607  0.00  0.00    +0.000 OA
ATOM     20  N   UNL     1       0.548   9.820  17.780  0.00  0.00    +0.000 N 
ATOM     21  H   UNL     1       0.138   9.576  16.887  0.00  0.00    +0.000 HD
BRANCH  18  22
ATOM     22  C   UNL     1      -1.443  11.250  18.087  0.00  0.00    +0.000 C 
BRANCH  22  23
ATOM     23  N   UNL     1      -1.307  12.606  17.515  0.00  0.00    +0.000 NA
ATOM     24  H   UNL     1      -1.901  13.226  18.072  0.00  0.00    +0.000 HD
ATOM     25  H   UNL     1      -1.771  12.606  16.603  0.00  0.00    +0.000 HD
ENDBRANCH  22  23
BRANCH  22  27
ATOM     26  C   UNL     1      -2.605  10.892  15.814  0.00  0.00    +0.000 C 
ATOM     27  C   UNL     1      -2.098  10.247  17.109  0.00  0.00    +0.000 C 
ATOM     28  C   UNL     1      -3.252   9.491  17.781  0.00  0.00    +0.000 C 
ENDBRANCH  22  27
ENDBRANCH  18  22
ENDBRANCH  17  20
ENDBRANCH  16  17
ENDBRANCH   1  16
TORSDOF 16
ENDMDL
MODEL 6
REMARK VINA RESULT:      -5.4      4.771      7.784
REMARK  Name = 
REMARK  18 active torsions:
REMARK  status: ('A' for Active; 'I' for Inactive)
REMARK    1  A    between atoms: C_1  and  C_2
REMARK    2  A    between atoms: C_2  and  C_3
REMARK    3  A    between atoms: C_2  and  C_4
REMARK    4  A    between atoms: C_4  and  N_5
REMARK    5  A    between atoms: C_4  and  C_6
REMARK    6  A    between atoms: N_8  and  C_9
REMARK    7  A    between atoms: C_9  and  C_10
REMARK    8  A    between atoms: C_10  and  C_11
REMARK    9  A    between atoms: C_11  and  N_12
REMARK   10  A    between atoms: N_12  and  C_13
REMARK   11  A    between atoms: C_13  and  C_14
REMARK   12  A    between atoms: C_14  and  C_15
REMARK   13  A    between atoms: C_15  and  C_16
REMARK   14  A    between atoms: C_16  and  N_17
REMARK   15  A    between atoms: N_17  and  C_18
REMARK   16  A    between atoms: C_18  and  C_19
REMARK   17  A    between atoms: C_19  and  C_20
REMARK   18  A    between atoms: C_20  and  N_21
REMARK                            x       y       z     vdW  Elec       q    Type
REMARK                         _______ _______ _______ _____ _____    ______ ____
ROOT
ATOM      1  C   UNL     1       2.079   4.714  19.724  0.00  0.00    +0.000 C 
ENDROOT
BRANCH   1   2
ATOM      2  N   UNL     1       3.110   5.742  19.864  0.00  0.00    +0.000 NA
ATOM      3  H   UNL     1       3.867   5.555  19.206  0.00  0.00    +0.000 HD
BRANCH   2   4
ATOM      4  C   UNL     1       2.552   7.067  19.599  0.00  0.00    +0.000 C 
BRANCH   4   5
ATOM      5  C   UNL     1       2.164   7.177  18.127  0.00  0.00    +0.000 C 
BRANCH   5   6
ATOM      6  C   UNL     1       2.763   8.438  17.501  0.00  0.00    +0.000 C 
BRANCH   6   7
ATOM      7  C   UNL     1       2.092   9.689  18.062  0.00  0.00    +0.000 C 
BRANCH   7   8
ATOM      8  N   UNL     1       0.651   9.627  17.822  0.00  0.00    +0.000 NA
ATOM      9  H   UNL     1       0.349   8.652  17.792  0.00  0.00    +0.000 HD
BRANCH   8  10
ATOM     10  C   UNL     1      -0.077  10.332  18.874  0.00  0.00    +0.000 C 
BRANCH  10  11
ATOM     11  C   UNL     1       0.779  10.427  20.138  0.00  0.00    +0.000 C 
BRANCH  11  12
ATOM     12  C   UNL     1       0.104  11.325  21.172  0.00  0.00    +0.000 C 
BRANCH  12  13
ATOM     13  N   UNL     1      -0.630  10.525  22.145  0.00  0.00    +0.000 NA
ATOM     14  H   UNL     1      -1.603  10.438  21.851  0.00  0.00    +0.000 HD
ATOM     15  H   UNL     1      -0.645  11.011  23.041  0.00  0.00    +0.000 HD
ENDBRANCH  12  13
ENDBRANCH  11  12
ENDBRANCH  10  11
ENDBRANCH   8  10
ENDBRANCH   7   8
ENDBRANCH   6   7
ENDBRANCH   5   6
ENDBRANCH   4   5
ENDBRANCH   2   4
ENDBRANCH   1   2
BRANCH   1  16
ATOM     16  C   UNL     1       2.711   3.408  19.250  0.00  0.00    +0.000 C 
BRANCH  16  17
ATOM     17  C   UNL     1       4.196   3.379  19.593  0.00  0.00    +0.000 C 
BRANCH  17  20
ATOM     18  C   UNL     1       6.062   4.638  18.593  0.00  0.00    +0.000 C 
ATOM     19  O   UNL     1       6.383   5.133  19.673  0.00  0.00    +0.000 OA
ATOM     20  N   UNL     1       5.014   3.754  18.459  0.00  0.00    +0.000 N 
ATOM     21  H   UNL     1       4.852   3.298  17.570  0.00  0.00    +0.000 HD
BRANCH  18  22
ATOM     22  C   UNL     1       6.784   5.007  17.274  0.00  0.00    +0.000 C 
BRANCH  22  23
ATOM     23  N   UNL     1       8.001   4.177  17.156  0.00  0.00    +0.000 NA
ATOM     24  H   UNL     1       8.179   4.049  16.155  0.00  0.00    +0.000 HD
ATOM     25  H   UNL     1       7.764   3.232  17.467  0.00  0.00    +0.000 HD
ENDBRANCH  22  23
BRANCH  22  27
ATOM     26  C   UNL     1       6.560   4.370  14.787  0.00  0.00    +0.000 C 
ATOM     27  C   UNL     1       5.854   4.892  16.044  0.00  0.00    +0.000 C 
ATOM     28  C   UNL     1       5.187   6.237  15.726  0.00  0.00    +0.000 C 
ENDBRANCH  22  27
ENDBRANCH  18  22
ENDBRANCH  17  20
ENDBRANCH  16  17
ENDBRANCH   1  16
TORSDOF 16
ENDMDL
MODEL 7
REMARK VINA RESULT:      -5.4      2.423      6.951
REMARK  Name = 
REMARK  18 active torsions:
REMARK  status: ('A' for Active; 'I' for Inactive)
REMARK    1  A    between atoms: C_1  and  C_2
REMARK    2  A    between atoms: C_2  and  C_3
REMARK    3  A    between atoms: C_2  and  C_4
REMARK    4  A    between atoms: C_4  and  N_5
REMARK    5  A    between atoms: C_4  and  C_6
REMARK    6  A    between atoms: N_8  and  C_9
REMARK    7  A    between atoms: C_9  and  C_10
REMARK    8  A    between atoms: C_10  and  C_11
REMARK    9  A    between atoms: C_11  and  N_12
REMARK   10  A    between atoms: N_12  and  C_13
REMARK   11  A    between atoms: C_13  and  C_14
REMARK   12  A    between atoms: C_14  and  C_15
REMARK   13  A    between atoms: C_15  and  C_16
REMARK   14  A    between atoms: C_16  and  N_17
REMARK   15  A    between atoms: N_17  and  C_18
REMARK   16  A    between atoms: C_18  and  C_19
REMARK   17  A    between atoms: C_19  and  C_20
REMARK   18  A    between atoms: C_20  and  N_21
REMARK                            x       y       z     vdW  Elec       q    Type
REMARK                         _______ _______ _______ _____ _____    ______ ____
ROOT
ATOM      1  C   UNL     1       4.686   6.585  17.869  0.00  0.00    +0.000 C 
ENDROOT
BRANCH   1   2
ATOM      2  N   UNL     1       3.492   5.814  17.529  0.00  0.00    +0.000 NA
ATOM      3  H   UNL     1       3.738   4.826  17.445  0.00  0.00    +0.000 HD
BRANCH   2   4
ATOM      4  C   UNL     1       2.467   5.972  18.560  0.00  0.00    +0.000 C 
BRANCH   4   5
ATOM      5  C   UNL     1       3.023   5.529  19.911  0.00  0.00    +0.000 C 
BRANCH   5   6
ATOM      6  C   UNL     1       1.890   5.209  20.886  0.00  0.00    +0.000 C 
BRANCH   6   7
ATOM      7  C   UNL     1       1.674   3.701  20.985  0.00  0.00    +0.000 C 
BRANCH   7   8
ATOM      8  N   UNL     1       0.446   3.330  20.284  0.00  0.00    +0.000 NA
ATOM      9  H   UNL     1      -0.117   4.164  20.111  0.00  0.00    +0.000 HD
BRANCH   8  10
ATOM     10  C   UNL     1       0.755   2.674  19.016  0.00  0.00    +0.000 C 
BRANCH  10  11
ATOM     11  C   UNL     1       2.033   1.846  19.146  0.00  0.00    +0.000 C 
BRANCH  11  12
ATOM     12  C   UNL     1       2.973   2.129  17.975  0.00  0.00    +0.000 C 
BRANCH  12  13
ATOM     13  N   UNL     1       2.274   2.854  16.921  0.00  0.00    +0.000 NA
ATOM     14  H   UNL     1       2.805   3.688  16.670  0.00  0.00    +0.000 HD
ATOM     15  H   UNL     1       1.376   3.183  17.274  0.00  0.00    +0.000 HD
ENDBRANCH  12  13
ENDBRANCH  11  12
ENDBRANCH  10  11
ENDBRANCH   8  10
ENDBRANCH   7   8
ENDBRANCH   6   7
ENDBRANCH   5   6
ENDBRANCH   4   5
ENDBRANCH   2   4
ENDBRANCH   1   2
BRANCH   1  16
ATOM     16  C   UNL     1       5.934   5.735  17.646  0.00  0.00    +0.000 C 
BRANCH  16  17
ATOM     17  C   UNL     1       5.559   4.394  17.026  0.00  0.00    +0.000 C 
BRANCH  17  20
ATOM     18  C   UNL     1       6.733   4.576  14.868  0.00  0.00    +0.000 C 
ATOM     19  O   UNL     1       7.840   4.612  15.407  0.00  0.00    +0.000 OA
ATOM     20  N   UNL     1       5.560   4.454  15.579  0.00  0.00    +0.000 N 
ATOM     21  H   UNL     1       4.685   4.329  15.087  0.00  0.00    +0.000 HD
BRANCH  18  22
ATOM     22  C   UNL     1       6.562   4.718  13.336  0.00  0.00    +0.000 C 
BRANCH  22  23
ATOM     23  N   UNL     1       7.777   5.353  12.784  0.00  0.00    +0.000 NA
ATOM     24  H   UNL     1       8.580   4.883  13.210  0.00  0.00    +0.000 HD
ATOM     25  H   UNL     1       7.836   6.298  13.170  0.00  0.00    +0.000 HD
ENDBRANCH  22  23
BRANCH  22  27
ATOM     26  C   UNL     1       7.263   2.928  11.619  0.00  0.00    +0.000 C 
ATOM     27  C   UNL     1       6.224   3.371  12.656  0.00  0.00    +0.000 C 
ATOM     28  C   UNL     1       4.840   3.415  11.995  0.00  0.00    +0.000 C 
ENDBRANCH  22  27
ENDBRANCH  18  22
ENDBRANCH  17  20
ENDBRANCH  16  17
ENDBRANCH   1  16
TORSDOF 16
ENDMDL
MODEL 8
REMARK VINA RESULT:      -5.4      4.067      7.377
REMARK  Name = 
REMARK  18 active torsions:
REMARK  status: ('A' for Active; 'I' for Inactive)
REMARK    1  A    between atoms: C_1  and  C_2
REMARK    2  A    between atoms: C_2  and  C_3
REMARK    3  A    between atoms: C_2  and  C_4
REMARK    4  A    between atoms: C_4  and  N_5
REMARK    5  A    between atoms: C_4  and  C_6
REMARK    6  A    between atoms: N_8  and  C_9
REMARK    7  A    between atoms: C_9  and  C_10
REMARK    8  A    between atoms: C_10  and  C_11
REMARK    9  A    between atoms: C_11  and  N_12
REMARK   10  A    between atoms: N_12  and  C_13
REMARK   11  A    between atoms: C_13  and  C_14
REMARK   12  A    between atoms: C_14  and  C_15
REMARK   13  A    between atoms: C_15  and  C_16
REMARK   14  A    between atoms: C_16  and  N_17
REMARK   15  A    between atoms: N_17  and  C_18
REMARK   16  A    between atoms: C_18  and  C_19
REMARK   17  A    between atoms: C_19  and  C_20
REMARK   18  A    between atoms: C_20  and  N_21
REMARK                            x       y       z     vdW  Elec       q    Type
REMARK                         _______ _______ _______ _____ _____    ______ ____
ROOT
ATOM      1  C   UNL     1       2.149   2.941  20.509  0.00  0.00    +0.000 C 
ENDROOT
BRANCH   1   2
ATOM      2  N   UNL     1       1.440   4.061  19.891  0.00  0.00    +0.000 NA
ATOM      3  H   UNL     1       1.883   4.938  20.169  0.00  0.00    +0.000 HD
BRANCH   2   4
ATOM      4  C   UNL     1       1.468   3.944  18.433  0.00  0.00    +0.000 C 
BRANCH   4   5
ATOM      5  C   UNL     1       1.862   5.283  17.816  0.00  0.00    +0.000 C 
BRANCH   5   6
ATOM      6  C   UNL     1       2.517   6.189  18.859  0.00  0.00    +0.000 C 
BRANCH   6   7
ATOM      7  C   UNL     1       3.085   7.445  18.202  0.00  0.00    +0.000 C 
BRANCH   7   8
ATOM      8  N   UNL     1       2.045   8.469  18.111  0.00  0.00    +0.000 NA
ATOM      9  H   UNL     1       1.270   8.123  17.543  0.00  0.00    +0.000 HD
BRANCH   8  10
ATOM     10  C   UNL     1       1.556   8.825  19.441  0.00  0.00    +0.000 C 
BRANCH  10  11
ATOM     11  C   UNL     1       0.414   9.836  19.331  0.00  0.00    +0.000 C 
BRANCH  11  12
ATOM     12  C   UNL     1      -0.037  10.282  20.721  0.00  0.00    +0.000 C 
BRANCH  12  13
ATOM     13  N   UNL     1       1.057  10.937  21.429  0.00  0.00    +0.000 NA
ATOM     14  H   UNL     1       0.677  11.562  22.141  0.00  0.00    +0.000 HD
ATOM     15  H   UNL     1       1.576  11.526  20.780  0.00  0.00    +0.000 HD
ENDBRANCH  12  13
ENDBRANCH  11  12
ENDBRANCH  10  11
ENDBRANCH   8  10
ENDBRANCH   7   8
ENDBRANCH   6   7
ENDBRANCH   5   6
ENDBRANCH   4   5
ENDBRANCH   2   4
ENDBRANCH   1   2
BRANCH   1  16
ATOM     16  C   UNL     1       3.209   2.406  19.550  0.00  0.00    +0.000 C 
BRANCH  16  17
ATOM     17  C   UNL     1       4.569   3.017  19.866  0.00  0.00    +0.000 C 
BRANCH  17  20
ATOM     18  C   UNL     1       6.145   4.517  18.709  0.00  0.00    +0.000 C 
ATOM     19  O   UNL     1       6.460   5.086  19.754  0.00  0.00    +0.000 OA
ATOM     20  N   UNL     1       5.239   3.480  18.668  0.00  0.00    +0.000 N 
ATOM     21  H   UNL     1       5.087   2.979  17.802  0.00  0.00    +0.000 HD
BRANCH  18  22
ATOM     22  C   UNL     1       6.707   4.954  17.335  0.00  0.00    +0.000 C 
BRANCH  22  23
ATOM     23  N   UNL     1       7.968   4.224  17.089  0.00  0.00    +0.000 NA
ATOM     24  H   UNL     1       8.266   3.831  17.987  0.00  0.00    +0.000 HD
ATOM     25  H   UNL     1       8.695   4.917  16.893  0.00  0.00    +0.000 HD
ENDBRANCH  22  23
BRANCH  22  27
ATOM     26  C   UNL     1       6.196   3.938  15.021  0.00  0.00    +0.000 C 
ATOM     27  C   UNL     1       5.676   4.776  16.195  0.00  0.00    +0.000 C 
ATOM     28  C   UNL     1       5.191   6.134  15.670  0.00  0.00    +0.000 C 
ENDBRANCH  22  27
ENDBRANCH  18  22
ENDBRANCH  17  20
ENDBRANCH  16  17
ENDBRANCH   1  16
TORSDOF 16
ENDMDL
MODEL 9
REMARK VINA RESULT:      -5.4      2.888      6.724
REMARK  Name = 
REMARK  18 active torsions:
REMARK  status: ('A' for Active; 'I' for Inactive)
REMARK    1  A    between atoms: C_1  and  C_2
REMARK    2  A    between atoms: C_2  and  C_3
REMARK    3  A    between atoms: C_2  and  C_4
REMARK    4  A    between atoms: C_4  and  N_5
REMARK    5  A    between atoms: C_4  and  C_6
REMARK    6  A    between atoms: N_8  and  C_9
REMARK    7  A    between atoms: C_9  and  C_10
REMARK    8  A    between atoms: C_10  and  C_11
REMARK    9  A    between atoms: C_11  and  N_12
REMARK   10  A    between atoms: N_12  and  C_13
REMARK   11  A    between atoms: C_13  and  C_14
REMARK   12  A    between atoms: C_14  and  C_15
REMARK   13  A    between atoms: C_15  and  C_16
REMARK   14  A    between atoms: C_16  and  N_17
REMARK   15  A    between atoms: N_17  and  C_18
REMARK   16  A    between atoms: C_18  and  C_19
REMARK   17  A    between atoms: C_19  and  C_20
REMARK   18  A    between atoms: C_20  and  N_21
REMARK                            x       y       z     vdW  Elec       q    Type
REMARK                         _______ _______ _______ _____ _____    ______ ____
ROOT
ATOM      1  C   UNL     1       5.666   5.075  19.301  0.00  0.00    +0.000 C 
ENDROOT
BRANCH   1   2
ATOM      2  N   UNL     1       5.638   3.661  18.930  0.00  0.00    +0.000 NA
ATOM      3  H   UNL     1       6.419   3.177  19.377  0.00  0.00    +0.000 HD
BRANCH   2   4
ATOM      4  C   UNL     1       4.381   3.044  19.350  0.00  0.00    +0.000 C 
BRANCH   4   5
ATOM      5  C   UNL     1       3.531   2.719  18.125  0.00  0.00    +0.000 C 
BRANCH   5   6
ATOM      6  C   UNL     1       2.124   3.300  18.270  0.00  0.00    +0.000 C 
BRANCH   6   7
ATOM      7  C   UNL     1       2.136   4.808  18.033  0.00  0.00    +0.000 C 
BRANCH   7   8
ATOM      8  N   UNL     1       1.684   5.502  19.238  0.00  0.00    +0.000 NA
ATOM      9  H   UNL     1       1.648   4.846  20.019  0.00  0.00    +0.000 HD
BRANCH   8  10
ATOM     10  C   UNL     1       2.584   6.604  19.565  0.00  0.00    +0.000 C 
BRANCH  10  11
ATOM     11  C   UNL     1       1.798   7.765  20.176  0.00  0.00    +0.000 C 
BRANCH  11  12
ATOM     12  C   UNL     1       1.522   8.836  19.122  0.00  0.00    +0.000 C 
BRANCH  12  13
ATOM     13  N   UNL     1       2.149   8.480  17.854  0.00  0.00    +0.000 NA
ATOM     14  H   UNL     1       2.098   9.273  17.214  0.00  0.00    +0.000 HD
ATOM     15  H   UNL     1       1.624   7.725  17.416  0.00  0.00    +0.000 HD
ENDBRANCH  12  13
ENDBRANCH  11  12
ENDBRANCH  10  11
ENDBRANCH   8  10
ENDBRANCH   7   8
ENDBRANCH   6   7
ENDBRANCH   5   6
ENDBRANCH   4   5
ENDBRANCH   2   4
ENDBRANCH   1   2
BRANCH   1  16
ATOM     16  C   UNL     1       7.104   5.517  19.553  0.00  0.00    +0.000 C 
BRANCH  16  17
ATOM     17  C   UNL     1       7.726   6.061  18.272  0.00  0.00    +0.000 C 
BRANCH  17  20
ATOM     18  C   UNL     1       6.931   5.325  16.060  0.00  0.00    +0.000 C 
ATOM     19  O   UNL     1       6.303   6.368  15.875  0.00  0.00    +0.000 OA
ATOM     20  N   UNL     1       7.672   5.092  17.197  0.00  0.00    +0.000 N 
ATOM     21  H   UNL     1       8.250   4.264  17.260  0.00  0.00    +0.000 HD
BRANCH  18  22
ATOM     22  C   UNL     1       6.902   4.158  15.044  0.00  0.00    +0.000 C 
BRANCH  22  23
ATOM     23  N   UNL     1       5.973   3.122  15.545  0.00  0.00    +0.000 NA
ATOM     24  H   UNL     1       6.018   3.150  16.567  0.00  0.00    +0.000 HD
ATOM     25  H   UNL     1       6.379   2.209  15.325  0.00  0.00    +0.000 HD
ENDBRANCH  22  23
BRANCH  22  27
ATOM     26  C   UNL     1       5.933   3.541  12.736  0.00  0.00    +0.000 C 
ATOM     27  C   UNL     1       6.559   4.632  13.613  0.00  0.00    +0.000 C 
ATOM     28  C   UNL     1       7.797   5.199  12.905  0.00  0.00    +0.000 C 
ENDBRANCH  22  27
ENDBRANCH  18  22
ENDBRANCH  17  20
ENDBRANCH  16  17
ENDBRANCH   1  16
TORSDOF 16
ENDMDL
