MODEL 1
REMARK VINA RESULT:      -6.5      0.000      0.000
REMARK  Name = 
REMARK  4 active torsions:
REMARK  status: ('A' for Active; 'I' for Inactive)
REMARK    1  A    between atoms: N_7  and  C_8
REMARK    2  A    between atoms: C_8  and  C_9
REMARK    3  A    between atoms: C_10  and  C_11
REMARK    4  A    between atoms: C_11  and  S_12
REMARK                            x       y       z     vdW  Elec       q    Type
REMARK                         _______ _______ _______ _____ _____    ______ ____
ROOT
ATOM      1  C   UNL     1       5.974   4.175  16.012  0.00  0.00    +0.000 C 
ENDROOT
BRANCH   1   8
ATOM      2  O   UNL     1       8.008   4.253  18.101  0.00  0.00    +0.000 OA
ATOM      3  C   UNL     1       7.446   5.259  17.688  0.00  0.00    +0.000 C 
ATOM      4  C   UNL     1       7.722   6.641  18.206  0.00  0.00    +0.000 C 
ATOM      5  C   UNL     1       6.814   7.541  17.388  0.00  0.00    +0.000 C 
ATOM      6  C   UNL     1       6.077   6.602  16.479  0.00  0.00    +0.000 C 
ATOM      7  O   UNL     1       5.247   6.959  15.661  0.00  0.00    +0.000 OA
ATOM      8  N   UNL     1       6.506   5.328  16.710  0.00  0.00    +0.000 N 
ENDBRANCH   1   8
BRANCH   1   9
ATOM      9  C   UNL     1       4.834   3.571  16.815  0.00  0.00    +0.000 C 
ATOM     10  C   UNL     1       3.856   3.053  17.504  0.00  0.00    +0.000 C 
BRANCH  10  11
ATOM     11  C   UNL     1       2.715   2.450  18.307  0.00  0.00    +0.000 C 
BRANCH  11  12
ATOM     12  S   UNL     1       3.138   2.730  20.068  0.00  0.00    +0.000 S 
ATOM     13  C   UNL     1       1.435   2.777  20.716  0.00  0.00    +0.000 C 
ATOM     14  C   UNL     1       0.841   4.129  20.371  0.00  0.00    +0.000 C 
ATOM     15  C   UNL     1       1.951   5.144  20.563  0.00  0.00    +0.000 C 
ATOM     16  C   UNL     1       3.244   4.555  20.014  0.00  0.00    +0.000 C 
ENDBRANCH  11  12
ENDBRANCH  10  11
ENDBRANCH   1   9
TORSDOF 4
ENDMDL
MODEL 2
REMARK VINA RESULT:      -6.4      3.064      5.854
REMARK  Name = 
REMARK  4 active torsions:
REMARK  status: ('A' for Active; 'I' for Inactive)
REMARK    1  A    between atoms: N_7  and  C_8
REMARK    2  A    between atoms: C_8  and  C_9
REMARK    3  A    between atoms: C_10  and  C_11
REMARK    4  A    between atoms: C_11  and  S_12
REMARK                            x       y       z     vdW  Elec       q    Type
REMARK                         _______ _______ _______ _____ _____    ______ ____
ROOT
ATOM      1  C   UNL     1       3.349   1.840  17.936  0.00  0.00    +0.000 C 
ENDROOT
BRANCH   1   8
ATOM      2  O   UNL     1       0.550   2.409  18.526  0.00  0.00    +0.000 OA
ATOM      3  C   UNL     1       1.434   2.499  19.368  0.00  0.00    +0.000 C 
ATOM      4  C   UNL     1       1.194   2.919  20.790  0.00  0.00    +0.000 C 
ATOM      5  C   UNL     1       2.564   2.861  21.439  0.00  0.00    +0.000 C 
ATOM      6  C   UNL     1       3.484   2.430  20.335  0.00  0.00    +0.000 C 
ATOM      7  O   UNL     1       4.684   2.270  20.473  0.00  0.00    +0.000 OA
ATOM      8  N   UNL     1       2.757   2.238  19.197  0.00  0.00    +0.000 N 
ENDBRANCH   1   8
BRANCH   1   9
ATOM      9  C   UNL     1       4.004   3.042  17.276  0.00  0.00    +0.000 C 
ATOM     10  C   UNL     1       4.566   4.074  16.710  0.00  0.00    +0.000 C 
BRANCH  10  11
ATOM     11  C   UNL     1       5.221   5.276  16.049  0.00  0.00    +0.000 C 
BRANCH  11  12
ATOM     12  S   UNL     1       5.205   6.610  17.305  0.00  0.00    +0.000 S 
ATOM     13  C   UNL     1       7.003   6.894  17.371  0.00  0.00    +0.000 C 
ATOM     14  C   UNL     1       7.625   5.776  18.185  0.00  0.00    +0.000 C 
ATOM     15  C   UNL     1       6.671   5.503  19.332  0.00  0.00    +0.000 C 
ATOM     16  C   UNL     1       5.246   5.551  18.796  0.00  0.00    +0.000 C 
ENDBRANCH  11  12
ENDBRANCH  10  11
ENDBRANCH   1   9
TORSDOF 4
ENDMDL
MODEL 3
REMARK VINA RESULT:      -6.4      0.848      2.365
REMARK  Name = 
REMARK  4 active torsions:
REMARK  status: ('A' for Active; 'I' for Inactive)
REMARK    1  A    between atoms: N_7  and  C_8
REMARK    2  A    between atoms: C_8  and  C_9
REMARK    3  A    between atoms: C_10  and  C_11
REMARK    4  A    between atoms: C_11  and  S_12
REMARK                            x       y       z     vdW  Elec       q    Type
REMARK                         _______ _______ _______ _____ _____    ______ ____
ROOT
ATOM      1  C   UNL     1       6.019   4.017  16.265  0.00  0.00    +0.000 C 
ENDROOT
BRANCH   1   8
ATOM      2  O   UNL     1       5.288   6.770  15.634  0.00  0.00    +0.000 OA
ATOM      3  C   UNL     1       6.122   6.486  16.484  0.00  0.00    +0.000 C 
ATOM      4  C   UNL     1       6.872   7.506  17.292  0.00  0.00    +0.000 C 
ATOM      5  C   UNL     1       7.759   6.685  18.210  0.00  0.00    +0.000 C 
ATOM      6  C   UNL     1       7.461   5.261  17.843  0.00  0.00    +0.000 C 
ATOM      7  O   UNL     1       7.989   4.298  18.373  0.00  0.00    +0.000 OA
ATOM      8  N   UNL     1       6.514   5.241  16.863  0.00  0.00    +0.000 N 
ENDBRANCH   1   8
BRANCH   1   9
ATOM      9  C   UNL     1       4.647   3.690  16.830  0.00  0.00    +0.000 C 
ATOM     10  C   UNL     1       3.469   3.409  17.316  0.00  0.00    +0.000 C 
BRANCH  10  11
ATOM     11  C   UNL     1       2.097   3.082  17.882  0.00  0.00    +0.000 C 
BRANCH  11  12
ATOM     12  S   UNL     1       1.773   4.340  19.173  0.00  0.00    +0.000 S 
ATOM     13  C   UNL     1       3.199   3.956  20.241  0.00  0.00    +0.000 C 
ATOM     14  C   UNL     1       2.876   2.694  21.017  0.00  0.00    +0.000 C 
ATOM     15  C   UNL     1       1.412   2.792  21.400  0.00  0.00    +0.000 C 
ATOM     16  C   UNL     1       0.639   3.349  20.211  0.00  0.00    +0.000 C 
ENDBRANCH  11  12
ENDBRANCH  10  11
ENDBRANCH   1   9
TORSDOF 4
ENDMDL
MODEL 4
REMARK VINA RESULT:      -6.4      3.073      5.634
REMARK  Name = 
REMARK  4 active torsions:
REMARK  status: ('A' for Active; 'I' for Inactive)
REMARK    1  A    between atoms: N_7  and  C_8
REMARK    2  A    between atoms: C_8  and  C_9
REMARK    3  A    between atoms: C_10  and  C_11
REMARK    4  A    between atoms: C_11  and  S_12
REMARK                            x       y       z     vdW  Elec       q    Type
REMARK                         _______ _______ _______ _____ _____    ______ ____
ROOT
ATOM      1  C   UNL     1       3.093   1.939  17.819  0.00  0.00    +0.000 C 
ENDROOT
BRANCH   1   8
ATOM      2  O   UNL     1       4.626   2.403  20.257  0.00  0.00    +0.000 OA
ATOM      3  C   UNL     1       3.407   2.508  20.213  0.00  0.00    +0.000 C 
ATOM      4  C   UNL     1       2.556   2.874  21.395  0.00  0.00    +0.000 C 
ATOM      5  C   UNL     1       1.140   2.898  20.851  0.00  0.00    +0.000 C 
ATOM      6  C   UNL     1       1.288   2.527  19.405  0.00  0.00    +0.000 C 
ATOM      7  O   UNL     1       0.354   2.440  18.626  0.00  0.00    +0.000 OA
ATOM      8  N   UNL     1       2.609   2.333  19.126  0.00  0.00    +0.000 N 
ENDBRANCH   1   8
BRANCH   1   9
ATOM      9  C   UNL     1       3.863   3.088  17.190  0.00  0.00    +0.000 C 
ATOM     10  C   UNL     1       4.524   4.074  16.650  0.00  0.00    +0.000 C 
BRANCH  10  11
ATOM     11  C   UNL     1       5.294   5.223  16.020  0.00  0.00    +0.000 C 
BRANCH  11  12
ATOM     12  S   UNL     1       5.258   6.584  17.246  0.00  0.00    +0.000 S 
ATOM     13  C   UNL     1       7.058   6.846  17.362  0.00  0.00    +0.000 C 
ATOM     14  C   UNL     1       7.638   5.737  18.218  0.00  0.00    +0.000 C 
ATOM     15  C   UNL     1       6.646   5.502  19.340  0.00  0.00    +0.000 C 
ATOM     16  C   UNL     1       5.239   5.558  18.760  0.00  0.00    +0.000 C 
ENDBRANCH  11  12
ENDBRANCH  10  11
ENDBRANCH   1   9
TORSDOF 4
ENDMDL
MODEL 5
REMARK VINA RESULT:      -6.3      0.397      1.876
REMARK  Name = 
REMARK  4 active torsions:
REMARK  status: ('A' for Active; 'I' for Inactive)
REMARK    1  A    between atoms: N_7  and  C_8
REMARK    2  A    between atoms: C_8  and  C_9
REMARK    3  A    between atoms: C_10  and  C_11
REMARK    4  A    between atoms: C_11  and  S_12
REMARK                            x       y       z     vdW  Elec       q    Type
REMARK                         _______ _______ _______ _____ _____    ______ ____
ROOT
ATOM      1  C   UNL     1       5.575   4.202  15.940  0.00  0.00    +0.000 C 
ENDROOT
BRANCH   1   8
ATOM      2  O   UNL     1       4.613   6.941  16.222  0.00  0.00    +0.000 OA
ATOM      3  C   UNL     1       5.675   6.561  16.698  0.00  0.00    +0.000 C 
ATOM      4  C   UNL     1       6.609   7.449  17.470  0.00  0.00    +0.000 C 
ATOM      5  C   UNL     1       7.757   6.539  17.866  0.00  0.00    +0.000 C 
ATOM      6  C   UNL     1       7.399   5.206  17.276  0.00  0.00    +0.000 C 
ATOM      7  O   UNL     1       8.089   4.207  17.384  0.00  0.00    +0.000 OA
ATOM      8  N   UNL     1       6.197   5.308  16.639  0.00  0.00    +0.000 N 
ENDBRANCH   1   8
BRANCH   1   9
ATOM      9  C   UNL     1       4.603   3.491  16.867  0.00  0.00    +0.000 C 
ATOM     10  C   UNL     1       3.768   2.882  17.663  0.00  0.00    +0.000 C 
BRANCH  10  11
ATOM     11  C   UNL     1       2.796   2.171  18.590  0.00  0.00    +0.000 C 
BRANCH  11  12
ATOM     12  S   UNL     1       3.214   2.735  20.283  0.00  0.00    +0.000 S 
ATOM     13  C   UNL     1       1.517   2.771  20.946  0.00  0.00    +0.000 C 
ATOM     14  C   UNL     1       0.833   4.016  20.415  0.00  0.00    +0.000 C 
ATOM     15  C   UNL     1       1.876   5.117  20.436  0.00  0.00    +0.000 C 
ATOM     16  C   UNL     1       3.201   4.535  19.958  0.00  0.00    +0.000 C 
ENDBRANCH  11  12
ENDBRANCH  10  11
ENDBRANCH   1   9
TORSDOF 4
ENDMDL
MODEL 6
REMARK VINA RESULT:      -6.3      1.082      1.238
REMARK  Name = 
REMARK  4 active torsions:
REMARK  status: ('A' for Active; 'I' for Inactive)
REMARK    1  A    between atoms: N_7  and  C_8
REMARK    2  A    between atoms: C_8  and  C_9
REMARK    3  A    between atoms: C_10  and  C_11
REMARK    4  A    between atoms: C_11  and  S_12
REMARK                            x       y       z     vdW  Elec       q    Type
REMARK                         _______ _______ _______ _____ _____    ______ ____
ROOT
ATOM      1  C   UNL     1       6.010   4.310  16.468  0.00  0.00    +0.000 C 
ENDROOT
BRANCH   1   8
ATOM      2  O   UNL     1       7.974   4.448  18.620  0.00  0.00    +0.000 OA
ATOM      3  C   UNL     1       7.538   5.444  18.059  0.00  0.00    +0.000 C 
ATOM      4  C   UNL     1       7.946   6.846  18.410  0.00  0.00    +0.000 C 
ATOM      5  C   UNL     1       7.168   7.721  17.445  0.00  0.00    +0.000 C 
ATOM      6  C   UNL     1       6.362   6.754  16.629  0.00  0.00    +0.000 C 
ATOM      7  O   UNL     1       5.602   7.086  15.736  0.00  0.00    +0.000 OA
ATOM      8  N   UNL     1       6.642   5.483  17.038  0.00  0.00    +0.000 N 
ENDBRANCH   1   8
BRANCH   1   9
ATOM      9  C   UNL     1       4.569   4.224  16.941  0.00  0.00    +0.000 C 
ATOM     10  C   UNL     1       3.332   4.150  17.347  0.00  0.00    +0.000 C 
BRANCH  10  11
ATOM     11  C   UNL     1       1.890   4.065  17.821  0.00  0.00    +0.000 C 
BRANCH  11  12
ATOM     12  S   UNL     1       1.714   2.416  18.600  0.00  0.00    +0.000 S 
ATOM     13  C   UNL     1       0.661   2.925  19.996  0.00  0.00    +0.000 C 
ATOM     14  C   UNL     1       1.543   3.607  21.024  0.00  0.00    +0.000 C 
ATOM     15  C   UNL     1       2.841   2.824  21.059  0.00  0.00    +0.000 C 
ATOM     16  C   UNL     1       3.225   2.462  19.630  0.00  0.00    +0.000 C 
ENDBRANCH  11  12
ENDBRANCH  10  11
ENDBRANCH   1   9
TORSDOF 4
ENDMDL
MODEL 7
REMARK VINA RESULT:      -6.3      1.068      2.253
REMARK  Name = 
REMARK  4 active torsions:
REMARK  status: ('A' for Active; 'I' for Inactive)
REMARK    1  A    between atoms: N_7  and  C_8
REMARK    2  A    between atoms: C_8  and  C_9
REMARK    3  A    between atoms: C_10  and  C_11
REMARK    4  A    between atoms: C_11  and  S_12
REMARK                            x       y       z     vdW  Elec       q    Type
REMARK                         _______ _______ _______ _____ _____    ______ ____
ROOT
ATOM      1  C   UNL     1       5.797   4.166  16.510  0.00  0.00    +0.000 C 
ENDROOT
BRANCH   1   8
ATOM      2  O   UNL     1       5.331   6.937  15.726  0.00  0.00    +0.000 OA
ATOM      3  C   UNL     1       6.158   6.620  16.571  0.00  0.00    +0.000 C 
ATOM      4  C   UNL     1       7.033   7.603  17.295  0.00  0.00    +0.000 C 
ATOM      5  C   UNL     1       7.860   6.752  18.239  0.00  0.00    +0.000 C 
ATOM      6  C   UNL     1       7.408   5.346  17.970  0.00  0.00    +0.000 C 
ATOM      7  O   UNL     1       7.851   4.368  18.546  0.00  0.00    +0.000 OA
ATOM      8  N   UNL     1       6.433   5.366  17.017  0.00  0.00    +0.000 N 
ENDBRANCH   1   8
BRANCH   1   9
ATOM      9  C   UNL     1       4.355   4.111  16.985  0.00  0.00    +0.000 C 
ATOM     10  C   UNL     1       3.117   4.064  17.392  0.00  0.00    +0.000 C 
BRANCH  10  11
ATOM     11  C   UNL     1       1.674   4.008  17.866  0.00  0.00    +0.000 C 
BRANCH  11  12
ATOM     12  S   UNL     1       1.492   2.404  18.733  0.00  0.00    +0.000 S 
ATOM     13  C   UNL     1       0.621   3.029  20.207  0.00  0.00    +0.000 C 
ATOM     14  C   UNL     1       1.642   3.699  21.106  0.00  0.00    +0.000 C 
ATOM     15  C   UNL     1       2.892   2.842  21.043  0.00  0.00    +0.000 C 
ATOM     16  C   UNL     1       3.103   2.403  19.599  0.00  0.00    +0.000 C 
ENDBRANCH  11  12
ENDBRANCH  10  11
ENDBRANCH   1   9
TORSDOF 4
ENDMDL
MODEL 8
REMARK VINA RESULT:      -6.2      0.880      1.372
REMARK  Name = 
REMARK  4 active torsions:
REMARK  status: ('A' for Active; 'I' for Inactive)
REMARK    1  A    between atoms: N_7  and  C_8
REMARK    2  A    between atoms: C_8  and  C_9
REMARK    3  A    between atoms: C_10  and  C_11
REMARK    4  A    between atoms: C_11  and  S_12
REMARK                            x       y       z     vdW  Elec       q    Type
REMARK                         _______ _______ _______ _____ _____    ______ ____
ROOT
ATOM      1  C   UNL     1       6.104   4.166  16.026  0.00  0.00    +0.000 C 
ENDROOT
BRANCH   1   8
ATOM      2  O   UNL     1       8.064   4.275  18.184  0.00  0.00    +0.000 OA
ATOM      3  C   UNL     1       7.507   5.273  17.746  0.00  0.00    +0.000 C 
ATOM      4  C   UNL     1       7.752   6.661  18.265  0.00  0.00    +0.000 C 
ATOM      5  C   UNL     1       6.865   7.547  17.410  0.00  0.00    +0.000 C 
ATOM      6  C   UNL     1       6.169   6.596  16.482  0.00  0.00    +0.000 C 
ATOM      7  O   UNL     1       5.364   6.941  15.634  0.00  0.00    +0.000 OA
ATOM      8  N   UNL     1       6.600   5.328  16.735  0.00  0.00    +0.000 N 
ENDBRANCH   1   8
BRANCH   1   9
ATOM      9  C   UNL     1       4.962   3.538  16.808  0.00  0.00    +0.000 C 
ATOM     10  C   UNL     1       3.982   3.000  17.479  0.00  0.00    +0.000 C 
BRANCH  10  11
ATOM     11  C   UNL     1       2.839   2.373  18.261  0.00  0.00    +0.000 C 
BRANCH  11  12
ATOM     12  S   UNL     1       1.449   3.561  18.159  0.00  0.00    +0.000 S 
ATOM     13  C   UNL     1       2.391   5.065  18.573  0.00  0.00    +0.000 C 
ATOM     14  C   UNL     1       2.630   5.070  20.070  0.00  0.00    +0.000 C 
ATOM     15  C   UNL     1       1.356   4.551  20.708  0.00  0.00    +0.000 C 
ATOM     16  C   UNL     1       0.840   3.384  19.875  0.00  0.00    +0.000 C 
ENDBRANCH  11  12
ENDBRANCH  10  11
ENDBRANCH   1   9
TORSDOF 4
ENDMDL
MODEL 9
REMARK VINA RESULT:      -6.2      3.130      6.119
REMARK  Name = 
REMARK  4 active torsions:
REMARK  status: ('A' for Active; 'I' for Inactive)
REMARK    1  A    between atoms: N_7  and  C_8
REMARK    2  A    between atoms: C_8  and  C_9
REMARK    3  A    between atoms: C_10  and  C_11
REMARK    4  A    between atoms: C_11  and  S_12
REMARK                            x       y       z     vdW  Elec       q    Type
REMARK                         _______ _______ _______ _____ _____    ______ ____
ROOT
ATOM      1  C   UNL     1       3.591   2.248  18.229  0.00  0.00    +0.000 C 
ENDROOT
BRANCH   1   8
ATOM      2  O   UNL     1       0.741   2.858  18.338  0.00  0.00    +0.000 OA
ATOM      3  C   UNL     1       1.439   2.784  19.340  0.00  0.00    +0.000 C 
ATOM      4  C   UNL     1       0.926   3.005  20.734  0.00  0.00    +0.000 C 
ATOM      5  C   UNL     1       2.136   2.789  21.623  0.00  0.00    +0.000 C 
ATOM      6  C   UNL     1       3.251   2.479  20.669  0.00  0.00    +0.000 C 
ATOM      7  O   UNL     1       4.396   2.243  21.015  0.00  0.00    +0.000 OA
ATOM      8  N   UNL     1       2.764   2.487  19.395  0.00  0.00    +0.000 N 
ENDBRANCH   1   8
BRANCH   1   9
ATOM      9  C   UNL     1       4.130   3.568  17.705  0.00  0.00    +0.000 C 
ATOM     10  C   UNL     1       4.593   4.701  17.254  0.00  0.00    +0.000 C 
BRANCH  10  11
ATOM     11  C   UNL     1       5.131   6.022  16.728  0.00  0.00    +0.000 C 
BRANCH  11  12
ATOM     12  S   UNL     1       6.916   5.751  16.421  0.00  0.00    +0.000 S 
ATOM     13  C   UNL     1       7.269   4.775  17.919  0.00  0.00    +0.000 C 
ATOM     14  C   UNL     1       7.347   5.732  19.093  0.00  0.00    +0.000 C 
ATOM     15  C   UNL     1       8.060   6.972  18.586  0.00  0.00    +0.000 C 
ATOM     16  C   UNL     1       7.540   7.289  17.189  0.00  0.00    +0.000 C 
ENDBRANCH  11  12
ENDBRANCH  10  11
ENDBRANCH   1   9
TORSDOF 4
ENDMDL
