MODEL 1
REMARK VINA RESULT:      -8.0      0.000      0.000
REMARK  Name = 
REMARK  6 active torsions:
REMARK  status: ('A' for Active; 'I' for Inactive)
REMARK    1  A    between atoms: C_1  and  C_2
REMARK    2  A    between atoms: C_3  and  N_4
REMARK    3  A    between atoms: N_6  and  C_7
REMARK    4  A    between atoms: C_16  and  C_17
REMARK    5  A    between atoms: C_17  and  O_19
REMARK    6  A    between atoms: N_21  and  C_22
REMARK                            x       y       z     vdW  Elec       q    Type
REMARK                         _______ _______ _______ _____ _____    ______ ____
ROOT
ATOM      1  C   UNL     1       1.364   8.752  19.449  0.00  0.00    +0.000 A 
ATOM      2  C   UNL     1       1.722   7.494  19.968  0.00  0.00    +0.000 A 
ATOM      3  C   UNL     1       2.674   6.673  19.340  0.00  0.00    +0.000 A 
ATOM      4  C   UNL     1       3.294   7.160  18.175  0.00  0.00    +0.000 A 
ATOM      5  C   UNL     1       2.934   8.386  17.618  0.00  0.00    +0.000 A 
ATOM      6  C   UNL     1       1.974   9.163  18.254  0.00  0.00    +0.000 A 
ATOM      7  F   UNL     1       1.653  10.339  17.695  0.00  0.00    +0.000 F 
ATOM      8  C   UNL     1       4.368   6.365  17.537  0.00  0.00    +0.000 A 
ATOM      9  O   UNL     1       4.911   6.739  16.499  0.00  0.00    +0.000 OA
ATOM     10  C   UNL     1       4.809   5.120  18.194  0.00  0.00    +0.000 A 
ATOM     11  C   UNL     1       4.117   4.726  19.276  0.00  0.00    +0.000 A 
ATOM     12  N   UNL     1       3.033   5.385  19.829  0.00  0.00    +0.000 N 
ENDROOT
BRANCH   1  17
ATOM     13  C   UNL     1      -1.489  10.392  18.820  0.00  0.00    +0.000 C 
ATOM     14  C   UNL     1      -0.308  10.727  19.720  0.00  0.00    +0.000 C 
ATOM     15  C   UNL     1      -0.672  10.910  21.216  0.00  0.00    +0.000 C 
ATOM     16  C   UNL     1      -0.157   9.468  21.413  0.00  0.00    +0.000 C 
ATOM     17  N   UNL     1       0.423   9.556  20.109  0.00  0.00    +0.000 N 
BRANCH  15  18
ATOM     18  N   UNL     1       0.274  11.864  21.831  0.00  0.00    +0.000 NA
ATOM     19  H   UNL     1       0.763  11.462  22.636  0.00  0.00    +0.000 HD
ATOM     20  H   UNL     1      -0.178  12.706  22.185  0.00  0.00    +0.000 HD
ENDBRANCH  15  18
ENDBRANCH   1  17
BRANCH  12  21
ATOM     21  C   UNL     1       2.327   4.742  20.954  0.00  0.00    +0.000 C 
ATOM     22  C   UNL     1       1.151   3.818  20.744  0.00  0.00    +0.000 C 
ATOM     23  C   UNL     1       2.454   3.257  21.213  0.00  0.00    +0.000 C 
ENDBRANCH  12  21
BRANCH  10  24
ATOM     24  C   UNL     1       5.946   4.303  17.721  0.00  0.00    +0.000 C 
ATOM     25  O   UNL     1       7.031   4.274  18.280  0.00  0.00    +0.000 OA
BRANCH  24  26
ATOM     26  O   UNL     1       5.691   3.588  16.603  0.00  0.00    +0.000 OA
ATOM     27  H   UNL     1       5.870   2.619  16.692  0.00  0.00    +0.000 HD
ENDBRANCH  24  26
ENDBRANCH  10  24
TORSDOF 5
ENDMDL
MODEL 2
REMARK VINA RESULT:      -7.9      2.290      3.588
REMARK  Name = 
REMARK  6 active torsions:
REMARK  status: ('A' for Active; 'I' for Inactive)
REMARK    1  A    between atoms: C_1  and  C_2
REMARK    2  A    between atoms: C_3  and  N_4
REMARK    3  A    between atoms: N_6  and  C_7
REMARK    4  A    between atoms: C_16  and  C_17
REMARK    5  A    between atoms: C_17  and  O_19
REMARK    6  A    between atoms: N_21  and  C_22
REMARK                            x       y       z     vdW  Elec       q    Type
REMARK                         _______ _______ _______ _____ _____    ______ ____
ROOT
ATOM      1  C   UNL     1       1.527   8.486  19.608  0.00  0.00    +0.000 A 
ATOM      2  C   UNL     1       2.448   7.890  18.727  0.00  0.00    +0.000 A 
ATOM      3  C   UNL     1       2.920   6.580  18.917  0.00  0.00    +0.000 A 
ATOM      4  C   UNL     1       2.418   5.854  20.012  0.00  0.00    +0.000 A 
ATOM      5  C   UNL     1       1.532   6.430  20.921  0.00  0.00    +0.000 A 
ATOM      6  C   UNL     1       1.102   7.735  20.715  0.00  0.00    +0.000 A 
ATOM      7  F   UNL     1       0.247   8.258  21.606  0.00  0.00    +0.000 F 
ATOM      8  C   UNL     1       2.819   4.440  20.193  0.00  0.00    +0.000 A 
ATOM      9  O   UNL     1       2.429   3.782  21.155  0.00  0.00    +0.000 OA
ATOM     10  C   UNL     1       3.675   3.813  19.166  0.00  0.00    +0.000 A 
ATOM     11  C   UNL     1       4.134   4.612  18.189  0.00  0.00    +0.000 A 
ATOM     12  N   UNL     1       3.873   5.964  18.056  0.00  0.00    +0.000 N 
ENDROOT
BRANCH   1  17
ATOM     13  C   UNL     1      -1.219  10.068  18.521  0.00  0.00    +0.000 C 
ATOM     14  C   UNL     1       0.262  10.377  18.345  0.00  0.00    +0.000 C 
ATOM     15  C   UNL     1       0.699  11.760  18.891  0.00  0.00    +0.000 C 
ATOM     16  C   UNL     1       1.209  10.997  20.132  0.00  0.00    +0.000 C 
ATOM     17  N   UNL     1       1.062   9.789  19.381  0.00  0.00    +0.000 N 
BRANCH  15  18
ATOM     18  N   UNL     1       1.848  12.250  18.101  0.00  0.00    +0.000 NA
ATOM     19  H   UNL     1       1.701  12.143  17.094  0.00  0.00    +0.000 HD
ATOM     20  H   UNL     1       2.714  11.752  18.300  0.00  0.00    +0.000 HD
ENDBRANCH  15  18
ENDBRANCH   1  17
BRANCH  12  21
ATOM     21  C   UNL     1       4.556   6.703  16.977  0.00  0.00    +0.000 C 
ATOM     22  C   UNL     1       6.055   6.659  16.797  0.00  0.00    +0.000 C 
ATOM     23  C   UNL     1       5.172   5.981  15.800  0.00  0.00    +0.000 C 
ENDBRANCH  12  21
BRANCH  10  24
ATOM     24  C   UNL     1       4.046   2.384  19.172  0.00  0.00    +0.000 C 
ATOM     25  O   UNL     1       3.555   1.559  18.418  0.00  0.00    +0.000 OA
BRANCH  24  26
ATOM     26  O   UNL     1       4.977   2.054  20.095  0.00  0.00    +0.000 OA
ATOM     27  H   UNL     1       4.923   2.577  20.932  0.00  0.00    +0.000 HD
ENDBRANCH  24  26
ENDBRANCH  10  24
TORSDOF 5
ENDMDL
MODEL 3
REMARK VINA RESULT:      -7.8      0.862      1.262
REMARK  Name = 
REMARK  6 active torsions:
REMARK  status: ('A' for Active; 'I' for Inactive)
REMARK    1  A    between atoms: C_1  and  C_2
REMARK    2  A    between atoms: C_3  and  N_4
REMARK    3  A    between atoms: N_6  and  C_7
REMARK    4  A    between atoms: C_16  and  C_17
REMARK    5  A    between atoms: C_17  and  O_19
REMARK    6  A    between atoms: N_21  and  C_22
REMARK                            x       y       z     vdW  Elec       q    Type
REMARK                         _______ _______ _______ _____ _____    ______ ____
ROOT
ATOM      1  C   UNL     1       1.448   8.737  19.727  0.00  0.00    +0.000 A 
ATOM      2  C   UNL     1       1.806   7.441  20.144  0.00  0.00    +0.000 A 
ATOM      3  C   UNL     1       2.652   6.620  19.380  0.00  0.00    +0.000 A 
ATOM      4  C   UNL     1       3.168   7.145  18.181  0.00  0.00    +0.000 A 
ATOM      5  C   UNL     1       2.803   8.410  17.725  0.00  0.00    +0.000 A 
ATOM      6  C   UNL     1       1.946   9.187  18.495  0.00  0.00    +0.000 A 
ATOM      7  F   UNL     1       1.619  10.402  18.030  0.00  0.00    +0.000 F 
ATOM      8  C   UNL     1       4.136   6.347  17.395  0.00  0.00    +0.000 A 
ATOM      9  O   UNL     1       4.583   6.754  16.326  0.00  0.00    +0.000 OA
ATOM     10  C   UNL     1       4.591   5.053  17.942  0.00  0.00    +0.000 A 
ATOM     11  C   UNL     1       3.999   4.629  19.070  0.00  0.00    +0.000 A 
ATOM     12  N   UNL     1       3.007   5.297  19.766  0.00  0.00    +0.000 N 
ENDROOT
BRANCH   1  17
ATOM     13  C   UNL     1       1.149  11.925  20.712  0.00  0.00    +0.000 C 
ATOM     14  C   UNL     1       0.873  10.615  21.434  0.00  0.00    +0.000 C 
ATOM     15  C   UNL     1      -0.587  10.449  21.929  0.00  0.00    +0.000 C 
ATOM     16  C   UNL     1      -0.806   9.574  20.677  0.00  0.00    +0.000 C 
ATOM     17  N   UNL     1       0.615   9.539  20.521  0.00  0.00    +0.000 N 
BRANCH  15  18
ATOM     18  N   UNL     1      -0.595   9.599  23.137  0.00  0.00    +0.000 NA
ATOM     19  H   UNL     1       0.124   8.870  23.105  0.00  0.00    +0.000 HD
ATOM     20  H   UNL     1      -1.473   9.101  23.274  0.00  0.00    +0.000 HD
ENDBRANCH  15  18
ENDBRANCH   1  17
BRANCH  12  21
ATOM     21  C   UNL     1       2.396   4.622  20.927  0.00  0.00    +0.000 C 
ATOM     22  C   UNL     1       1.145   3.784  20.804  0.00  0.00    +0.000 C 
ATOM     23  C   UNL     1       2.454   3.118  21.080  0.00  0.00    +0.000 C 
ENDBRANCH  12  21
BRANCH  10  24
ATOM     24  C   UNL     1       5.638   4.222  17.313  0.00  0.00    +0.000 C 
ATOM     25  O   UNL     1       5.496   3.663  16.237  0.00  0.00    +0.000 OA
BRANCH  24  26
ATOM     26  O   UNL     1       6.778   4.122  18.033  0.00  0.00    +0.000 OA
ATOM     27  H   UNL     1       6.634   3.989  19.002  0.00  0.00    +0.000 HD
ENDBRANCH  24  26
ENDBRANCH  10  24
TORSDOF 5
ENDMDL
MODEL 4
REMARK VINA RESULT:      -7.7      2.411      3.772
REMARK  Name = 
REMARK  6 active torsions:
REMARK  status: ('A' for Active; 'I' for Inactive)
REMARK    1  A    between atoms: C_1  and  C_2
REMARK    2  A    between atoms: C_3  and  N_4
REMARK    3  A    between atoms: N_6  and  C_7
REMARK    4  A    between atoms: C_16  and  C_17
REMARK    5  A    between atoms: C_17  and  O_19
REMARK    6  A    between atoms: N_21  and  C_22
REMARK                            x       y       z     vdW  Elec       q    Type
REMARK                         _______ _______ _______ _____ _____    ______ ____
ROOT
ATOM      1  C   UNL     1       1.808   7.835  19.553  0.00  0.00    +0.000 A 
ATOM      2  C   UNL     1       2.892   7.272  18.854  0.00  0.00    +0.000 A 
ATOM      3  C   UNL     1       3.372   5.981  19.138  0.00  0.00    +0.000 A 
ATOM      4  C   UNL     1       2.711   5.241  20.135  0.00  0.00    +0.000 A 
ATOM      5  C   UNL     1       1.658   5.786  20.867  0.00  0.00    +0.000 A 
ATOM      6  C   UNL     1       1.224   7.072  20.575  0.00  0.00    +0.000 A 
ATOM      7  F   UNL     1       0.206   7.565  21.296  0.00  0.00    +0.000 F 
ATOM      8  C   UNL     1       3.126   3.844  20.398  0.00  0.00    +0.000 A 
ATOM      9  O   UNL     1       2.598   3.175  21.283  0.00  0.00    +0.000 OA
ATOM     10  C   UNL     1       4.173   3.247  19.545  0.00  0.00    +0.000 A 
ATOM     11  C   UNL     1       4.767   4.059  18.655  0.00  0.00    +0.000 A 
ATOM     12  N   UNL     1       4.483   5.400  18.465  0.00  0.00    +0.000 N 
ENDROOT
BRANCH   1  17
ATOM     13  C   UNL     1       0.918  10.683  21.075  0.00  0.00    +0.000 C 
ATOM     14  C   UNL     1       0.372   9.986  19.838  0.00  0.00    +0.000 C 
ATOM     15  C   UNL     1       0.430  10.835  18.542  0.00  0.00    +0.000 C 
ATOM     16  C   UNL     1       1.699  10.030  18.192  0.00  0.00    +0.000 C 
ATOM     17  N   UNL     1       1.342   9.119  19.234  0.00  0.00    +0.000 N 
BRANCH  15  18
ATOM     18  N   UNL     1      -0.677  10.432  17.650  0.00  0.00    +0.000 NA
ATOM     19  H   UNL     1      -0.985   9.471  17.822  0.00  0.00    +0.000 HD
ATOM     20  H   UNL     1      -0.428  10.461  16.662  0.00  0.00    +0.000 HD
ENDBRANCH  15  18
ENDBRANCH   1  17
BRANCH  12  21
ATOM     21  C   UNL     1       5.319   6.161  17.516  0.00  0.00    +0.000 C 
ATOM     22  C   UNL     1       6.350   5.493  16.638  0.00  0.00    +0.000 C 
ATOM     23  C   UNL     1       5.108   6.050  16.023  0.00  0.00    +0.000 C 
ENDBRANCH  12  21
BRANCH  10  24
ATOM     24  C   UNL     1       4.590   1.832  19.631  0.00  0.00    +0.000 C 
ATOM     25  O   UNL     1       5.282   1.390  20.534  0.00  0.00    +0.000 OA
BRANCH  24  26
ATOM     26  O   UNL     1       4.146   1.058  18.616  0.00  0.00    +0.000 OA
ATOM     27  H   UNL     1       3.373   1.434  18.127  0.00  0.00    +0.000 HD
ENDBRANCH  24  26
ENDBRANCH  10  24
TORSDOF 5
ENDMDL
MODEL 5
REMARK VINA RESULT:      -7.7      1.056      1.135
REMARK  Name = 
REMARK  6 active torsions:
REMARK  status: ('A' for Active; 'I' for Inactive)
REMARK    1  A    between atoms: C_1  and  C_2
REMARK    2  A    between atoms: C_3  and  N_4
REMARK    3  A    between atoms: N_6  and  C_7
REMARK    4  A    between atoms: C_16  and  C_17
REMARK    5  A    between atoms: C_17  and  O_19
REMARK    6  A    between atoms: N_21  and  C_22
REMARK                            x       y       z     vdW  Elec       q    Type
REMARK                         _______ _______ _______ _____ _____    ______ ____
ROOT
ATOM      1  C   UNL     1       1.815   8.042  19.448  0.00  0.00    +0.000 A 
ATOM      2  C   UNL     1       2.286   6.742  19.708  0.00  0.00    +0.000 A 
ATOM      3  C   UNL     1       3.219   6.107  18.870  0.00  0.00    +0.000 A 
ATOM      4  C   UNL     1       3.703   6.827  17.763  0.00  0.00    +0.000 A 
ATOM      5  C   UNL     1       3.228   8.103  17.462  0.00  0.00    +0.000 A 
ATOM      6  C   UNL     1       2.289   8.692  18.299  0.00  0.00    +0.000 A 
ATOM      7  F   UNL     1       1.856   9.921  17.982  0.00  0.00    +0.000 F 
ATOM      8  C   UNL     1       4.756   6.230  16.911  0.00  0.00    +0.000 A 
ATOM      9  O   UNL     1       5.181   6.812  15.915  0.00  0.00    +0.000 OA
ATOM     10  C   UNL     1       5.323   4.924  17.302  0.00  0.00    +0.000 A 
ATOM     11  C   UNL     1       4.754   4.304  18.349  0.00  0.00    +0.000 A 
ATOM     12  N   UNL     1       3.691   4.783  19.095  0.00  0.00    +0.000 N 
ENDROOT
BRANCH   1  17
ATOM     13  C   UNL     1      -0.714  10.238  19.354  0.00  0.00    +0.000 C 
ATOM     14  C   UNL     1       0.367   9.986  20.396  0.00  0.00    +0.000 C 
ATOM     15  C   UNL     1      -0.170   9.608  21.801  0.00  0.00    +0.000 C 
ATOM     16  C   UNL     1       0.140   8.146  21.415  0.00  0.00    +0.000 C 
ATOM     17  N   UNL     1       0.896   8.655  20.313  0.00  0.00    +0.000 N 
BRANCH  15  18
ATOM     18  N   UNL     1       0.791  10.067  22.825  0.00  0.00    +0.000 NA
ATOM     19  H   UNL     1       1.390  10.825  22.484  0.00  0.00    +0.000 HD
ATOM     20  H   UNL     1       1.433   9.337  23.131  0.00  0.00    +0.000 HD
ENDBRANCH  15  18
ENDBRANCH   1  17
BRANCH  12  21
ATOM     21  C   UNL     1       3.127   3.910  20.143  0.00  0.00    +0.000 C 
ATOM     22  C   UNL     1       1.649   3.617  20.235  0.00  0.00    +0.000 C 
ATOM     23  C   UNL     1       2.590   2.536  19.813  0.00  0.00    +0.000 C 
ENDBRANCH  12  21
BRANCH  10  24
ATOM     24  C   UNL     1       6.454   4.281  16.603  0.00  0.00    +0.000 C 
ATOM     25  O   UNL     1       7.619   4.608  16.766  0.00  0.00    +0.000 OA
BRANCH  24  26
ATOM     26  O   UNL     1       6.095   3.294  15.751  0.00  0.00    +0.000 OA
ATOM     27  H   UNL     1       6.193   3.527  14.795  0.00  0.00    +0.000 HD
ENDBRANCH  24  26
ENDBRANCH  10  24
TORSDOF 5
ENDMDL
MODEL 6
REMARK VINA RESULT:      -7.6      3.039      6.413
REMARK  Name = 
REMARK  6 active torsions:
REMARK  status: ('A' for Active; 'I' for Inactive)
REMARK    1  A    between atoms: C_1  and  C_2
REMARK    2  A    between atoms: C_3  and  N_4
REMARK    3  A    between atoms: N_6  and  C_7
REMARK    4  A    between atoms: C_16  and  C_17
REMARK    5  A    between atoms: C_17  and  O_19
REMARK    6  A    between atoms: N_21  and  C_22
REMARK                            x       y       z     vdW  Elec       q    Type
REMARK                         _______ _______ _______ _____ _____    ______ ____
ROOT
ATOM      1  C   UNL     1       2.266   5.872  19.456  0.00  0.00    +0.000 A 
ATOM      2  C   UNL     1       1.712   6.838  20.317  0.00  0.00    +0.000 A 
ATOM      3  C   UNL     1       1.616   8.192  19.952  0.00  0.00    +0.000 A 
ATOM      4  C   UNL     1       2.066   8.560  18.672  0.00  0.00    +0.000 A 
ATOM      5  C   UNL     1       2.652   7.631  17.813  0.00  0.00    +0.000 A 
ATOM      6  C   UNL     1       2.751   6.305  18.213  0.00  0.00    +0.000 A 
ATOM      7  F   UNL     1       3.316   5.437  17.361  0.00  0.00    +0.000 F 
ATOM      8  C   UNL     1       1.896   9.958  18.215  0.00  0.00    +0.000 A 
ATOM      9  O   UNL     1       2.306  10.328  17.118  0.00  0.00    +0.000 OA
ATOM     10  C   UNL     1       1.182  10.905  19.095  0.00  0.00    +0.000 A 
ATOM     11  C   UNL     1       0.836  10.458  20.314  0.00  0.00    +0.000 A 
ATOM     12  N   UNL     1       1.085   9.192  20.815  0.00  0.00    +0.000 N 
ENDROOT
BRANCH   1  17
ATOM     13  C   UNL     1       0.859   2.924  18.710  0.00  0.00    +0.000 C 
ATOM     14  C   UNL     1       1.336   3.510  20.031  0.00  0.00    +0.000 C 
ATOM     15  C   UNL     1       2.426   2.674  20.750  0.00  0.00    +0.000 C 
ATOM     16  C   UNL     1       3.440   3.680  20.166  0.00  0.00    +0.000 C 
ATOM     17  N   UNL     1       2.333   4.525  19.843  0.00  0.00    +0.000 N 
BRANCH  15  18
ATOM     18  N   UNL     1       2.308   2.876  22.208  0.00  0.00    +0.000 NA
ATOM     19  H   UNL     1       2.356   3.865  22.468  0.00  0.00    +0.000 HD
ATOM     20  H   UNL     1       3.051   2.423  22.739  0.00  0.00    +0.000 HD
ENDBRANCH  15  18
ENDBRANCH   1  17
BRANCH  12  21
ATOM     21  C   UNL     1       0.729   8.917  22.220  0.00  0.00    +0.000 C 
ATOM     22  C   UNL     1      -0.038   9.907  23.064  0.00  0.00    +0.000 C 
ATOM     23  C   UNL     1      -0.700   8.641  22.627  0.00  0.00    +0.000 C 
ENDBRANCH  12  21
BRANCH  10  24
ATOM     24  C   UNL     1       0.847  12.289  18.705  0.00  0.00    +0.000 C 
ATOM     25  O   UNL     1      -0.165  12.865  19.072  0.00  0.00    +0.000 OA
BRANCH  24  26
ATOM     26  O   UNL     1       1.756  12.876  17.894  0.00  0.00    +0.000 OA
ATOM     27  H   UNL     1       1.923  12.386  17.052  0.00  0.00    +0.000 HD
ENDBRANCH  24  26
ENDBRANCH  10  24
TORSDOF 5
ENDMDL
MODEL 7
REMARK VINA RESULT:      -7.6      1.500      1.872
REMARK  Name = 
REMARK  6 active torsions:
REMARK  status: ('A' for Active; 'I' for Inactive)
REMARK    1  A    between atoms: C_1  and  C_2
REMARK    2  A    between atoms: C_3  and  N_4
REMARK    3  A    between atoms: N_6  and  C_7
REMARK    4  A    between atoms: C_16  and  C_17
REMARK    5  A    between atoms: C_17  and  O_19
REMARK    6  A    between atoms: N_21  and  C_22
REMARK                            x       y       z     vdW  Elec       q    Type
REMARK                         _______ _______ _______ _____ _____    ______ ____
ROOT
ATOM      1  C   UNL     1       2.159   7.814  19.294  0.00  0.00    +0.000 A 
ATOM      2  C   UNL     1       2.586   6.476  19.384  0.00  0.00    +0.000 A 
ATOM      3  C   UNL     1       3.453   5.906  18.436  0.00  0.00    +0.000 A 
ATOM      4  C   UNL     1       3.917   6.728  17.393  0.00  0.00    +0.000 A 
ATOM      5  C   UNL     1       3.483   8.046  17.259  0.00  0.00    +0.000 A 
ATOM      6  C   UNL     1       2.609   8.571  18.202  0.00  0.00    +0.000 A 
ATOM      7  F   UNL     1       2.214   9.843  18.046  0.00  0.00    +0.000 F 
ATOM      8  C   UNL     1       4.905   6.192  16.429  0.00  0.00    +0.000 A 
ATOM      9  O   UNL     1       5.309   6.866  15.485  0.00  0.00    +0.000 OA
ATOM     10  C   UNL     1       5.432   4.830  16.644  0.00  0.00    +0.000 A 
ATOM     11  C   UNL     1       4.885   4.117  17.643  0.00  0.00    +0.000 A 
ATOM     12  N   UNL     1       3.878   4.548  18.489  0.00  0.00    +0.000 N 
ENDROOT
BRANCH   1  17
ATOM     13  C   UNL     1      -0.427   9.931  19.531  0.00  0.00    +0.000 C 
ATOM     14  C   UNL     1       0.751   9.667  20.458  0.00  0.00    +0.000 C 
ATOM     15  C   UNL     1       0.356   9.212  21.886  0.00  0.00    +0.000 C 
ATOM     16  C   UNL     1       0.669   7.779  21.406  0.00  0.00    +0.000 C 
ATOM     17  N   UNL     1       1.307   8.358  20.266  0.00  0.00    +0.000 N 
BRANCH  15  18
ATOM     18  N   UNL     1       1.394   9.655  22.840  0.00  0.00    +0.000 NA
ATOM     19  H   UNL     1       2.109  10.236  22.394  0.00  0.00    +0.000 HD
ATOM     20  H   UNL     1       1.905   8.883  23.266  0.00  0.00    +0.000 HD
ENDBRANCH  15  18
ENDBRANCH   1  17
BRANCH  12  21
ATOM     21  C   UNL     1       3.325   3.584  19.460  0.00  0.00    +0.000 C 
ATOM     22  C   UNL     1       3.117   2.128  19.118  0.00  0.00    +0.000 C 
ATOM     23  C   UNL     1       4.192   2.513  20.082  0.00  0.00    +0.000 C 
ENDBRANCH  12  21
BRANCH  10  24
ATOM     24  C   UNL     1       6.502   4.228  15.823  0.00  0.00    +0.000 C 
ATOM     25  O   UNL     1       6.293   3.620  14.785  0.00  0.00    +0.000 OA
BRANCH  24  26
ATOM     26  O   UNL     1       7.748   4.398  16.320  0.00  0.00    +0.000 OA
ATOM     27  H   UNL     1       7.788   4.442  17.307  0.00  0.00    +0.000 HD
ENDBRANCH  24  26
ENDBRANCH  10  24
TORSDOF 5
ENDMDL
MODEL 8
REMARK VINA RESULT:      -7.6      0.843      1.315
REMARK  Name = 
REMARK  6 active torsions:
REMARK  status: ('A' for Active; 'I' for Inactive)
REMARK    1  A    between atoms: C_1  and  C_2
REMARK    2  A    between atoms: C_3  and  N_4
REMARK    3  A    between atoms: N_6  and  C_7
REMARK    4  A    between atoms: C_16  and  C_17
REMARK    5  A    between atoms: C_17  and  O_19
REMARK    6  A    between atoms: N_21  and  C_22
REMARK                            x       y       z     vdW  Elec       q    Type
REMARK                         _______ _______ _______ _____ _____    ______ ____
ROOT
ATOM      1  C   UNL     1       1.498   8.928  19.567  0.00  0.00    +0.000 A 
ATOM      2  C   UNL     1       1.777   7.626  20.022  0.00  0.00    +0.000 A 
ATOM      3  C   UNL     1       2.606   6.748  19.302  0.00  0.00    +0.000 A 
ATOM      4  C   UNL     1       3.185   7.220  18.111  0.00  0.00    +0.000 A 
ATOM      5  C   UNL     1       2.898   8.492  17.618  0.00  0.00    +0.000 A 
ATOM      6  C   UNL     1       2.057   9.327  18.343  0.00  0.00    +0.000 A 
ATOM      7  F   UNL     1       1.805  10.545  17.843  0.00  0.00    +0.000 F 
ATOM      8  C   UNL     1       4.137   6.359  17.373  0.00  0.00    +0.000 A 
ATOM      9  O   UNL     1       4.638   6.721  16.311  0.00  0.00    +0.000 OA
ATOM     10  C   UNL     1       4.510   5.057  17.961  0.00  0.00    +0.000 A 
ATOM     11  C   UNL     1       3.861   4.686  19.077  0.00  0.00    +0.000 A 
ATOM     12  N   UNL     1       2.881   5.417  19.727  0.00  0.00    +0.000 N 
ENDROOT
BRANCH   1  17
ATOM     13  C   UNL     1      -0.391   8.892  22.334  0.00  0.00    +0.000 C 
ATOM     14  C   UNL     1      -0.568   9.601  20.999  0.00  0.00    +0.000 C 
ATOM     15  C   UNL     1      -0.661  11.146  21.099  0.00  0.00    +0.000 C 
ATOM     16  C   UNL     1       0.826  11.160  20.683  0.00  0.00    +0.000 C 
ATOM     17  N   UNL     1       0.680   9.787  20.316  0.00  0.00    +0.000 N 
BRANCH  15  18
ATOM     18  N   UNL     1      -1.493  11.654  19.988  0.00  0.00    +0.000 NA
ATOM     19  H   UNL     1      -1.327  12.647  19.802  0.00  0.00    +0.000 HD
ATOM     20  H   UNL     1      -2.493  11.578  20.168  0.00  0.00    +0.000 HD
ENDBRANCH  15  18
ENDBRANCH   1  17
BRANCH  12  21
ATOM     21  C   UNL     1       2.201   4.798  20.880  0.00  0.00    +0.000 C 
ATOM     22  C   UNL     1       1.112   3.766  20.712  0.00  0.00    +0.000 C 
ATOM     23  C   UNL     1       2.443   3.352  21.249  0.00  0.00    +0.000 C 
ENDBRANCH  12  21
BRANCH  10  24
ATOM     24  C   UNL     1       5.534   4.162  17.383  0.00  0.00    +0.000 C 
ATOM     25  O   UNL     1       5.394   3.578  16.321  0.00  0.00    +0.000 OA
BRANCH  24  26
ATOM     26  O   UNL     1       6.649   4.033  18.136  0.00  0.00    +0.000 OA
ATOM     27  H   UNL     1       7.033   3.122  18.139  0.00  0.00    +0.000 HD
ENDBRANCH  24  26
ENDBRANCH  10  24
TORSDOF 5
ENDMDL
MODEL 9
REMARK VINA RESULT:      -7.2      2.194      3.591
REMARK  Name = 
REMARK  6 active torsions:
REMARK  status: ('A' for Active; 'I' for Inactive)
REMARK    1  A    between atoms: C_1  and  C_2
REMARK    2  A    between atoms: C_3  and  N_4
REMARK    3  A    between atoms: N_6  and  C_7
REMARK    4  A    between atoms: C_16  and  C_17
REMARK    5  A    between atoms: C_17  and  O_19
REMARK    6  A    between atoms: N_21  and  C_22
REMARK                            x       y       z     vdW  Elec       q    Type
REMARK                         _______ _______ _______ _____ _____    ______ ____
ROOT
ATOM      1  C   UNL     1       1.428   8.586  19.416  0.00  0.00    +0.000 A 
ATOM      2  C   UNL     1       2.353   7.968  18.554  0.00  0.00    +0.000 A 
ATOM      3  C   UNL     1       2.860   6.681  18.805  0.00  0.00    +0.000 A 
ATOM      4  C   UNL     1       2.390   6.001  19.942  0.00  0.00    +0.000 A 
ATOM      5  C   UNL     1       1.501   6.602  20.833  0.00  0.00    +0.000 A 
ATOM      6  C   UNL     1       1.036   7.883  20.566  0.00  0.00    +0.000 A 
ATOM      7  F   UNL     1       0.179   8.430  21.440  0.00  0.00    +0.000 F 
ATOM      8  C   UNL     1       2.829   4.609  20.190  0.00  0.00    +0.000 A 
ATOM      9  O   UNL     1       2.468   3.992  21.190  0.00  0.00    +0.000 OA
ATOM     10  C   UNL     1       3.687   3.951  19.186  0.00  0.00    +0.000 A 
ATOM     11  C   UNL     1       4.114   4.709  18.162  0.00  0.00    +0.000 A 
ATOM     12  N   UNL     1       3.817   6.046  17.963  0.00  0.00    +0.000 N 
ENDROOT
BRANCH   1  17
ATOM     13  C   UNL     1       2.418  11.466  18.021  0.00  0.00    +0.000 C 
ATOM     14  C   UNL     1       1.498  11.178  19.199  0.00  0.00    +0.000 C 
ATOM     15  C   UNL     1       0.060  11.734  19.044  0.00  0.00    +0.000 C 
ATOM     16  C   UNL     1      -0.342  10.301  18.636  0.00  0.00    +0.000 C 
ATOM     17  N   UNL     1       0.927   9.864  19.129  0.00  0.00    +0.000 N 
BRANCH  15  18
ATOM     18  N   UNL     1      -0.487  12.043  20.381  0.00  0.00    +0.000 NA
ATOM     19  H   UNL     1      -0.219  12.976  20.705  0.00  0.00    +0.000 HD
ATOM     20  H   UNL     1      -0.161  11.405  21.106  0.00  0.00    +0.000 HD
ENDBRANCH  15  18
ENDBRANCH   1  17
BRANCH  12  21
ATOM     21  C   UNL     1       4.468   6.745  16.839  0.00  0.00    +0.000 C 
ATOM     22  C   UNL     1       5.970   6.863  16.726  0.00  0.00    +0.000 C 
ATOM     23  C   UNL     1       5.226   5.982  15.776  0.00  0.00    +0.000 C 
ENDBRANCH  12  21
BRANCH  10  24
ATOM     24  C   UNL     1       4.094   2.533  19.260  0.00  0.00    +0.000 C 
ATOM     25  O   UNL     1       3.607   1.656  18.565  0.00  0.00    +0.000 OA
BRANCH  24  26
ATOM     26  O   UNL     1       5.056   2.277  20.175  0.00  0.00    +0.000 OA
ATOM     27  H   UNL     1       5.499   3.085  20.536  0.00  0.00    +0.000 HD
ENDBRANCH  24  26
ENDBRANCH  10  24
TORSDOF 5
ENDMDL
