MODEL 1
REMARK VINA RESULT:      -7.8      0.000      0.000
REMARK  Name = 
REMARK  7 active torsions:
REMARK  status: ('A' for Active; 'I' for Inactive)
REMARK    1  A    between atoms: C_1  and  C_2
REMARK    2  A    between atoms: C_2  and  C_3
REMARK    3  A    between atoms: N_7  and  C_8
REMARK    4  A    between atoms: C_8  and  C_9
REMARK    5  A    between atoms: C_9  and  O_10
REMARK    6  A    between atoms: C_9  and  C_11
REMARK    7  A    between atoms: C_14  and  C_15
REMARK                            x       y       z     vdW  Elec       q    Type
REMARK                         _______ _______ _______ _____ _____    ______ ____
ROOT
ATOM      1  C   UNL     1       5.756   5.029  17.890  0.00  0.00    +0.000 C 
ENDROOT
BRANCH   1   2
ATOM      2  C   UNL     1       5.959   4.705  16.411  0.00  0.00    +0.000 A 
ATOM      3  C   UNL     1       4.995   3.958  15.714  0.00  0.00    +0.000 A 
ATOM      4  C   UNL     1       5.168   3.637  14.363  0.00  0.00    +0.000 A 
ATOM      5  C   UNL     1       6.306   4.065  13.668  0.00  0.00    +0.000 A 
ATOM      6  C   UNL     1       7.263   4.825  14.351  0.00  0.00    +0.000 A 
ATOM      7  C   UNL     1       7.089   5.142  15.701  0.00  0.00    +0.000 A 
BRANCH   5   8
ATOM      8  C   UNL     1       6.508   3.740  12.209  0.00  0.00    +0.000 C 
ATOM      9  F   UNL     1       5.355   3.749  11.482  0.00  0.00    +0.000 F 
ATOM     10  F   UNL     1       7.345   4.617  11.589  0.00  0.00    +0.000 F 
ATOM     11  F   UNL     1       7.055   2.507  12.020  0.00  0.00    +0.000 F 
ENDBRANCH   5   8
ENDBRANCH   1   2
BRANCH   1  12
ATOM     12  O   UNL     1       6.500   4.103  18.689  0.00  0.00    +0.000 OA
ATOM     13  H   UNL     1       7.431   4.378  18.634  0.00  0.00    +0.000 HD
ENDBRANCH   1  12
BRANCH   1  14
ATOM     14  C   UNL     1       4.247   5.020  18.282  0.00  0.00    +0.000 C 
BRANCH  14  18
ATOM     15  C   UNL     1       1.432   3.074  21.178  0.00  0.00    +0.000 C 
ATOM     16  C   UNL     1       2.134   3.629  19.935  0.00  0.00    +0.000 C 
ATOM     17  C   UNL     1       2.586   5.109  20.056  0.00  0.00    +0.000 C 
ATOM     18  N   UNL     1       3.974   4.732  19.710  0.00  0.00    +0.000 NA
ATOM     19  C   UNL     1       3.652   3.309  19.939  0.00  0.00    +0.000 C 
BRANCH  16  20
ATOM     20  C   UNL     1       1.372   3.246  18.612  0.00  0.00    +0.000 C 
ATOM     21  N   UNL     1       0.905   1.960  18.552  0.00  0.00    +0.000 N 
ATOM     22  O   UNL     1       1.157   3.991  17.652  0.00  0.00    +0.000 OA
ATOM     23  H   UNL     1       1.078   1.268  19.267  0.00  0.00    +0.000 HD
ATOM     24  H   UNL     1       0.431   1.675  17.703  0.00  0.00    +0.000 HD
ENDBRANCH  16  20
ENDBRANCH  14  18
ENDBRANCH   1  14
TORSDOF 6
ENDMDL
MODEL 2
REMARK VINA RESULT:      -7.7      0.059      1.052
REMARK  Name = 
REMARK  7 active torsions:
REMARK  status: ('A' for Active; 'I' for Inactive)
REMARK    1  A    between atoms: C_1  and  C_2
REMARK    2  A    between atoms: C_2  and  C_3
REMARK    3  A    between atoms: N_7  and  C_8
REMARK    4  A    between atoms: C_8  and  C_9
REMARK    5  A    between atoms: C_9  and  O_10
REMARK    6  A    between atoms: C_9  and  C_11
REMARK    7  A    between atoms: C_14  and  C_15
REMARK                            x       y       z     vdW  Elec       q    Type
REMARK                         _______ _______ _______ _____ _____    ______ ____
ROOT
ATOM      1  C   UNL     1       5.724   5.023  17.849  0.00  0.00    +0.000 C 
ENDROOT
BRANCH   1   2
ATOM      2  C   UNL     1       5.929   4.686  16.373  0.00  0.00    +0.000 A 
ATOM      3  C   UNL     1       7.090   5.114  15.707  0.00  0.00    +0.000 A 
ATOM      4  C   UNL     1       7.290   4.830  14.351  0.00  0.00    +0.000 A 
ATOM      5  C   UNL     1       6.341   4.098  13.627  0.00  0.00    +0.000 A 
ATOM      6  C   UNL     1       5.190   3.653  14.289  0.00  0.00    +0.000 A 
ATOM      7  C   UNL     1       4.990   3.940  15.641  0.00  0.00    +0.000 A 
BRANCH   5   8
ATOM      8  C   UNL     1       6.542   3.771  12.169  0.00  0.00    +0.000 C 
ATOM      9  F   UNL     1       5.380   3.705  11.459  0.00  0.00    +0.000 F 
ATOM     10  F   UNL     1       7.317   4.689  11.528  0.00  0.00    +0.000 F 
ATOM     11  F   UNL     1       7.158   2.570  11.984  0.00  0.00    +0.000 F 
ENDBRANCH   5   8
ENDBRANCH   1   2
BRANCH   1  12
ATOM     12  O   UNL     1       6.477   4.112  18.657  0.00  0.00    +0.000 OA
ATOM     13  H   UNL     1       7.365   4.498  18.752  0.00  0.00    +0.000 HD
ENDBRANCH   1  12
BRANCH   1  14
ATOM     14  C   UNL     1       4.216   5.006  18.242  0.00  0.00    +0.000 C 
BRANCH  14  18
ATOM     15  C   UNL     1       1.416   3.070  21.158  0.00  0.00    +0.000 C 
ATOM     16  C   UNL     1       2.113   3.617  19.910  0.00  0.00    +0.000 C 
ATOM     17  C   UNL     1       2.557   5.101  20.018  0.00  0.00    +0.000 C 
ATOM     18  N   UNL     1       3.947   4.729  19.672  0.00  0.00    +0.000 NA
ATOM     19  C   UNL     1       3.633   3.306  19.915  0.00  0.00    +0.000 C 
BRANCH  16  20
ATOM     20  C   UNL     1       1.352   3.218  18.591  0.00  0.00    +0.000 C 
ATOM     21  N   UNL     1       0.891   1.929  18.544  0.00  0.00    +0.000 N 
ATOM     22  O   UNL     1       1.133   3.953  17.625  0.00  0.00    +0.000 OA
ATOM     23  H   UNL     1       1.067   1.245  19.265  0.00  0.00    +0.000 HD
ATOM     24  H   UNL     1       0.417   1.635  17.699  0.00  0.00    +0.000 HD
ENDBRANCH  16  20
ENDBRANCH  14  18
ENDBRANCH   1  14
TORSDOF 6
ENDMDL
MODEL 3
REMARK VINA RESULT:      -7.5      1.044      1.327
REMARK  Name = 
REMARK  7 active torsions:
REMARK  status: ('A' for Active; 'I' for Inactive)
REMARK    1  A    between atoms: C_1  and  C_2
REMARK    2  A    between atoms: C_2  and  C_3
REMARK    3  A    between atoms: N_7  and  C_8
REMARK    4  A    between atoms: C_8  and  C_9
REMARK    5  A    between atoms: C_9  and  O_10
REMARK    6  A    between atoms: C_9  and  C_11
REMARK    7  A    between atoms: C_14  and  C_15
REMARK                            x       y       z     vdW  Elec       q    Type
REMARK                         _______ _______ _______ _____ _____    ______ ____
ROOT
ATOM      1  C   UNL     1       6.168   4.978  18.039  0.00  0.00    +0.000 C 
ENDROOT
BRANCH   1   2
ATOM      2  C   UNL     1       6.219   4.651  16.548  0.00  0.00    +0.000 A 
ATOM      3  C   UNL     1       5.208   3.871  15.963  0.00  0.00    +0.000 A 
ATOM      4  C   UNL     1       5.243   3.546  14.602  0.00  0.00    +0.000 A 
ATOM      5  C   UNL     1       6.285   4.004  13.786  0.00  0.00    +0.000 A 
ATOM      6  C   UNL     1       7.287   4.797  14.358  0.00  0.00    +0.000 A 
ATOM      7  C   UNL     1       7.251   5.118  15.717  0.00  0.00    +0.000 A 
BRANCH   5   8
ATOM      8  C   UNL     1       6.337   3.675  12.314  0.00  0.00    +0.000 C 
ATOM      9  F   UNL     1       6.796   2.419  12.051  0.00  0.00    +0.000 F 
ATOM     10  F   UNL     1       5.117   3.759  11.716  0.00  0.00    +0.000 F 
ATOM     11  F   UNL     1       7.151   4.520  11.620  0.00  0.00    +0.000 F 
ENDBRANCH   5   8
ENDBRANCH   1   2
BRANCH   1  12
ATOM     12  O   UNL     1       7.476   4.843  18.604  0.00  0.00    +0.000 OA
ATOM     13  H   UNL     1       8.083   4.694  17.858  0.00  0.00    +0.000 HD
ENDBRANCH   1  12
BRANCH   1  14
ATOM     14  C   UNL     1       5.138   4.083  18.793  0.00  0.00    +0.000 C 
BRANCH  14  18
ATOM     15  C   UNL     1       0.862   3.965  20.134  0.00  0.00    +0.000 C 
ATOM     16  C   UNL     1       2.235   3.668  19.525  0.00  0.00    +0.000 C 
ATOM     17  C   UNL     1       2.824   4.822  18.670  0.00  0.00    +0.000 C 
ATOM     18  N   UNL     1       4.057   4.823  19.487  0.00  0.00    +0.000 NA
ATOM     19  C   UNL     1       3.387   3.997  20.512  0.00  0.00    +0.000 C 
BRANCH  16  20
ATOM     20  C   UNL     1       2.294   2.233  18.882  0.00  0.00    +0.000 C 
ATOM     21  N   UNL     1       1.081   1.679  18.566  0.00  0.00    +0.000 N 
ATOM     22  O   UNL     1       3.314   1.585  18.635  0.00  0.00    +0.000 OA
ATOM     23  H   UNL     1       0.195   2.114  18.777  0.00  0.00    +0.000 HD
ATOM     24  H   UNL     1       1.084   0.746  18.171  0.00  0.00    +0.000 HD
ENDBRANCH  16  20
ENDBRANCH  14  18
ENDBRANCH   1  14
TORSDOF 6
ENDMDL
MODEL 4
REMARK VINA RESULT:      -7.4      1.037      1.481
REMARK  Name = 
REMARK  7 active torsions:
REMARK  status: ('A' for Active; 'I' for Inactive)
REMARK    1  A    between atoms: C_1  and  C_2
REMARK    2  A    between atoms: C_2  and  C_3
REMARK    3  A    between atoms: N_7  and  C_8
REMARK    4  A    between atoms: C_8  and  C_9
REMARK    5  A    between atoms: C_9  and  O_10
REMARK    6  A    between atoms: C_9  and  C_11
REMARK    7  A    between atoms: C_14  and  C_15
REMARK                            x       y       z     vdW  Elec       q    Type
REMARK                         _______ _______ _______ _____ _____    ______ ____
ROOT
ATOM      1  C   UNL     1       6.175   4.981  18.034  0.00  0.00    +0.000 C 
ENDROOT
BRANCH   1   2
ATOM      2  C   UNL     1       6.207   4.630  16.548  0.00  0.00    +0.000 A 
ATOM      3  C   UNL     1       7.229   5.133  15.727  0.00  0.00    +0.000 A 
ATOM      4  C   UNL     1       7.268   4.836  14.359  0.00  0.00    +0.000 A 
ATOM      5  C   UNL     1       6.293   4.017  13.779  0.00  0.00    +0.000 A 
ATOM      6  C   UNL     1       5.280   3.497  14.595  0.00  0.00    +0.000 A 
ATOM      7  C   UNL     1       5.241   3.797  15.959  0.00  0.00    +0.000 A 
BRANCH   5   8
ATOM      8  C   UNL     1       6.322   3.675  12.310  0.00  0.00    +0.000 C 
ATOM      9  F   UNL     1       5.100   3.744  11.709  0.00  0.00    +0.000 F 
ATOM     10  F   UNL     1       7.134   4.502  11.596  0.00  0.00    +0.000 F 
ATOM     11  F   UNL     1       6.778   2.413  12.077  0.00  0.00    +0.000 F 
ENDBRANCH   5   8
ENDBRANCH   1   2
BRANCH   1  12
ATOM     12  O   UNL     1       7.499   4.900  18.574  0.00  0.00    +0.000 OA
ATOM     13  H   UNL     1       7.474   5.356  19.433  0.00  0.00    +0.000 HD
ENDBRANCH   1  12
BRANCH   1  14
ATOM     14  C   UNL     1       5.192   4.066  18.825  0.00  0.00    +0.000 C 
BRANCH  14  18
ATOM     15  C   UNL     1       0.870   3.901  20.002  0.00  0.00    +0.000 C 
ATOM     16  C   UNL     1       2.264   3.627  19.432  0.00  0.00    +0.000 C 
ATOM     17  C   UNL     1       2.884   4.813  18.647  0.00  0.00    +0.000 C 
ATOM     18  N   UNL     1       4.087   4.778  19.508  0.00  0.00    +0.000 NA
ATOM     19  C   UNL     1       3.379   3.913  20.473  0.00  0.00    +0.000 C 
BRANCH  16  20
ATOM     20  C   UNL     1       2.346   2.219  18.733  0.00  0.00    +0.000 C 
ATOM     21  N   UNL     1       1.155   1.553  18.609  0.00  0.00    +0.000 N 
ATOM     22  O   UNL     1       3.365   1.682  18.290  0.00  0.00    +0.000 OA
ATOM     23  H   UNL     1       0.282   1.892  18.986  0.00  0.00    +0.000 HD
ATOM     24  H   UNL     1       1.178   0.633  18.184  0.00  0.00    +0.000 HD
ENDBRANCH  16  20
ENDBRANCH  14  18
ENDBRANCH   1  14
TORSDOF 6
ENDMDL
MODEL 5
REMARK VINA RESULT:      -7.4      1.515      1.880
REMARK  Name = 
REMARK  7 active torsions:
REMARK  status: ('A' for Active; 'I' for Inactive)
REMARK    1  A    between atoms: C_1  and  C_2
REMARK    2  A    between atoms: C_2  and  C_3
REMARK    3  A    between atoms: N_7  and  C_8
REMARK    4  A    between atoms: C_8  and  C_9
REMARK    5  A    between atoms: C_9  and  O_10
REMARK    6  A    between atoms: C_9  and  C_11
REMARK    7  A    between atoms: C_14  and  C_15
REMARK                            x       y       z     vdW  Elec       q    Type
REMARK                         _______ _______ _______ _____ _____    ______ ____
ROOT
ATOM      1  C   UNL     1       6.359   4.955  17.959  0.00  0.00    +0.000 C 
ENDROOT
BRANCH   1   2
ATOM      2  C   UNL     1       6.372   4.633  16.466  0.00  0.00    +0.000 A 
ATOM      3  C   UNL     1       5.493   3.669  15.946  0.00  0.00    +0.000 A 
ATOM      4  C   UNL     1       5.499   3.346  14.584  0.00  0.00    +0.000 A 
ATOM      5  C   UNL     1       6.376   3.989  13.702  0.00  0.00    +0.000 A 
ATOM      6  C   UNL     1       7.243   4.964  14.210  0.00  0.00    +0.000 A 
ATOM      7  C   UNL     1       7.238   5.282  15.570  0.00  0.00    +0.000 A 
BRANCH   5   8
ATOM      8  C   UNL     1       6.392   3.665  12.229  0.00  0.00    +0.000 C 
ATOM      9  F   UNL     1       7.212   4.475  11.500  0.00  0.00    +0.000 F 
ATOM     10  F   UNL     1       6.807   2.393  11.977  0.00  0.00    +0.000 F 
ATOM     11  F   UNL     1       5.160   3.776  11.658  0.00  0.00    +0.000 F 
ENDBRANCH   5   8
ENDBRANCH   1   2
BRANCH   1  12
ATOM     12  O   UNL     1       7.627   4.619  18.532  0.00  0.00    +0.000 OA
ATOM     13  H   UNL     1       8.242   5.327  18.275  0.00  0.00    +0.000 HD
ENDBRANCH   1  12
BRANCH   1  14
ATOM     14  C   UNL     1       5.199   4.224  18.699  0.00  0.00    +0.000 C 
BRANCH  14  18
ATOM     15  C   UNL     1       0.993   4.320  20.246  0.00  0.00    +0.000 C 
ATOM     16  C   UNL     1       2.459   3.992  19.954  0.00  0.00    +0.000 C 
ATOM     17  C   UNL     1       2.805   3.873  18.445  0.00  0.00    +0.000 C 
ATOM     18  N   UNL     1       3.876   4.883  18.593  0.00  0.00    +0.000 NA
ATOM     19  C   UNL     1       3.339   5.270  19.914  0.00  0.00    +0.000 C 
BRANCH  16  20
ATOM     20  C   UNL     1       2.997   2.837  20.878  0.00  0.00    +0.000 C 
ATOM     21  N   UNL     1       2.248   2.580  21.996  0.00  0.00    +0.000 N 
ATOM     22  O   UNL     1       4.006   2.154  20.681  0.00  0.00    +0.000 OA
ATOM     23  H   UNL     1       1.438   3.120  22.263  0.00  0.00    +0.000 HD
ATOM     24  H   UNL     1       2.580   1.858  22.623  0.00  0.00    +0.000 HD
ENDBRANCH  16  20
ENDBRANCH  14  18
ENDBRANCH   1  14
TORSDOF 6
ENDMDL
MODEL 6
REMARK VINA RESULT:      -7.4      0.634      1.025
REMARK  Name = 
REMARK  7 active torsions:
REMARK  status: ('A' for Active; 'I' for Inactive)
REMARK    1  A    between atoms: C_1  and  C_2
REMARK    2  A    between atoms: C_2  and  C_3
REMARK    3  A    between atoms: N_7  and  C_8
REMARK    4  A    between atoms: C_8  and  C_9
REMARK    5  A    between atoms: C_9  and  O_10
REMARK    6  A    between atoms: C_9  and  C_11
REMARK    7  A    between atoms: C_14  and  C_15
REMARK                            x       y       z     vdW  Elec       q    Type
REMARK                         _______ _______ _______ _____ _____    ______ ____
ROOT
ATOM      1  C   UNL     1       5.829   4.956  17.787  0.00  0.00    +0.000 C 
ENDROOT
BRANCH   1   2
ATOM      2  C   UNL     1       6.032   4.664  16.301  0.00  0.00    +0.000 A 
ATOM      3  C   UNL     1       5.047   3.971  15.578  0.00  0.00    +0.000 A 
ATOM      4  C   UNL     1       5.219   3.679  14.220  0.00  0.00    +0.000 A 
ATOM      5  C   UNL     1       6.377   4.084  13.545  0.00  0.00    +0.000 A 
ATOM      6  C   UNL     1       7.356   4.791  14.254  0.00  0.00    +0.000 A 
ATOM      7  C   UNL     1       7.183   5.078  15.610  0.00  0.00    +0.000 A 
BRANCH   5   8
ATOM      8  C   UNL     1       6.579   3.790  12.079  0.00  0.00    +0.000 C 
ATOM      9  F   UNL     1       7.342   4.719  11.436  0.00  0.00    +0.000 F 
ATOM     10  F   UNL     1       7.191   2.593  11.865  0.00  0.00    +0.000 F 
ATOM     11  F   UNL     1       5.404   3.736  11.391  0.00  0.00    +0.000 F 
ENDBRANCH   5   8
ENDBRANCH   1   2
BRANCH   1  12
ATOM     12  O   UNL     1       6.761   4.189  18.557  0.00  0.00    +0.000 OA
ATOM     13  H   UNL     1       6.367   4.082  19.439  0.00  0.00    +0.000 HD
ENDBRANCH   1  12
BRANCH   1  14
ATOM     14  C   UNL     1       4.364   4.672  18.237  0.00  0.00    +0.000 C 
BRANCH  14  18
ATOM     15  C   UNL     1       1.971   2.553  21.380  0.00  0.00    +0.000 C 
ATOM     16  C   UNL     1       2.538   3.114  20.073  0.00  0.00    +0.000 C 
ATOM     17  C   UNL     1       2.776   4.648  20.079  0.00  0.00    +0.000 C 
ATOM     18  N   UNL     1       4.190   4.448  19.691  0.00  0.00    +0.000 NA
ATOM     19  C   UNL     1       4.086   3.013  20.025  0.00  0.00    +0.000 C 
BRANCH  16  20
ATOM     20  C   UNL     1       1.790   2.537  18.814  0.00  0.00    +0.000 C 
ATOM     21  N   UNL     1       0.423   2.514  18.901  0.00  0.00    +0.000 N 
ATOM     22  O   UNL     1       2.317   2.123  17.779  0.00  0.00    +0.000 OA
ATOM     23  H   UNL     1      -0.090   2.785  19.727  0.00  0.00    +0.000 HD
ATOM     24  H   UNL     1      -0.087   2.126  18.116  0.00  0.00    +0.000 HD
ENDBRANCH  16  20
ENDBRANCH  14  18
ENDBRANCH   1  14
TORSDOF 6
ENDMDL
MODEL 7
REMARK VINA RESULT:      -7.2      1.453      2.088
REMARK  Name = 
REMARK  7 active torsions:
REMARK  status: ('A' for Active; 'I' for Inactive)
REMARK    1  A    between atoms: C_1  and  C_2
REMARK    2  A    between atoms: C_2  and  C_3
REMARK    3  A    between atoms: N_7  and  C_8
REMARK    4  A    between atoms: C_8  and  C_9
REMARK    5  A    between atoms: C_9  and  O_10
REMARK    6  A    between atoms: C_9  and  C_11
REMARK    7  A    between atoms: C_14  and  C_15
REMARK                            x       y       z     vdW  Elec       q    Type
REMARK                         _______ _______ _______ _____ _____    ______ ____
ROOT
ATOM      1  C   UNL     1       6.032   5.434  17.893  0.00  0.00    +0.000 C 
ENDROOT
BRANCH   1   2
ATOM      2  C   UNL     1       6.125   4.943  16.450  0.00  0.00    +0.000 A 
ATOM      3  C   UNL     1       7.119   5.450  15.596  0.00  0.00    +0.000 A 
ATOM      4  C   UNL     1       7.213   5.027  14.265  0.00  0.00    +0.000 A 
ATOM      5  C   UNL     1       6.323   4.074  13.755  0.00  0.00    +0.000 A 
ATOM      6  C   UNL     1       5.341   3.551  14.605  0.00  0.00    +0.000 A 
ATOM      7  C   UNL     1       5.247   3.977  15.932  0.00  0.00    +0.000 A 
BRANCH   5   8
ATOM      8  C   UNL     1       6.413   3.595  12.328  0.00  0.00    +0.000 C 
ATOM      9  F   UNL     1       6.811   2.296  12.212  0.00  0.00    +0.000 F 
ATOM     10  F   UNL     1       5.223   3.679  11.672  0.00  0.00    +0.000 F 
ATOM     11  F   UNL     1       7.298   4.321  11.589  0.00  0.00    +0.000 F 
ENDBRANCH   5   8
ENDBRANCH   1   2
BRANCH   1  12
ATOM     12  O   UNL     1       7.326   5.379  18.502  0.00  0.00    +0.000 OA
ATOM     13  H   UNL     1       7.547   6.291  18.761  0.00  0.00    +0.000 HD
ENDBRANCH   1  12
BRANCH   1  14
ATOM     14  C   UNL     1       4.991   4.614  18.716  0.00  0.00    +0.000 C 
BRANCH  14  18
ATOM     15  C   UNL     1       0.856   4.207  20.397  0.00  0.00    +0.000 C 
ATOM     16  C   UNL     1       2.327   4.024  20.014  0.00  0.00    +0.000 C 
ATOM     17  C   UNL     1       2.617   4.139  18.494  0.00  0.00    +0.000 C 
ATOM     18  N   UNL     1       3.627   5.190  18.747  0.00  0.00    +0.000 NA
ATOM     19  C   UNL     1       3.122   5.352  20.126  0.00  0.00    +0.000 C 
BRANCH  16  20
ATOM     20  C   UNL     1       2.975   2.792  20.749  0.00  0.00    +0.000 C 
ATOM     21  N   UNL     1       2.370   2.420  21.921  0.00  0.00    +0.000 N 
ATOM     22  O   UNL     1       3.951   2.143  20.364  0.00  0.00    +0.000 OA
ATOM     23  H   UNL     1       1.600   2.922  22.337  0.00  0.00    +0.000 HD
ATOM     24  H   UNL     1       2.778   1.645  22.430  0.00  0.00    +0.000 HD
ENDBRANCH  16  20
ENDBRANCH  14  18
ENDBRANCH   1  14
TORSDOF 6
ENDMDL
MODEL 8
REMARK VINA RESULT:      -7.1      1.701      2.150
REMARK  Name = 
REMARK  7 active torsions:
REMARK  status: ('A' for Active; 'I' for Inactive)
REMARK    1  A    between atoms: C_1  and  C_2
REMARK    2  A    between atoms: C_2  and  C_3
REMARK    3  A    between atoms: N_7  and  C_8
REMARK    4  A    between atoms: C_8  and  C_9
REMARK    5  A    between atoms: C_9  and  O_10
REMARK    6  A    between atoms: C_9  and  C_11
REMARK    7  A    between atoms: C_14  and  C_15
REMARK                            x       y       z     vdW  Elec       q    Type
REMARK                         _______ _______ _______ _____ _____    ______ ____
ROOT
ATOM      1  C   UNL     1       5.665   5.879  18.270  0.00  0.00    +0.000 C 
ENDROOT
BRANCH   1   2
ATOM      2  C   UNL     1       5.723   5.327  16.847  0.00  0.00    +0.000 A 
ATOM      3  C   UNL     1       6.235   4.041  16.611  0.00  0.00    +0.000 A 
ATOM      4  C   UNL     1       6.312   3.521  15.313  0.00  0.00    +0.000 A 
ATOM      5  C   UNL     1       5.866   4.270  14.217  0.00  0.00    +0.000 A 
ATOM      6  C   UNL     1       5.337   5.546  14.447  0.00  0.00    +0.000 A 
ATOM      7  C   UNL     1       5.264   6.064  15.743  0.00  0.00    +0.000 A 
BRANCH   5   8
ATOM      8  C   UNL     1       5.928   3.726  12.812  0.00  0.00    +0.000 C 
ATOM      9  F   UNL     1       6.882   4.318  12.039  0.00  0.00    +0.000 F 
ATOM     10  F   UNL     1       6.198   2.392  12.779  0.00  0.00    +0.000 F 
ATOM     11  F   UNL     1       4.754   3.885  12.139  0.00  0.00    +0.000 F 
ENDBRANCH   5   8
ENDBRANCH   1   2
BRANCH   1  12
ATOM     12  O   UNL     1       6.976   5.857  18.846  0.00  0.00    +0.000 OA
ATOM     13  H   UNL     1       6.860   5.628  19.784  0.00  0.00    +0.000 HD
ENDBRANCH   1  12
BRANCH   1  14
ATOM     14  C   UNL     1       4.652   5.092  19.156  0.00  0.00    +0.000 C 
BRANCH  14  18
ATOM     15  C   UNL     1       0.723   2.955  19.454  0.00  0.00    +0.000 C 
ATOM     16  C   UNL     1       2.159   3.452  19.636  0.00  0.00    +0.000 C 
ATOM     17  C   UNL     1       2.988   3.524  18.326  0.00  0.00    +0.000 C 
ATOM     18  N   UNL     1       3.296   4.949  18.577  0.00  0.00    +0.000 NA
ATOM     19  C   UNL     1       2.241   5.002  19.610  0.00  0.00    +0.000 C 
BRANCH  16  20
ATOM     20  C   UNL     1       2.866   2.765  20.863  0.00  0.00    +0.000 C 
ATOM     21  N   UNL     1       2.148   2.761  22.030  0.00  0.00    +0.000 N 
ATOM     22  O   UNL     1       3.980   2.235  20.861  0.00  0.00    +0.000 OA
ATOM     23  H   UNL     1       1.252   3.215  22.138  0.00  0.00    +0.000 HD
ATOM     24  H   UNL     1       2.585   2.347  22.845  0.00  0.00    +0.000 HD
ENDBRANCH  16  20
ENDBRANCH  14  18
ENDBRANCH   1  14
TORSDOF 6
ENDMDL
MODEL 9
REMARK VINA RESULT:      -7.1      1.703      2.113
REMARK  Name = 
REMARK  7 active torsions:
REMARK  status: ('A' for Active; 'I' for Inactive)
REMARK    1  A    between atoms: C_1  and  C_2
REMARK    2  A    between atoms: C_2  and  C_3
REMARK    3  A    between atoms: N_7  and  C_8
REMARK    4  A    between atoms: C_8  and  C_9
REMARK    5  A    between atoms: C_9  and  O_10
REMARK    6  A    between atoms: C_9  and  C_11
REMARK    7  A    between atoms: C_14  and  C_15
REMARK                            x       y       z     vdW  Elec       q    Type
REMARK                         _______ _______ _______ _____ _____    ______ ____
ROOT
ATOM      1  C   UNL     1       5.942   5.988  18.345  0.00  0.00    +0.000 C 
ENDROOT
BRANCH   1   2
ATOM      2  C   UNL     1       5.971   5.409  16.931  0.00  0.00    +0.000 A 
ATOM      3  C   UNL     1       5.267   6.045  15.895  0.00  0.00    +0.000 A 
ATOM      4  C   UNL     1       5.267   5.524  14.596  0.00  0.00    +0.000 A 
ATOM      5  C   UNL     1       5.983   4.359  14.295  0.00  0.00    +0.000 A 
ATOM      6  C   UNL     1       6.702   3.729  15.319  0.00  0.00    +0.000 A 
ATOM      7  C   UNL     1       6.698   4.249  16.615  0.00  0.00    +0.000 A 
BRANCH   5   8
ATOM      8  C   UNL     1       6.006   3.786  12.900  0.00  0.00    +0.000 C 
ATOM      9  F   UNL     1       6.943   4.357  12.091  0.00  0.00    +0.000 F 
ATOM     10  F   UNL     1       6.269   2.450  12.888  0.00  0.00    +0.000 F 
ATOM     11  F   UNL     1       4.816   3.937  12.254  0.00  0.00    +0.000 F 
ENDBRANCH   5   8
ENDBRANCH   1   2
BRANCH   1  12
ATOM     12  O   UNL     1       7.262   5.965  18.898  0.00  0.00    +0.000 OA
ATOM     13  H   UNL     1       7.618   6.865  18.798  0.00  0.00    +0.000 HD
ENDBRANCH   1  12
BRANCH   1  14
ATOM     14  C   UNL     1       4.938   5.224  19.261  0.00  0.00    +0.000 C 
BRANCH  14  18
ATOM     15  C   UNL     1       0.784   3.632  19.806  0.00  0.00    +0.000 C 
ATOM     16  C   UNL     1       2.294   3.877  19.834  0.00  0.00    +0.000 C 
ATOM     17  C   UNL     1       2.936   4.114  18.441  0.00  0.00    +0.000 C 
ATOM     18  N   UNL     1       3.511   5.396  18.903  0.00  0.00    +0.000 NA
ATOM     19  C   UNL     1       2.632   5.370  20.091  0.00  0.00    +0.000 C 
BRANCH  16  20
ATOM     20  C   UNL     1       3.037   2.852  20.771  0.00  0.00    +0.000 C 
ATOM     21  N   UNL     1       2.405   2.570  21.953  0.00  0.00    +0.000 N 
ATOM     22  O   UNL     1       4.109   2.289  20.532  0.00  0.00    +0.000 OA
ATOM     23  H   UNL     1       1.553   3.020  22.254  0.00  0.00    +0.000 HD
ATOM     24  H   UNL     1       2.869   1.932  22.588  0.00  0.00    +0.000 HD
ENDBRANCH  16  20
ENDBRANCH  14  18
ENDBRANCH   1  14
TORSDOF 6
ENDMDL
