MODEL 1
REMARK VINA RESULT:      -9.0      0.000      0.000
REMARK  Name = 
REMARK  5 active torsions:
REMARK  status: ('A' for Active; 'I' for Inactive)
REMARK    1  A    between atoms: C_1  and  C_2
REMARK    2  A    between atoms: C_2  and  C_3
REMARK    3  A    between atoms: C_2  and  N_9
REMARK    4  A    between atoms: C_17  and  N_18
REMARK    5  A    between atoms: N_21  and  C_22
REMARK                            x       y       z     vdW  Elec       q    Type
REMARK                         _______ _______ _______ _____ _____    ______ ____
ROOT
ATOM      1  N   UNL     1       3.578   5.045  19.152  0.00  0.00    +0.000 NA
ATOM      2  C   UNL     1       2.096   5.055  19.222  0.00  0.00    +0.000 C 
ATOM      3  C   UNL     1       1.606   6.144  20.245  0.00  0.00    +0.000 C 
ATOM      4  N   UNL     1       2.137   7.474  19.892  0.00  0.00    +0.000 N 
ATOM      5  C   UNL     1       2.948   7.463  18.768  0.00  0.00    +0.000 A 
ATOM      6  N   UNL     1       2.275   8.087  17.803  0.00  0.00    +0.000 NA
ATOM      7  C   UNL     1       1.263   8.816  18.445  0.00  0.00    +0.000 A 
ATOM      8  C   UNL     1       0.202   9.665  17.985  0.00  0.00    +0.000 A 
ATOM      9  C   UNL     1      -0.555  10.450  18.889  0.00  0.00    +0.000 A 
ATOM     10  C   UNL     1      -0.131  10.450  20.233  0.00  0.00    +0.000 A 
ATOM     11  C   UNL     1       0.803   9.514  20.737  0.00  0.00    +0.000 A 
ATOM     12  C   UNL     1       1.390   8.636  19.812  0.00  0.00    +0.000 A 
ATOM     13  C   UNL     1       4.052   6.390  18.715  0.00  0.00    +0.000 C 
ENDROOT
BRANCH   9  14
ATOM     14  N   UNL     1      -1.729  11.243  18.581  0.00  0.00    +0.000 N 
ATOM     15  C   UNL     1      -2.955  10.824  18.070  0.00  0.00    +0.000 C 
ATOM     16  O   UNL     1      -3.200   9.692  17.670  0.00  0.00    +0.000 OA
ATOM     17  N   UNL     1      -3.931  11.837  18.049  0.00  0.00    +0.000 N 
ATOM     18  H   UNL     1      -1.672  12.218  18.832  0.00  0.00    +0.000 HD
ATOM     19  H   UNL     1      -3.763  12.703  18.543  0.00  0.00    +0.000 HD
BRANCH  17  20
ATOM     20  C   UNL     1      -5.305  11.602  17.525  0.00  0.00    +0.000 C 
ATOM     21  C   UNL     1      -6.197  10.770  18.465  0.00  0.00    +0.000 C 
ATOM     22  C   UNL     1      -6.737  11.560  19.658  0.00  0.00    +0.000 C 
ATOM     23  C   UNL     1      -7.493  12.815  19.236  0.00  0.00    +0.000 C 
ATOM     24  C   UNL     1      -6.675  13.676  18.280  0.00  0.00    +0.000 C 
ATOM     25  C   UNL     1      -6.094  12.872  17.113  0.00  0.00    +0.000 C 
ENDBRANCH  17  20
ENDBRANCH   9  14
BRANCH   1  27
ATOM     26  C   UNL     1       3.126   2.811  17.935  0.00  0.00    +0.000 C 
ATOM     27  C   UNL     1       4.138   3.844  18.463  0.00  0.00    +0.000 C 
BRANCH  27  28
ATOM     28  C   UNL     1       5.183   4.104  17.352  0.00  0.00    +0.000 A 
ATOM     29  C   UNL     1       6.510   4.462  17.640  0.00  0.00    +0.000 A 
ATOM     30  C   UNL     1       7.394   4.862  16.628  0.00  0.00    +0.000 A 
ATOM     31  C   UNL     1       6.975   4.920  15.304  0.00  0.00    +0.000 A 
ATOM     32  C   UNL     1       5.660   4.584  14.988  0.00  0.00    +0.000 A 
ATOM     33  C   UNL     1       4.776   4.181  16.001  0.00  0.00    +0.000 A 
ENDBRANCH  27  28
ENDBRANCH   1  27
TORSDOF 4
ENDMDL
MODEL 2
REMARK VINA RESULT:      -8.4      1.363      2.028
REMARK  Name = 
REMARK  5 active torsions:
REMARK  status: ('A' for Active; 'I' for Inactive)
REMARK    1  A    between atoms: C_1  and  C_2
REMARK    2  A    between atoms: C_2  and  C_3
REMARK    3  A    between atoms: C_2  and  N_9
REMARK    4  A    between atoms: C_17  and  N_18
REMARK    5  A    between atoms: N_21  and  C_22
REMARK                            x       y       z     vdW  Elec       q    Type
REMARK                         _______ _______ _______ _____ _____    ______ ____
ROOT
ATOM      1  N   UNL     1       3.085   6.717  18.877  0.00  0.00    +0.000 NA
ATOM      2  C   UNL     1       1.874   6.799  19.730  0.00  0.00    +0.000 C 
ATOM      3  C   UNL     1       1.755   8.231  20.371  0.00  0.00    +0.000 C 
ATOM      4  N   UNL     1       1.753   9.276  19.329  0.00  0.00    +0.000 N 
ATOM      5  C   UNL     1       1.870   8.770  18.043  0.00  0.00    +0.000 A 
ATOM      6  N   UNL     1       0.692   8.955  17.450  0.00  0.00    +0.000 NA
ATOM      7  C   UNL     1       0.016   9.915  18.218  0.00  0.00    +0.000 A 
ATOM      8  C   UNL     1      -1.279  10.526  18.134  0.00  0.00    +0.000 A 
ATOM      9  C   UNL     1      -1.620  11.639  18.941  0.00  0.00    +0.000 A 
ATOM     10  C   UNL     1      -0.587  12.187  19.727  0.00  0.00    +0.000 A 
ATOM     11  C   UNL     1       0.641  11.521  19.945  0.00  0.00    +0.000 A 
ATOM     12  C   UNL     1       0.848  10.320  19.249  0.00  0.00    +0.000 A 
ATOM     13  C   UNL     1       2.989   7.741  17.798  0.00  0.00    +0.000 C 
ENDROOT
BRANCH   9  14
ATOM     14  N   UNL     1      -2.922  12.265  19.054  0.00  0.00    +0.000 N 
ATOM     15  C   UNL     1      -4.065  12.047  18.288  0.00  0.00    +0.000 C 
ATOM     16  O   UNL     1      -4.113  11.353  17.279  0.00  0.00    +0.000 OA
ATOM     17  N   UNL     1      -5.206  12.708  18.780  0.00  0.00    +0.000 N 
ATOM     18  H   UNL     1      -3.035  12.895  19.835  0.00  0.00    +0.000 HD
ATOM     19  H   UNL     1      -5.185  13.123  19.702  0.00  0.00    +0.000 HD
BRANCH  17  20
ATOM     20  C   UNL     1      -6.527  12.619  18.098  0.00  0.00    +0.000 C 
ATOM     21  C   UNL     1      -7.712  13.066  18.974  0.00  0.00    +0.000 C 
ATOM     22  C   UNL     1      -7.834  14.584  19.115  0.00  0.00    +0.000 C 
ATOM     23  C   UNL     1      -7.915  15.294  17.768  0.00  0.00    +0.000 C 
ATOM     24  C   UNL     1      -6.781  14.877  16.837  0.00  0.00    +0.000 C 
ATOM     25  C   UNL     1      -6.630  13.356  16.737  0.00  0.00    +0.000 C 
ENDBRANCH  17  20
ENDBRANCH   9  14
BRANCH   1  27
ATOM     26  C   UNL     1       2.393   4.509  17.726  0.00  0.00    +0.000 C 
ATOM     27  C   UNL     1       3.453   5.322  18.492  0.00  0.00    +0.000 C 
BRANCH  27  28
ATOM     28  C   UNL     1       4.812   5.134  17.776  0.00  0.00    +0.000 A 
ATOM     29  C   UNL     1       4.910   4.596  16.484  0.00  0.00    +0.000 A 
ATOM     30  C   UNL     1       6.152   4.271  15.919  0.00  0.00    +0.000 A 
ATOM     31  C   UNL     1       7.328   4.470  16.635  0.00  0.00    +0.000 A 
ATOM     32  C   UNL     1       7.263   4.990  17.926  0.00  0.00    +0.000 A 
ATOM     33  C   UNL     1       6.019   5.317  18.489  0.00  0.00    +0.000 A 
ENDBRANCH  27  28
ENDBRANCH   1  27
TORSDOF 4
ENDMDL
MODEL 3
REMARK VINA RESULT:      -8.2      2.885      4.471
REMARK  Name = 
REMARK  5 active torsions:
REMARK  status: ('A' for Active; 'I' for Inactive)
REMARK    1  A    between atoms: C_1  and  C_2
REMARK    2  A    between atoms: C_2  and  C_3
REMARK    3  A    between atoms: C_2  and  N_9
REMARK    4  A    between atoms: C_17  and  N_18
REMARK    5  A    between atoms: N_21  and  C_22
REMARK                            x       y       z     vdW  Elec       q    Type
REMARK                         _______ _______ _______ _____ _____    ______ ____
ROOT
ATOM      1  N   UNL     1       2.350   7.604  19.036  0.00  0.00    +0.000 NA
ATOM      2  C   UNL     1       1.258   7.667  20.039  0.00  0.00    +0.000 C 
ATOM      3  C   UNL     1       1.219   9.087  20.713  0.00  0.00    +0.000 C 
ATOM      4  N   UNL     1       1.080  10.148  19.698  0.00  0.00    +0.000 N 
ATOM      5  C   UNL     1       1.032   9.665  18.400  0.00  0.00    +0.000 A 
ATOM      6  N   UNL     1      -0.212   9.853  17.965  0.00  0.00    +0.000 NA
ATOM      7  C   UNL     1      -0.786  10.797  18.830  0.00  0.00    +0.000 A 
ATOM      8  C   UNL     1      -2.084  11.404  18.923  0.00  0.00    +0.000 A 
ATOM      9  C   UNL     1      -2.320  12.502  19.786  0.00  0.00    +0.000 A 
ATOM     10  C   UNL     1      -1.196  13.042  20.442  0.00  0.00    +0.000 A 
ATOM     11  C   UNL     1       0.051  12.378  20.489  0.00  0.00    +0.000 A 
ATOM     12  C   UNL     1       0.170  11.189  19.752  0.00  0.00    +0.000 A 
ATOM     13  C   UNL     1       2.113   8.645  17.995  0.00  0.00    +0.000 C 
ENDROOT
BRANCH   9  14
ATOM     14  N   UNL     1      -3.599  13.120  20.075  0.00  0.00    +0.000 N 
ATOM     15  C   UNL     1      -4.374  13.023  21.229  0.00  0.00    +0.000 C 
ATOM     16  O   UNL     1      -4.145  12.270  22.168  0.00  0.00    +0.000 OA
ATOM     17  N   UNL     1      -5.482  13.889  21.235  0.00  0.00    +0.000 N 
ATOM     18  H   UNL     1      -3.941  13.759  19.374  0.00  0.00    +0.000 HD
ATOM     19  H   UNL     1      -5.551  14.620  20.540  0.00  0.00    +0.000 HD
BRANCH  17  20
ATOM     20  C   UNL     1      -6.448  13.929  22.369  0.00  0.00    +0.000 C 
ATOM     21  C   UNL     1      -5.881  14.572  23.648  0.00  0.00    +0.000 C 
ATOM     22  C   UNL     1      -5.814  16.099  23.591  0.00  0.00    +0.000 C 
ATOM     23  C   UNL     1      -7.162  16.734  23.270  0.00  0.00    +0.000 C 
ATOM     24  C   UNL     1      -7.795  16.124  22.024  0.00  0.00    +0.000 C 
ATOM     25  C   UNL     1      -7.816  14.593  22.063  0.00  0.00    +0.000 C 
ENDBRANCH  17  20
ENDBRANCH   9  14
BRANCH   1  27
ATOM     26  C   UNL     1       4.146   5.908  18.280  0.00  0.00    +0.000 C 
ATOM     27  C   UNL     1       2.669   6.217  18.584  0.00  0.00    +0.000 C 
BRANCH  27  28
ATOM     28  C   UNL     1       2.103   5.059  19.439  0.00  0.00    +0.000 A 
ATOM     29  C   UNL     1       2.482   4.859  20.776  0.00  0.00    +0.000 A 
ATOM     30  C   UNL     1       2.097   3.710  21.481  0.00  0.00    +0.000 A 
ATOM     31  C   UNL     1       1.326   2.728  20.868  0.00  0.00    +0.000 A 
ATOM     32  C   UNL     1       0.945   2.891  19.537  0.00  0.00    +0.000 A 
ATOM     33  C   UNL     1       1.330   4.043  18.833  0.00  0.00    +0.000 A 
ENDBRANCH  27  28
ENDBRANCH   1  27
TORSDOF 4
ENDMDL
MODEL 4
REMARK VINA RESULT:      -7.9      1.765      2.181
REMARK  Name = 
REMARK  5 active torsions:
REMARK  status: ('A' for Active; 'I' for Inactive)
REMARK    1  A    between atoms: C_1  and  C_2
REMARK    2  A    between atoms: C_2  and  C_3
REMARK    3  A    between atoms: C_2  and  N_9
REMARK    4  A    between atoms: C_17  and  N_18
REMARK    5  A    between atoms: N_21  and  C_22
REMARK                            x       y       z     vdW  Elec       q    Type
REMARK                         _______ _______ _______ _____ _____    ______ ____
ROOT
ATOM      1  N   UNL     1       3.163   6.073  18.952  0.00  0.00    +0.000 NA
ATOM      2  C   UNL     1       1.853   6.177  19.642  0.00  0.00    +0.000 C 
ATOM      3  C   UNL     1       1.758   7.536  20.429  0.00  0.00    +0.000 C 
ATOM      4  N   UNL     1       1.986   8.683  19.529  0.00  0.00    +0.000 N 
ATOM      5  C   UNL     1       2.245   8.311  18.219  0.00  0.00    +0.000 A 
ATOM      6  N   UNL     1       1.182   8.669  17.501  0.00  0.00    +0.000 NA
ATOM      7  C   UNL     1       0.482   9.600  18.283  0.00  0.00    +0.000 A 
ATOM      8  C   UNL     1      -0.736  10.337  18.103  0.00  0.00    +0.000 A 
ATOM      9  C   UNL     1      -1.099  11.384  18.986  0.00  0.00    +0.000 A 
ATOM     10  C   UNL     1      -0.148  11.743  19.961  0.00  0.00    +0.000 A 
ATOM     11  C   UNL     1       0.980  10.943  20.258  0.00  0.00    +0.000 A 
ATOM     12  C   UNL     1       1.188   9.810  19.456  0.00  0.00    +0.000 A 
ATOM     13  C   UNL     1       3.302   7.212  18.001  0.00  0.00    +0.000 C 
ENDROOT
BRANCH   9  14
ATOM     14  N   UNL     1      -2.350  12.115  19.000  0.00  0.00    +0.000 N 
ATOM     15  C   UNL     1      -3.057  12.615  20.092  0.00  0.00    +0.000 C 
ATOM     16  O   UNL     1      -2.781  12.398  21.266  0.00  0.00    +0.000 OA
ATOM     17  N   UNL     1      -4.152  13.421  19.731  0.00  0.00    +0.000 N 
ATOM     18  H   UNL     1      -2.726  12.351  18.094  0.00  0.00    +0.000 HD
ATOM     19  H   UNL     1      -4.253  13.729  18.773  0.00  0.00    +0.000 HD
BRANCH  17  20
ATOM     20  C   UNL     1      -5.048  14.039  20.748  0.00  0.00    +0.000 C 
ATOM     21  C   UNL     1      -5.530  15.453  20.376  0.00  0.00    +0.000 C 
ATOM     22  C   UNL     1      -6.639  15.468  19.322  0.00  0.00    +0.000 C 
ATOM     23  C   UNL     1      -7.841  14.622  19.724  0.00  0.00    +0.000 C 
ATOM     24  C   UNL     1      -7.432  13.210  20.131  0.00  0.00    +0.000 C 
ATOM     25  C   UNL     1      -6.288  13.198  21.149  0.00  0.00    +0.000 C 
ENDBRANCH  17  20
ENDBRANCH   9  14
BRANCH   1  27
ATOM     26  C   UNL     1       2.435   4.052  17.517  0.00  0.00    +0.000 C 
ATOM     27  C   UNL     1       3.470   4.699  18.455  0.00  0.00    +0.000 C 
BRANCH  27  28
ATOM     28  C   UNL     1       4.875   4.479  17.845  0.00  0.00    +0.000 A 
ATOM     29  C   UNL     1       6.050   4.851  18.516  0.00  0.00    +0.000 A 
ATOM     30  C   UNL     1       7.300   4.806  17.881  0.00  0.00    +0.000 A 
ATOM     31  C   UNL     1       7.407   4.393  16.558  0.00  0.00    +0.000 A 
ATOM     32  C   UNL     1       6.256   4.030  15.860  0.00  0.00    +0.000 A 
ATOM     33  C   UNL     1       5.006   4.073  16.498  0.00  0.00    +0.000 A 
ENDBRANCH  27  28
ENDBRANCH   1  27
TORSDOF 4
ENDMDL
MODEL 5
REMARK VINA RESULT:      -7.8      2.121      2.901
REMARK  Name = 
REMARK  5 active torsions:
REMARK  status: ('A' for Active; 'I' for Inactive)
REMARK    1  A    between atoms: C_1  and  C_2
REMARK    2  A    between atoms: C_2  and  C_3
REMARK    3  A    between atoms: C_2  and  N_9
REMARK    4  A    between atoms: C_17  and  N_18
REMARK    5  A    between atoms: N_21  and  C_22
REMARK                            x       y       z     vdW  Elec       q    Type
REMARK                         _______ _______ _______ _____ _____    ______ ____
ROOT
ATOM      1  N   UNL     1       2.845   6.969  19.074  0.00  0.00    +0.000 NA
ATOM      2  C   UNL     1       1.615   7.061  19.899  0.00  0.00    +0.000 C 
ATOM      3  C   UNL     1       1.486   8.498  20.526  0.00  0.00    +0.000 C 
ATOM      4  N   UNL     1       1.510   9.535  19.477  0.00  0.00    +0.000 N 
ATOM      5  C   UNL     1       1.654   9.020  18.198  0.00  0.00    +0.000 A 
ATOM      6  N   UNL     1       0.491   9.203  17.577  0.00  0.00    +0.000 NA
ATOM      7  C   UNL     1      -0.200  10.170  18.322  0.00  0.00    +0.000 A 
ATOM      8  C   UNL     1      -1.491  10.784  18.205  0.00  0.00    +0.000 A 
ATOM      9  C   UNL     1      -1.847  11.904  18.996  0.00  0.00    +0.000 A 
ATOM     10  C   UNL     1      -0.830  12.455  19.801  0.00  0.00    +0.000 A 
ATOM     11  C   UNL     1       0.391  11.787  20.051  0.00  0.00    +0.000 A 
ATOM     12  C   UNL     1       0.610  10.580  19.369  0.00  0.00    +0.000 A 
ATOM     13  C   UNL     1       2.776   7.986  17.985  0.00  0.00    +0.000 C 
ENDROOT
BRANCH   9  14
ATOM     14  N   UNL     1      -3.150  12.534  19.075  0.00  0.00    +0.000 N 
ATOM     15  C   UNL     1      -3.901  12.847  20.206  0.00  0.00    +0.000 C 
ATOM     16  O   UNL     1      -3.619  12.514  21.351  0.00  0.00    +0.000 OA
ATOM     17  N   UNL     1      -5.050  13.607  19.924  0.00  0.00    +0.000 N 
ATOM     18  H   UNL     1      -3.535  12.847  18.197  0.00  0.00    +0.000 HD
ATOM     19  H   UNL     1      -5.166  14.018  19.007  0.00  0.00    +0.000 HD
BRANCH  17  20
ATOM     20  C   UNL     1      -5.999  14.033  20.991  0.00  0.00    +0.000 C 
ATOM     21  C   UNL     1      -5.654  15.394  21.624  0.00  0.00    +0.000 C 
ATOM     22  C   UNL     1      -6.029  16.591  20.749  0.00  0.00    +0.000 C 
ATOM     23  C   UNL     1      -7.499  16.587  20.348  0.00  0.00    +0.000 C 
ATOM     24  C   UNL     1      -7.916  15.254  19.734  0.00  0.00    +0.000 C 
ATOM     25  C   UNL     1      -7.496  14.055  20.589  0.00  0.00    +0.000 C 
ENDBRANCH  17  20
ENDBRANCH   9  14
BRANCH   1  27
ATOM     26  C   UNL     1       2.181   4.761  17.908  0.00  0.00    +0.000 C 
ATOM     27  C   UNL     1       3.218   5.571  18.708  0.00  0.00    +0.000 C 
BRANCH  27  28
ATOM     28  C   UNL     1       4.600   5.372  18.041  0.00  0.00    +0.000 A 
ATOM     29  C   UNL     1       4.736   5.042  16.683  0.00  0.00    +0.000 A 
ATOM     30  C   UNL     1       5.981   4.695  16.137  0.00  0.00    +0.000 A 
ATOM     31  C   UNL     1       7.120   4.664  16.934  0.00  0.00    +0.000 A 
ATOM     32  C   UNL     1       7.014   4.973  18.289  0.00  0.00    +0.000 A 
ATOM     33  C   UNL     1       5.769   5.322  18.834  0.00  0.00    +0.000 A 
ENDBRANCH  27  28
ENDBRANCH   1  27
TORSDOF 4
ENDMDL
MODEL 6
REMARK VINA RESULT:      -7.8      0.938      1.312
REMARK  Name = 
REMARK  5 active torsions:
REMARK  status: ('A' for Active; 'I' for Inactive)
REMARK    1  A    between atoms: C_1  and  C_2
REMARK    2  A    between atoms: C_2  and  C_3
REMARK    3  A    between atoms: C_2  and  N_9
REMARK    4  A    between atoms: C_17  and  N_18
REMARK    5  A    between atoms: N_21  and  C_22
REMARK                            x       y       z     vdW  Elec       q    Type
REMARK                         _______ _______ _______ _____ _____    ______ ____
ROOT
ATOM      1  N   UNL     1       3.296   6.096  18.960  0.00  0.00    +0.000 NA
ATOM      2  C   UNL     1       1.852   6.094  19.303  0.00  0.00    +0.000 C 
ATOM      3  C   UNL     1       1.518   7.296  20.260  0.00  0.00    +0.000 C 
ATOM      4  N   UNL     1       1.926   8.579  19.657  0.00  0.00    +0.000 N 
ATOM      5  C   UNL     1       2.517   8.437  18.411  0.00  0.00    +0.000 A 
ATOM      6  N   UNL     1       1.656   8.927  17.520  0.00  0.00    +0.000 NA
ATOM      7  C   UNL     1       0.752   9.715  18.246  0.00  0.00    +0.000 A 
ATOM      8  C   UNL     1      -0.406  10.486  17.893  0.00  0.00    +0.000 A 
ATOM      9  C   UNL     1      -1.013  11.368  18.820  0.00  0.00    +0.000 A 
ATOM     10  C   UNL     1      -0.350  11.542  20.051  0.00  0.00    +0.000 A 
ATOM     11  C   UNL     1       0.694  10.690  20.482  0.00  0.00    +0.000 A 
ATOM     12  C   UNL     1       1.134   9.711  19.577  0.00  0.00    +0.000 A 
ATOM     13  C   UNL     1       3.631   7.382  18.283  0.00  0.00    +0.000 C 
ENDROOT
BRANCH   9  14
ATOM     14  N   UNL     1      -2.252  12.099  18.642  0.00  0.00    +0.000 N 
ATOM     15  C   UNL     1      -3.507  11.615  18.279  0.00  0.00    +0.000 C 
ATOM     16  O   UNL     1      -3.739  10.466  17.920  0.00  0.00    +0.000 OA
ATOM     17  N   UNL     1      -4.527  12.580  18.363  0.00  0.00    +0.000 N 
ATOM     18  H   UNL     1      -2.215  13.079  18.877  0.00  0.00    +0.000 HD
ATOM     19  H   UNL     1      -4.346  13.460  18.827  0.00  0.00    +0.000 HD
BRANCH  17  20
ATOM     20  C   UNL     1      -5.939  12.271  18.002  0.00  0.00    +0.000 C 
ATOM     21  C   UNL     1      -6.567  11.149  18.848  0.00  0.00    +0.000 C 
ATOM     22  C   UNL     1      -6.975  11.593  20.253  0.00  0.00    +0.000 C 
ATOM     23  C   UNL     1      -7.916  12.793  20.240  0.00  0.00    +0.000 C 
ATOM     24  C   UNL     1      -7.365  13.937  19.395  0.00  0.00    +0.000 C 
ATOM     25  C   UNL     1      -6.912  13.479  18.006  0.00  0.00    +0.000 C 
ENDBRANCH  17  20
ENDBRANCH   9  14
BRANCH   1  27
ATOM     26  C   UNL     1       2.682   3.903  17.739  0.00  0.00    +0.000 C 
ATOM     27  C   UNL     1       3.764   4.827  18.329  0.00  0.00    +0.000 C 
BRANCH  27  28
ATOM     28  C   UNL     1       4.910   4.944  17.296  0.00  0.00    +0.000 A 
ATOM     29  C   UNL     1       4.812   4.404  16.005  0.00  0.00    +0.000 A 
ATOM     30  C   UNL     1       5.919   4.366  15.143  0.00  0.00    +0.000 A 
ATOM     31  C   UNL     1       7.152   4.862  15.553  0.00  0.00    +0.000 A 
ATOM     32  C   UNL     1       7.284   5.392  16.835  0.00  0.00    +0.000 A 
ATOM     33  C   UNL     1       6.175   5.432  17.695  0.00  0.00    +0.000 A 
ENDBRANCH  27  28
ENDBRANCH   1  27
TORSDOF 4
ENDMDL
MODEL 7
REMARK VINA RESULT:      -7.5      2.514      3.211
REMARK  Name = 
REMARK  5 active torsions:
REMARK  status: ('A' for Active; 'I' for Inactive)
REMARK    1  A    between atoms: C_1  and  C_2
REMARK    2  A    between atoms: C_2  and  C_3
REMARK    3  A    between atoms: C_2  and  N_9
REMARK    4  A    between atoms: C_17  and  N_18
REMARK    5  A    between atoms: N_21  and  C_22
REMARK                            x       y       z     vdW  Elec       q    Type
REMARK                         _______ _______ _______ _____ _____    ______ ____
ROOT
ATOM      1  N   UNL     1       2.613   7.050  19.258  0.00  0.00    +0.000 NA
ATOM      2  C   UNL     1       1.501   7.216  20.226  0.00  0.00    +0.000 C 
ATOM      3  C   UNL     1       1.524   8.664  20.840  0.00  0.00    +0.000 C 
ATOM      4  N   UNL     1       1.472   9.687  19.778  0.00  0.00    +0.000 N 
ATOM      5  C   UNL     1       1.431   9.152  18.500  0.00  0.00    +0.000 A 
ATOM      6  N   UNL     1       0.211   9.391  18.023  0.00  0.00    +0.000 NA
ATOM      7  C   UNL     1      -0.331  10.401  18.831  0.00  0.00    +0.000 A 
ATOM      8  C   UNL     1      -1.594  11.082  18.863  0.00  0.00    +0.000 A 
ATOM      9  C   UNL     1      -1.791  12.228  19.672  0.00  0.00    +0.000 A 
ATOM     10  C   UNL     1      -0.656  12.732  20.337  0.00  0.00    +0.000 A 
ATOM     11  C   UNL     1       0.551  12.002  20.447  0.00  0.00    +0.000 A 
ATOM     12  C   UNL     1       0.621  10.778  19.763  0.00  0.00    +0.000 A 
ATOM     13  C   UNL     1       2.463   8.057  18.169  0.00  0.00    +0.000 C 
ENDROOT
BRANCH   9  14
ATOM     14  N   UNL     1      -3.040  12.927  19.900  0.00  0.00    +0.000 N 
ATOM     15  C   UNL     1      -3.855  12.912  21.029  0.00  0.00    +0.000 C 
ATOM     16  O   UNL     1      -3.700  12.179  21.999  0.00  0.00    +0.000 OA
ATOM     17  N   UNL     1      -4.911  13.841  20.972  0.00  0.00    +0.000 N 
ATOM     18  H   UNL     1      -3.322  13.561  19.168  0.00  0.00    +0.000 HD
ATOM     19  H   UNL     1      -4.914  14.551  20.252  0.00  0.00    +0.000 HD
BRANCH  17  20
ATOM     20  C   UNL     1      -5.908  13.973  22.071  0.00  0.00    +0.000 C 
ATOM     21  C   UNL     1      -5.701  15.219  22.953  0.00  0.00    +0.000 C 
ATOM     22  C   UNL     1      -6.175  16.519  22.303  0.00  0.00    +0.000 C 
ATOM     23  C   UNL     1      -7.634  16.457  21.864  0.00  0.00    +0.000 C 
ATOM     24  C   UNL     1      -7.917  15.229  21.004  0.00  0.00    +0.000 C 
ATOM     25  C   UNL     1      -7.396  13.935  21.636  0.00  0.00    +0.000 C 
ENDBRANCH  17  20
ENDBRANCH   9  14
BRANCH   1  27
ATOM     26  C   UNL     1       1.880   4.995  17.874  0.00  0.00    +0.000 C 
ATOM     27  C   UNL     1       2.865   5.630  18.873  0.00  0.00    +0.000 C 
BRANCH  27  28
ATOM     28  C   UNL     1       4.302   5.277  18.419  0.00  0.00    +0.000 A 
ATOM     29  C   UNL     1       5.414   5.440  19.260  0.00  0.00    +0.000 A 
ATOM     30  C   UNL     1       6.723   5.283  18.779  0.00  0.00    +0.000 A 
ATOM     31  C   UNL     1       6.953   4.963  17.446  0.00  0.00    +0.000 A 
ATOM     32  C   UNL     1       5.869   4.808  16.583  0.00  0.00    +0.000 A 
ATOM     33  C   UNL     1       4.560   4.964  17.066  0.00  0.00    +0.000 A 
ENDBRANCH  27  28
ENDBRANCH   1  27
TORSDOF 4
ENDMDL
MODEL 8
REMARK VINA RESULT:      -7.4      1.980      3.737
REMARK  Name = 
REMARK  5 active torsions:
REMARK  status: ('A' for Active; 'I' for Inactive)
REMARK    1  A    between atoms: C_1  and  C_2
REMARK    2  A    between atoms: C_2  and  C_3
REMARK    3  A    between atoms: C_2  and  N_9
REMARK    4  A    between atoms: C_17  and  N_18
REMARK    5  A    between atoms: N_21  and  C_22
REMARK                            x       y       z     vdW  Elec       q    Type
REMARK                         _______ _______ _______ _____ _____    ______ ____
ROOT
ATOM      1  N   UNL     1       2.679   7.316  19.050  0.00  0.00    +0.000 NA
ATOM      2  C   UNL     1       1.528   7.345  19.987  0.00  0.00    +0.000 C 
ATOM      3  C   UNL     1       1.446   8.742  20.705  0.00  0.00    +0.000 C 
ATOM      4  N   UNL     1       1.366   9.837  19.720  0.00  0.00    +0.000 N 
ATOM      5  C   UNL     1       1.399   9.397  18.405  0.00  0.00    +0.000 A 
ATOM      6  N   UNL     1       0.182   9.601  17.903  0.00  0.00    +0.000 NA
ATOM      7  C   UNL     1      -0.445  10.515  18.762  0.00  0.00    +0.000 A 
ATOM      8  C   UNL     1      -1.747  11.119  18.797  0.00  0.00    +0.000 A 
ATOM      9  C   UNL     1      -2.037  12.187  19.680  0.00  0.00    +0.000 A 
ATOM     10  C   UNL     1      -0.956  12.705  20.421  0.00  0.00    +0.000 A 
ATOM     11  C   UNL     1       0.287  12.039  20.522  0.00  0.00    +0.000 A 
ATOM     12  C   UNL     1       0.453  10.876  19.754  0.00  0.00    +0.000 A 
ATOM     13  C   UNL     1       2.504   8.391  18.033  0.00  0.00    +0.000 C 
ENDROOT
BRANCH   9  14
ATOM     14  N   UNL     1      -3.332  12.795  19.913  0.00  0.00    +0.000 N 
ATOM     15  C   UNL     1      -4.531  12.582  19.235  0.00  0.00    +0.000 C 
ATOM     16  O   UNL     1      -4.652  11.912  18.217  0.00  0.00    +0.000 OA
ATOM     17  N   UNL     1      -5.634  13.218  19.833  0.00  0.00    +0.000 N 
ATOM     18  H   UNL     1      -3.388  13.405  20.714  0.00  0.00    +0.000 HD
ATOM     19  H   UNL     1      -5.544  13.612  20.760  0.00  0.00    +0.000 HD
BRANCH  17  20
ATOM     20  C   UNL     1      -7.005  13.130  19.256  0.00  0.00    +0.000 C 
ATOM     21  C   UNL     1      -7.916  14.313  19.633  0.00  0.00    +0.000 C 
ATOM     22  C   UNL     1      -7.618  15.593  18.850  0.00  0.00    +0.000 C 
ATOM     23  C   UNL     1      -7.673  15.383  17.341  0.00  0.00    +0.000 C 
ATOM     24  C   UNL     1      -6.810  14.206  16.899  0.00  0.00    +0.000 C 
ATOM     25  C   UNL     1      -7.076  12.940  17.719  0.00  0.00    +0.000 C 
ENDBRANCH  17  20
ENDBRANCH   9  14
BRANCH   1  27
ATOM     26  C   UNL     1       4.518   5.656  18.319  0.00  0.00    +0.000 C 
ATOM     27  C   UNL     1       3.028   5.945  18.572  0.00  0.00    +0.000 C 
BRANCH  27  28
ATOM     28  C   UNL     1       2.437   4.758  19.371  0.00  0.00    +0.000 A 
ATOM     29  C   UNL     1       1.456   3.910  18.836  0.00  0.00    +0.000 A 
ATOM     30  C   UNL     1       0.808   2.951  19.629  0.00  0.00    +0.000 A 
ATOM     31  C   UNL     1       1.120   2.820  20.977  0.00  0.00    +0.000 A 
ATOM     32  C   UNL     1       2.081   3.658  21.541  0.00  0.00    +0.000 A 
ATOM     33  C   UNL     1       2.730   4.615  20.746  0.00  0.00    +0.000 A 
ENDBRANCH  27  28
ENDBRANCH   1  27
TORSDOF 4
ENDMDL
MODEL 9
REMARK VINA RESULT:      -7.4      2.478      2.842
REMARK  Name = 
REMARK  5 active torsions:
REMARK  status: ('A' for Active; 'I' for Inactive)
REMARK    1  A    between atoms: C_1  and  C_2
REMARK    2  A    between atoms: C_2  and  C_3
REMARK    3  A    between atoms: C_2  and  N_9
REMARK    4  A    between atoms: C_17  and  N_18
REMARK    5  A    between atoms: N_21  and  C_22
REMARK                            x       y       z     vdW  Elec       q    Type
REMARK                         _______ _______ _______ _____ _____    ______ ____
ROOT
ATOM      1  N   UNL     1       3.286   4.721  19.062  0.00  0.00    +0.000 NA
ATOM      2  C   UNL     1       1.828   4.826  19.318  0.00  0.00    +0.000 C 
ATOM      3  C   UNL     1       1.562   5.676  20.615  0.00  0.00    +0.000 C 
ATOM      4  N   UNL     1       2.188   7.007  20.510  0.00  0.00    +0.000 N 
ATOM      5  C   UNL     1       2.872   7.201  19.320  0.00  0.00    +0.000 A 
ATOM      6  N   UNL     1       2.171   8.087  18.614  0.00  0.00    +0.000 NA
ATOM      7  C   UNL     1       1.311   8.716  19.526  0.00  0.00    +0.000 A 
ATOM      8  C   UNL     1       0.301   9.729  19.408  0.00  0.00    +0.000 A 
ATOM      9  C   UNL     1      -0.273  10.332  20.554  0.00  0.00    +0.000 A 
ATOM     10  C   UNL     1       0.287   9.980  21.798  0.00  0.00    +0.000 A 
ATOM     11  C   UNL     1       1.166   8.883  21.956  0.00  0.00    +0.000 A 
ATOM     12  C   UNL     1       1.560   8.208  20.790  0.00  0.00    +0.000 A 
ATOM     13  C   UNL     1       3.848   6.091  18.887  0.00  0.00    +0.000 C 
ENDROOT
BRANCH   9  14
ATOM     14  N   UNL     1      -1.384  11.262  20.583  0.00  0.00    +0.000 N 
ATOM     15  C   UNL     1      -1.515  12.444  21.309  0.00  0.00    +0.000 C 
ATOM     16  O   UNL     1      -0.729  12.833  22.165  0.00  0.00    +0.000 OA
ATOM     17  N   UNL     1      -2.660  13.187  20.971  0.00  0.00    +0.000 N 
ATOM     18  H   UNL     1      -2.135  11.060  19.941  0.00  0.00    +0.000 HD
ATOM     19  H   UNL     1      -3.192  12.940  20.147  0.00  0.00    +0.000 HD
BRANCH  17  20
ATOM     20  C   UNL     1      -2.995  14.474  21.643  0.00  0.00    +0.000 C 
ATOM     21  C   UNL     1      -4.028  15.324  20.880  0.00  0.00    +0.000 C 
ATOM     22  C   UNL     1      -5.465  14.822  21.024  0.00  0.00    +0.000 C 
ATOM     23  C   UNL     1      -5.900  14.698  22.480  0.00  0.00    +0.000 C 
ATOM     24  C   UNL     1      -4.905  13.885  23.302  0.00  0.00    +0.000 C 
ATOM     25  C   UNL     1      -3.461  14.360  23.118  0.00  0.00    +0.000 C 
ENDBRANCH  17  20
ENDBRANCH   9  14
BRANCH   1  27
ATOM     26  C   UNL     1       2.504   3.151  17.165  0.00  0.00    +0.000 C 
ATOM     27  C   UNL     1       3.645   3.680  18.055  0.00  0.00    +0.000 C 
BRANCH  27  28
ATOM     28  C   UNL     1       4.861   3.980  17.147  0.00  0.00    +0.000 A 
ATOM     29  C   UNL     1       6.155   4.155  17.662  0.00  0.00    +0.000 A 
ATOM     30  C   UNL     1       7.211   4.597  16.851  0.00  0.00    +0.000 A 
ATOM     31  C   UNL     1       7.000   4.879  15.506  0.00  0.00    +0.000 A 
ATOM     32  C   UNL     1       5.723   4.728  14.968  0.00  0.00    +0.000 A 
ATOM     33  C   UNL     1       4.668   4.283  15.781  0.00  0.00    +0.000 A 
ENDBRANCH  27  28
ENDBRANCH   1  27
TORSDOF 4
ENDMDL
