MODEL 1
REMARK VINA RESULT:      -6.2      0.000      0.000
REMARK  Name = 
REMARK  21 active torsions:
REMARK  status: ('A' for Active; 'I' for Inactive)
REMARK    1  A    between atoms: C_1  and  C_2
REMARK    2  A    between atoms: C_2  and  C_3
REMARK    3  A    between atoms: C_3  and  C_4
REMARK    4  A    between atoms: C_4  and  C_5
REMARK    5  A    between atoms: C_5  and  C_6
REMARK    6  A    between atoms: C_6  and  C_7
REMARK    7  A    between atoms: C_7  and  C_8
REMARK    8  A    between atoms: C_8  and  C_9
REMARK    9  A    between atoms: C_9  and  C_10
REMARK   10  A    between atoms: C_10  and  C_11
REMARK   11  A    between atoms: C_11  and  C_12
REMARK   12  A    between atoms: C_12  and  C_13
REMARK   13  A    between atoms: C_13  and  C_14
REMARK   14  A    between atoms: N_16  and  C_17
REMARK   15  A    between atoms: C_17  and  C_18
REMARK   16  A    between atoms: C_18  and  O_19
REMARK   17  A    between atoms: C_18  and  C_20
REMARK   18  A    between atoms: C_23  and  C_24
REMARK   19  A    between atoms: C_24  and  C_25
REMARK   20  A    between atoms: C_24  and  C_26
REMARK   21  A    between atoms: C_24  and  C_27
REMARK                            x       y       z     vdW  Elec       q    Type
REMARK                         _______ _______ _______ _____ _____    ______ ____
ROOT
ATOM      1  C   UNL     1       1.344   4.607  20.599  0.00  0.00    +0.000 C 
ATOM      2  O   UNL     1       0.416   3.990  20.087  0.00  0.00    +0.000 OA
ATOM      3  N   UNL     1       2.464   3.988  21.103  0.00  0.00    +0.000 N 
ATOM      4  H   UNL     1       3.082   4.507  21.718  0.00  0.00    +0.000 HD
ENDROOT
BRANCH   3   5
ATOM      5  C   UNL     1       2.529   2.536  21.045  0.00  0.00    +0.000 C 
BRANCH   5   6
ATOM      6  C   UNL     1       2.962   1.915  19.686  0.00  0.00    +0.000 C 
BRANCH   6   7
ATOM      7  C   UNL     1       3.826   2.843  18.822  0.00  0.00    +0.000 A 
ATOM      8  C   UNL     1       4.917   3.539  19.332  0.00  0.00    +0.000 A 
ATOM      9  C   UNL     1       5.620   4.446  18.533  0.00  0.00    +0.000 A 
ATOM     10  C   UNL     1       5.266   4.677  17.197  0.00  0.00    +0.000 A 
ATOM     11  C   UNL     1       4.173   3.963  16.680  0.00  0.00    +0.000 A 
ATOM     12  C   UNL     1       3.469   3.051  17.476  0.00  0.00    +0.000 A 
BRANCH  10  13
ATOM     13  C   UNL     1       6.099   5.631  16.333  0.00  0.00    +0.000 C 
ATOM     14  C   UNL     1       7.070   6.462  17.202  0.00  0.00    +0.000 C 
ATOM     15  C   UNL     1       6.918   4.809  15.317  0.00  0.00    +0.000 C 
ATOM     16  C   UNL     1       5.218   6.625  15.548  0.00  0.00    +0.000 C 
ENDBRANCH  10  13
ENDBRANCH   6   7
BRANCH   6  17
ATOM     17  O   UNL     1       1.854   1.546  18.852  0.00  0.00    +0.000 OA
ATOM     18  H   UNL     1       1.618   2.357  18.357  0.00  0.00    +0.000 HD
ENDBRANCH   6  17
ENDBRANCH   5   6
ENDBRANCH   3   5
BRANCH   1  19
ATOM     19  C   UNL     1       1.410   6.104  20.695  0.00  0.00    +0.000 C 
BRANCH  19  20
ATOM     20  C   UNL     1       2.622   6.607  19.933  0.00  0.00    +0.000 C 
BRANCH  20  21
ATOM     21  C   UNL     1       2.352   6.624  18.441  0.00  0.00    +0.000 C 
BRANCH  21  22
ATOM     22  C   UNL     1       2.882   7.920  17.848  0.00  0.00    +0.000 C 
BRANCH  22  23
ATOM     23  C   UNL     1       1.748   8.910  17.656  0.00  0.00    +0.000 C 
BRANCH  23  24
ATOM     24  C   UNL     1       1.578   9.757  18.906  0.00  0.00    +0.000 C 
BRANCH  24  25
ATOM     25  C   UNL     1       0.838  11.041  18.569  0.00  0.00    +0.000 C 
BRANCH  25  26
ATOM     26  C   UNL     1      -0.664  10.809  18.596  0.00  0.00    +0.000 C 
BRANCH  26  27
ATOM     27  C   UNL     1      -1.173  10.821  20.031  0.00  0.00    +0.000 C 
BRANCH  27  28
ATOM     28  C   UNL     1      -1.191  12.242  20.579  0.00  0.00    +0.000 C 
BRANCH  28  29
ATOM     29  C   UNL     1      -0.406  12.319  21.883  0.00  0.00    +0.000 C 
BRANCH  29  31
ATOM     30  C   UNL     1      -2.532  12.047  23.180  0.00  0.00    +0.000 C 
ATOM     31  C   UNL     1      -1.273  12.877  23.006  0.00  0.00    +0.000 C 
ENDBRANCH  29  31
ENDBRANCH  28  29
ENDBRANCH  27  28
ENDBRANCH  26  27
ENDBRANCH  25  26
ENDBRANCH  24  25
ENDBRANCH  23  24
ENDBRANCH  22  23
ENDBRANCH  21  22
ENDBRANCH  20  21
ENDBRANCH  19  20
ENDBRANCH   1  19
TORSDOF 17
ENDMDL
MODEL 2
REMARK VINA RESULT:      -6.1      5.521      7.470
REMARK  Name = 
REMARK  21 active torsions:
REMARK  status: ('A' for Active; 'I' for Inactive)
REMARK    1  A    between atoms: C_1  and  C_2
REMARK    2  A    between atoms: C_2  and  C_3
REMARK    3  A    between atoms: C_3  and  C_4
REMARK    4  A    between atoms: C_4  and  C_5
REMARK    5  A    between atoms: C_5  and  C_6
REMARK    6  A    between atoms: C_6  and  C_7
REMARK    7  A    between atoms: C_7  and  C_8
REMARK    8  A    between atoms: C_8  and  C_9
REMARK    9  A    between atoms: C_9  and  C_10
REMARK   10  A    between atoms: C_10  and  C_11
REMARK   11  A    between atoms: C_11  and  C_12
REMARK   12  A    between atoms: C_12  and  C_13
REMARK   13  A    between atoms: C_13  and  C_14
REMARK   14  A    between atoms: N_16  and  C_17
REMARK   15  A    between atoms: C_17  and  C_18
REMARK   16  A    between atoms: C_18  and  O_19
REMARK   17  A    between atoms: C_18  and  C_20
REMARK   18  A    between atoms: C_23  and  C_24
REMARK   19  A    between atoms: C_24  and  C_25
REMARK   20  A    between atoms: C_24  and  C_26
REMARK   21  A    between atoms: C_24  and  C_27
REMARK                            x       y       z     vdW  Elec       q    Type
REMARK                         _______ _______ _______ _____ _____    ______ ____
ROOT
ATOM      1  C   UNL     1       7.876   7.804  17.862  0.00  0.00    +0.000 C 
ATOM      2  O   UNL     1       8.314   7.108  18.772  0.00  0.00    +0.000 OA
ATOM      3  N   UNL     1       7.262   7.278  16.749  0.00  0.00    +0.000 N 
ATOM      4  H   UNL     1       7.134   7.865  15.931  0.00  0.00    +0.000 HD
ENDROOT
BRANCH   3   5
ATOM      5  C   UNL     1       7.157   5.832  16.644  0.00  0.00    +0.000 C 
BRANCH   5   6
ATOM      6  C   UNL     1       5.854   5.276  16.001  0.00  0.00    +0.000 C 
BRANCH   6   7
ATOM      7  C   UNL     1       4.824   4.765  17.017  0.00  0.00    +0.000 A 
ATOM      8  C   UNL     1       4.409   3.438  17.059  0.00  0.00    +0.000 A 
ATOM      9  C   UNL     1       3.400   3.035  17.939  0.00  0.00    +0.000 A 
ATOM     10  C   UNL     1       2.783   3.938  18.815  0.00  0.00    +0.000 A 
ATOM     11  C   UNL     1       3.214   5.274  18.780  0.00  0.00    +0.000 A 
ATOM     12  C   UNL     1       4.226   5.682  17.903  0.00  0.00    +0.000 A 
BRANCH  10  13
ATOM     13  C   UNL     1       1.725   3.447  19.809  0.00  0.00    +0.000 C 
ATOM     14  C   UNL     1       0.703   2.515  19.117  0.00  0.00    +0.000 C 
ATOM     15  C   UNL     1       2.421   2.669  20.944  0.00  0.00    +0.000 C 
ATOM     16  C   UNL     1       0.933   4.611  20.439  0.00  0.00    +0.000 C 
ENDBRANCH  10  13
ENDBRANCH   6   7
BRANCH   6  17
ATOM     17  O   UNL     1       6.085   4.172  15.113  0.00  0.00    +0.000 OA
ATOM     18  H   UNL     1       6.813   3.657  15.519  0.00  0.00    +0.000 HD
ENDBRANCH   6  17
ENDBRANCH   5   6
ENDBRANCH   3   5
BRANCH   1  19
ATOM     19  C   UNL     1       7.899   9.306  17.863  0.00  0.00    +0.000 C 
BRANCH  19  20
ATOM     20  C   UNL     1       9.025   9.794  18.754  0.00  0.00    +0.000 C 
BRANCH  20  21
ATOM     21  C   UNL     1       9.882  10.815  18.030  0.00  0.00    +0.000 C 
BRANCH  21  22
ATOM     22  C   UNL     1       9.946  12.092  18.853  0.00  0.00    +0.000 C 
BRANCH  22  23
ATOM     23  C   UNL     1      10.966  11.947  19.967  0.00  0.00    +0.000 C 
BRANCH  23  24
ATOM     24  C   UNL     1      10.329  12.287  21.304  0.00  0.00    +0.000 C 
BRANCH  24  25
ATOM     25  C   UNL     1       9.045  13.071  21.085  0.00  0.00    +0.000 C 
BRANCH  25  26
ATOM     26  C   UNL     1       8.214  13.091  22.357  0.00  0.00    +0.000 C 
BRANCH  26  27
ATOM     27  C   UNL     1       7.891  11.670  22.799  0.00  0.00    +0.000 C 
BRANCH  27  28
ATOM     28  C   UNL     1       7.870  11.576  24.319  0.00  0.00    +0.000 C 
BRANCH  28  29
ATOM     29  C   UNL     1       8.375  12.874  24.939  0.00  0.00    +0.000 C 
BRANCH  29  31
ATOM     30  C   UNL     1       6.300  12.412  26.266  0.00  0.00    +0.000 C 
ATOM     31  C   UNL     1       7.343  13.453  25.901  0.00  0.00    +0.000 C 
ENDBRANCH  29  31
ENDBRANCH  28  29
ENDBRANCH  27  28
ENDBRANCH  26  27
ENDBRANCH  25  26
ENDBRANCH  24  25
ENDBRANCH  23  24
ENDBRANCH  22  23
ENDBRANCH  21  22
ENDBRANCH  20  21
ENDBRANCH  19  20
ENDBRANCH   1  19
TORSDOF 17
ENDMDL
MODEL 3
REMARK VINA RESULT:      -6.0      6.004      8.171
REMARK  Name = 
REMARK  21 active torsions:
REMARK  status: ('A' for Active; 'I' for Inactive)
REMARK    1  A    between atoms: C_1  and  C_2
REMARK    2  A    between atoms: C_2  and  C_3
REMARK    3  A    between atoms: C_3  and  C_4
REMARK    4  A    between atoms: C_4  and  C_5
REMARK    5  A    between atoms: C_5  and  C_6
REMARK    6  A    between atoms: C_6  and  C_7
REMARK    7  A    between atoms: C_7  and  C_8
REMARK    8  A    between atoms: C_8  and  C_9
REMARK    9  A    between atoms: C_9  and  C_10
REMARK   10  A    between atoms: C_10  and  C_11
REMARK   11  A    between atoms: C_11  and  C_12
REMARK   12  A    between atoms: C_12  and  C_13
REMARK   13  A    between atoms: C_13  and  C_14
REMARK   14  A    between atoms: N_16  and  C_17
REMARK   15  A    between atoms: C_17  and  C_18
REMARK   16  A    between atoms: C_18  and  O_19
REMARK   17  A    between atoms: C_18  and  C_20
REMARK   18  A    between atoms: C_23  and  C_24
REMARK   19  A    between atoms: C_24  and  C_25
REMARK   20  A    between atoms: C_24  and  C_26
REMARK   21  A    between atoms: C_24  and  C_27
REMARK                            x       y       z     vdW  Elec       q    Type
REMARK                         _______ _______ _______ _____ _____    ______ ____
ROOT
ATOM      1  C   UNL     1       8.466   8.863  18.314  0.00  0.00    +0.000 C 
ATOM      2  O   UNL     1       7.938   9.015  17.217  0.00  0.00    +0.000 OA
ATOM      3  N   UNL     1       8.498   7.651  18.965  0.00  0.00    +0.000 N 
ATOM      4  H   UNL     1       8.729   7.627  19.953  0.00  0.00    +0.000 HD
ENDROOT
BRANCH   3   5
ATOM      5  C   UNL     1       7.852   6.515  18.329  0.00  0.00    +0.000 C 
BRANCH   5   6
ATOM      6  C   UNL     1       6.531   6.808  17.561  0.00  0.00    +0.000 C 
BRANCH   6   7
ATOM      7  C   UNL     1       5.339   5.959  18.021  0.00  0.00    +0.000 A 
ATOM      8  C   UNL     1       4.061   6.118  17.494  0.00  0.00    +0.000 A 
ATOM      9  C   UNL     1       2.983   5.389  18.006  0.00  0.00    +0.000 A 
ATOM     10  C   UNL     1       3.148   4.469  19.051  0.00  0.00    +0.000 A 
ATOM     11  C   UNL     1       4.441   4.301  19.572  0.00  0.00    +0.000 A 
ATOM     12  C   UNL     1       5.523   5.027  19.059  0.00  0.00    +0.000 A 
BRANCH  10  13
ATOM     13  C   UNL     1       1.956   3.642  19.545  0.00  0.00    +0.000 C 
ATOM     14  C   UNL     1       1.131   3.094  18.357  0.00  0.00    +0.000 C 
ATOM     15  C   UNL     1       2.476   2.454  20.380  0.00  0.00    +0.000 C 
ATOM     16  C   UNL     1       0.998   4.468  20.428  0.00  0.00    +0.000 C 
ENDBRANCH  10  13
ENDBRANCH   6   7
BRANCH   6  17
ATOM     17  O   UNL     1       6.633   6.580  16.148  0.00  0.00    +0.000 OA
ATOM     18  H   UNL     1       5.759   6.822  15.779  0.00  0.00    +0.000 HD
ENDBRANCH   6  17
ENDBRANCH   5   6
ENDBRANCH   3   5
BRANCH   1  19
ATOM     19  C   UNL     1       9.189   9.947  19.061  0.00  0.00    +0.000 C 
BRANCH  19  20
ATOM     20  C   UNL     1       9.220  11.208  18.218  0.00  0.00    +0.000 C 
BRANCH  20  21
ATOM     21  C   UNL     1      10.631  11.517  17.759  0.00  0.00    +0.000 C 
BRANCH  21  22
ATOM     22  C   UNL     1      10.722  12.981  17.361  0.00  0.00    +0.000 C 
BRANCH  22  23
ATOM     23  C   UNL     1      11.978  13.605  17.941  0.00  0.00    +0.000 C 
BRANCH  23  24
ATOM     24  C   UNL     1      11.951  13.517  19.458  0.00  0.00    +0.000 C 
BRANCH  24  25
ATOM     25  C   UNL     1      11.468  14.833  20.047  0.00  0.00    +0.000 C 
BRANCH  25  26
ATOM     26  C   UNL     1      10.132  14.640  20.745  0.00  0.00    +0.000 C 
BRANCH  26  27
ATOM     27  C   UNL     1       9.996  13.207  21.239  0.00  0.00    +0.000 C 
BRANCH  27  28
ATOM     28  C   UNL     1       8.547  12.901  21.595  0.00  0.00    +0.000 C 
BRANCH  28  29
ATOM     29  C   UNL     1       8.468  11.669  22.489  0.00  0.00    +0.000 C 
BRANCH  29  31
ATOM     30  C   UNL     1       7.007  11.507  24.518  0.00  0.00    +0.000 C 
ATOM     31  C   UNL     1       8.298  12.070  23.950  0.00  0.00    +0.000 C 
ENDBRANCH  29  31
ENDBRANCH  28  29
ENDBRANCH  27  28
ENDBRANCH  26  27
ENDBRANCH  25  26
ENDBRANCH  24  25
ENDBRANCH  23  24
ENDBRANCH  22  23
ENDBRANCH  21  22
ENDBRANCH  20  21
ENDBRANCH  19  20
ENDBRANCH   1  19
TORSDOF 17
ENDMDL
MODEL 4
REMARK VINA RESULT:      -6.0      5.204      7.323
REMARK  Name = 
REMARK  21 active torsions:
REMARK  status: ('A' for Active; 'I' for Inactive)
REMARK    1  A    between atoms: C_1  and  C_2
REMARK    2  A    between atoms: C_2  and  C_3
REMARK    3  A    between atoms: C_3  and  C_4
REMARK    4  A    between atoms: C_4  and  C_5
REMARK    5  A    between atoms: C_5  and  C_6
REMARK    6  A    between atoms: C_6  and  C_7
REMARK    7  A    between atoms: C_7  and  C_8
REMARK    8  A    between atoms: C_8  and  C_9
REMARK    9  A    between atoms: C_9  and  C_10
REMARK   10  A    between atoms: C_10  and  C_11
REMARK   11  A    between atoms: C_11  and  C_12
REMARK   12  A    between atoms: C_12  and  C_13
REMARK   13  A    between atoms: C_13  and  C_14
REMARK   14  A    between atoms: N_16  and  C_17
REMARK   15  A    between atoms: C_17  and  C_18
REMARK   16  A    between atoms: C_18  and  O_19
REMARK   17  A    between atoms: C_18  and  C_20
REMARK   18  A    between atoms: C_23  and  C_24
REMARK   19  A    between atoms: C_24  and  C_25
REMARK   20  A    between atoms: C_24  and  C_26
REMARK   21  A    between atoms: C_24  and  C_27
REMARK                            x       y       z     vdW  Elec       q    Type
REMARK                         _______ _______ _______ _____ _____    ______ ____
ROOT
ATOM      1  C   UNL     1       6.706   7.142  16.944  0.00  0.00    +0.000 C 
ATOM      2  O   UNL     1       5.654   7.761  16.824  0.00  0.00    +0.000 OA
ATOM      3  N   UNL     1       6.988   6.003  16.226  0.00  0.00    +0.000 N 
ATOM      4  H   UNL     1       7.752   5.406  16.527  0.00  0.00    +0.000 HD
ENDROOT
BRANCH   3   5
ATOM      5  C   UNL     1       5.977   5.505  15.308  0.00  0.00    +0.000 C 
BRANCH   5   6
ATOM      6  C   UNL     1       5.415   4.084  15.599  0.00  0.00    +0.000 C 
BRANCH   6   7
ATOM      7  C   UNL     1       4.447   4.026  16.788  0.00  0.00    +0.000 A 
ATOM      8  C   UNL     1       3.708   5.129  17.204  0.00  0.00    +0.000 A 
ATOM      9  C   UNL     1       2.908   5.059  18.349  0.00  0.00    +0.000 A 
ATOM     10  C   UNL     1       2.809   3.884  19.107  0.00  0.00    +0.000 A 
ATOM     11  C   UNL     1       3.545   2.768  18.676  0.00  0.00    +0.000 A 
ATOM     12  C   UNL     1       4.344   2.833  17.528  0.00  0.00    +0.000 A 
BRANCH  10  13
ATOM     13  C   UNL     1       1.873   3.825  20.319  0.00  0.00    +0.000 C 
ATOM     14  C   UNL     1       1.509   5.246  20.808  0.00  0.00    +0.000 C 
ATOM     15  C   UNL     1       0.578   3.087  19.923  0.00  0.00    +0.000 C 
ATOM     16  C   UNL     1       2.508   3.078  21.510  0.00  0.00    +0.000 C 
ENDBRANCH  10  13
ENDBRANCH   6   7
BRANCH   6  17
ATOM     17  O   UNL     1       6.436   3.120  15.897  0.00  0.00    +0.000 OA
ATOM     18  H   UNL     1       6.748   2.792  15.029  0.00  0.00    +0.000 HD
ENDBRANCH   6  17
ENDBRANCH   5   6
ENDBRANCH   3   5
BRANCH   1  19
ATOM     19  C   UNL     1       7.838   7.567  17.836  0.00  0.00    +0.000 C 
BRANCH  19  20
ATOM     20  C   UNL     1       7.908   9.082  17.877  0.00  0.00    +0.000 C 
BRANCH  20  21
ATOM     21  C   UNL     1       9.093   9.545  18.702  0.00  0.00    +0.000 C 
BRANCH  21  22
ATOM     22  C   UNL     1       9.412  10.991  18.357  0.00  0.00    +0.000 C 
BRANCH  22  23
ATOM     23  C   UNL     1      10.760  11.382  18.933  0.00  0.00    +0.000 C 
BRANCH  23  24
ATOM     24  C   UNL     1      10.662  11.519  20.443  0.00  0.00    +0.000 C 
BRANCH  24  25
ATOM     25  C   UNL     1      10.301  12.948  20.814  0.00  0.00    +0.000 C 
BRANCH  25  26
ATOM     26  C   UNL     1       8.905  13.002  21.413  0.00  0.00    +0.000 C 
BRANCH  26  27
ATOM     27  C   UNL     1       8.507  11.634  21.947  0.00  0.00    +0.000 C 
BRANCH  27  28
ATOM     28  C   UNL     1       7.617  11.779  23.175  0.00  0.00    +0.000 C 
BRANCH  28  29
ATOM     29  C   UNL     1       8.463  12.017  24.420  0.00  0.00    +0.000 C 
BRANCH  29  31
ATOM     30  C   UNL     1       7.937  13.445  26.410  0.00  0.00    +0.000 C 
ATOM     31  C   UNL     1       7.581  12.178  25.653  0.00  0.00    +0.000 C 
ENDBRANCH  29  31
ENDBRANCH  28  29
ENDBRANCH  27  28
ENDBRANCH  26  27
ENDBRANCH  25  26
ENDBRANCH  24  25
ENDBRANCH  23  24
ENDBRANCH  22  23
ENDBRANCH  21  22
ENDBRANCH  20  21
ENDBRANCH  19  20
ENDBRANCH   1  19
TORSDOF 17
ENDMDL
MODEL 5
REMARK VINA RESULT:      -5.9      2.536     10.057
REMARK  Name = 
REMARK  21 active torsions:
REMARK  status: ('A' for Active; 'I' for Inactive)
REMARK    1  A    between atoms: C_1  and  C_2
REMARK    2  A    between atoms: C_2  and  C_3
REMARK    3  A    between atoms: C_3  and  C_4
REMARK    4  A    between atoms: C_4  and  C_5
REMARK    5  A    between atoms: C_5  and  C_6
REMARK    6  A    between atoms: C_6  and  C_7
REMARK    7  A    between atoms: C_7  and  C_8
REMARK    8  A    between atoms: C_8  and  C_9
REMARK    9  A    between atoms: C_9  and  C_10
REMARK   10  A    between atoms: C_10  and  C_11
REMARK   11  A    between atoms: C_11  and  C_12
REMARK   12  A    between atoms: C_12  and  C_13
REMARK   13  A    between atoms: C_13  and  C_14
REMARK   14  A    between atoms: N_16  and  C_17
REMARK   15  A    between atoms: C_17  and  C_18
REMARK   16  A    between atoms: C_18  and  O_19
REMARK   17  A    between atoms: C_18  and  C_20
REMARK   18  A    between atoms: C_23  and  C_24
REMARK   19  A    between atoms: C_24  and  C_25
REMARK   20  A    between atoms: C_24  and  C_26
REMARK   21  A    between atoms: C_24  and  C_27
REMARK                            x       y       z     vdW  Elec       q    Type
REMARK                         _______ _______ _______ _____ _____    ______ ____
ROOT
ATOM      1  C   UNL     1       1.986   8.260  19.113  0.00  0.00    +0.000 C 
ATOM      2  O   UNL     1       2.160   8.844  18.048  0.00  0.00    +0.000 OA
ATOM      3  N   UNL     1       1.182   8.756  20.114  0.00  0.00    +0.000 N 
ATOM      4  H   UNL     1       1.257   8.364  21.047  0.00  0.00    +0.000 HD
ENDROOT
BRANCH   3   5
ATOM      5  C   UNL     1       0.538  10.041  19.901  0.00  0.00    +0.000 C 
BRANCH   5   6
ATOM      6  C   UNL     1       0.903  11.175  20.902  0.00  0.00    +0.000 C 
BRANCH   6   7
ATOM      7  C   UNL     1      -0.306  11.788  21.621  0.00  0.00    +0.000 A 
ATOM      8  C   UNL     1      -0.753  13.080  21.363  0.00  0.00    +0.000 A 
ATOM      9  C   UNL     1      -1.800  13.633  22.106  0.00  0.00    +0.000 A 
ATOM     10  C   UNL     1      -2.444  12.912  23.120  0.00  0.00    +0.000 A 
ATOM     11  C   UNL     1      -2.001  11.602  23.369  0.00  0.00    +0.000 A 
ATOM     12  C   UNL     1      -0.954  11.044  22.624  0.00  0.00    +0.000 A 
BRANCH  10  13
ATOM     13  C   UNL     1      -3.630  13.527  23.870  0.00  0.00    +0.000 C 
ATOM     14  C   UNL     1      -4.628  14.184  22.888  0.00  0.00    +0.000 C 
ATOM     15  C   UNL     1      -4.361  12.420  24.657  0.00  0.00    +0.000 C 
ATOM     16  C   UNL     1      -3.186  14.615  24.870  0.00  0.00    +0.000 C 
ENDBRANCH  10  13
ENDBRANCH   6   7
BRANCH   6  17
ATOM     17  O   UNL     1       1.576  12.282  20.286  0.00  0.00    +0.000 OA
ATOM     18  H   UNL     1       0.867  12.839  19.902  0.00  0.00    +0.000 HD
ENDBRANCH   6  17
ENDBRANCH   5   6
ENDBRANCH   3   5
BRANCH   1  19
ATOM     19  C   UNL     1       2.570   6.917  19.443  0.00  0.00    +0.000 C 
BRANCH  19  20
ATOM     20  C   UNL     1       1.759   6.270  20.550  0.00  0.00    +0.000 C 
BRANCH  20  21
ATOM     21  C   UNL     1       2.163   4.821  20.739  0.00  0.00    +0.000 C 
BRANCH  21  22
ATOM     22  C   UNL     1       0.971   3.924  20.445  0.00  0.00    +0.000 C 
BRANCH  22  23
ATOM     23  C   UNL     1       1.086   3.341  19.050  0.00  0.00    +0.000 C 
BRANCH  23  24
ATOM     24  C   UNL     1       2.208   2.317  19.003  0.00  0.00    +0.000 C 
BRANCH  24  25
ATOM     25  C   UNL     1       3.031   2.504  17.739  0.00  0.00    +0.000 C 
BRANCH  25  26
ATOM     26  C   UNL     1       4.249   3.368  18.023  0.00  0.00    +0.000 C 
BRANCH  26  27
ATOM     27  C   UNL     1       4.261   4.582  17.105  0.00  0.00    +0.000 C 
BRANCH  27  28
ATOM     28  C   UNL     1       5.311   5.586  17.562  0.00  0.00    +0.000 C 
BRANCH  28  29
ATOM     29  C   UNL     1       5.857   5.199  18.931  0.00  0.00    +0.000 C 
BRANCH  29  31
ATOM     30  C   UNL     1       7.632   6.739  18.064  0.00  0.00    +0.000 C 
ATOM     31  C   UNL     1       7.292   5.683  19.100  0.00  0.00    +0.000 C 
ENDBRANCH  29  31
ENDBRANCH  28  29
ENDBRANCH  27  28
ENDBRANCH  26  27
ENDBRANCH  25  26
ENDBRANCH  24  25
ENDBRANCH  23  24
ENDBRANCH  22  23
ENDBRANCH  21  22
ENDBRANCH  20  21
ENDBRANCH  19  20
ENDBRANCH   1  19
TORSDOF 17
ENDMDL
MODEL 6
REMARK VINA RESULT:      -5.8      2.786     10.207
REMARK  Name = 
REMARK  21 active torsions:
REMARK  status: ('A' for Active; 'I' for Inactive)
REMARK    1  A    between atoms: C_1  and  C_2
REMARK    2  A    between atoms: C_2  and  C_3
REMARK    3  A    between atoms: C_3  and  C_4
REMARK    4  A    between atoms: C_4  and  C_5
REMARK    5  A    between atoms: C_5  and  C_6
REMARK    6  A    between atoms: C_6  and  C_7
REMARK    7  A    between atoms: C_7  and  C_8
REMARK    8  A    between atoms: C_8  and  C_9
REMARK    9  A    between atoms: C_9  and  C_10
REMARK   10  A    between atoms: C_10  and  C_11
REMARK   11  A    between atoms: C_11  and  C_12
REMARK   12  A    between atoms: C_12  and  C_13
REMARK   13  A    between atoms: C_13  and  C_14
REMARK   14  A    between atoms: N_16  and  C_17
REMARK   15  A    between atoms: C_17  and  C_18
REMARK   16  A    between atoms: C_18  and  O_19
REMARK   17  A    between atoms: C_18  and  C_20
REMARK   18  A    between atoms: C_23  and  C_24
REMARK   19  A    between atoms: C_24  and  C_25
REMARK   20  A    between atoms: C_24  and  C_26
REMARK   21  A    between atoms: C_24  and  C_27
REMARK                            x       y       z     vdW  Elec       q    Type
REMARK                         _______ _______ _______ _____ _____    ______ ____
ROOT
ATOM      1  C   UNL     1       1.197   9.277  18.684  0.00  0.00    +0.000 C 
ATOM      2  O   UNL     1       1.035   9.455  19.887  0.00  0.00    +0.000 OA
ATOM      3  N   UNL     1       0.332   9.770  17.733  0.00  0.00    +0.000 N 
ATOM      4  H   UNL     1       0.375   9.404  16.788  0.00  0.00    +0.000 HD
ENDROOT
BRANCH   3   5
ATOM      5  C   UNL     1      -0.834  10.511  18.187  0.00  0.00    +0.000 C 
BRANCH   5   6
ATOM      6  C   UNL     1      -0.602  12.000  18.575  0.00  0.00    +0.000 C 
BRANCH   6   7
ATOM      7  C   UNL     1      -1.325  12.431  19.858  0.00  0.00    +0.000 A 
ATOM      8  C   UNL     1      -2.713  12.446  19.965  0.00  0.00    +0.000 A 
ATOM      9  C   UNL     1      -3.332  12.934  21.120  0.00  0.00    +0.000 A 
ATOM     10  C   UNL     1      -2.589  13.410  22.209  0.00  0.00    +0.000 A 
ATOM     11  C   UNL     1      -1.189  13.380  22.103  0.00  0.00    +0.000 A 
ATOM     12  C   UNL     1      -0.565  12.889  20.950  0.00  0.00    +0.000 A 
BRANCH  10  13
ATOM     13  C   UNL     1      -3.302  13.879  23.482  0.00  0.00    +0.000 C 
ATOM     14  C   UNL     1      -2.305  14.538  24.464  0.00  0.00    +0.000 C 
ATOM     15  C   UNL     1      -4.385  14.909  23.105  0.00  0.00    +0.000 C 
ATOM     16  C   UNL     1      -3.983  12.715  24.231  0.00  0.00    +0.000 C 
ENDBRANCH  10  13
ENDBRANCH   6   7
BRANCH   6  17
ATOM     17  O   UNL     1      -1.040  12.923  17.568  0.00  0.00    +0.000 OA
ATOM     18  H   UNL     1      -1.780  12.477  17.107  0.00  0.00    +0.000 HD
ENDBRANCH   6  17
ENDBRANCH   5   6
ENDBRANCH   3   5
BRANCH   1  19
ATOM     19  C   UNL     1       2.371   8.555  18.088  0.00  0.00    +0.000 C 
BRANCH  19  20
ATOM     20  C   UNL     1       2.182   7.059  18.250  0.00  0.00    +0.000 C 
BRANCH  20  21
ATOM     21  C   UNL     1       2.837   6.567  19.526  0.00  0.00    +0.000 C 
BRANCH  21  22
ATOM     22  C   UNL     1       1.816   5.802  20.353  0.00  0.00    +0.000 C 
BRANCH  22  23
ATOM     23  C   UNL     1       2.239   4.352  20.497  0.00  0.00    +0.000 C 
BRANCH  23  24
ATOM     24  C   UNL     1       1.023   3.444  20.417  0.00  0.00    +0.000 C 
BRANCH  24  25
ATOM     25  C   UNL     1       0.839   2.946  18.992  0.00  0.00    +0.000 C 
BRANCH  25  26
ATOM     26  C   UNL     1       2.154   2.419  18.442  0.00  0.00    +0.000 C 
BRANCH  26  27
ATOM     27  C   UNL     1       2.676   3.340  17.349  0.00  0.00    +0.000 C 
BRANCH  27  28
ATOM     28  C   UNL     1       4.188   3.211  17.220  0.00  0.00    +0.000 C 
BRANCH  28  29
ATOM     29  C   UNL     1       4.871   4.508  17.637  0.00  0.00    +0.000 C 
BRANCH  29  31
ATOM     30  C   UNL     1       5.789   6.682  16.796  0.00  0.00    +0.000 C 
ATOM     31  C   UNL     1       4.868   5.515  16.492  0.00  0.00    +0.000 C 
ENDBRANCH  29  31
ENDBRANCH  28  29
ENDBRANCH  27  28
ENDBRANCH  26  27
ENDBRANCH  25  26
ENDBRANCH  24  25
ENDBRANCH  23  24
ENDBRANCH  22  23
ENDBRANCH  21  22
ENDBRANCH  20  21
ENDBRANCH  19  20
ENDBRANCH   1  19
TORSDOF 17
ENDMDL
MODEL 7
REMARK VINA RESULT:      -5.8      1.654      2.145
REMARK  Name = 
REMARK  21 active torsions:
REMARK  status: ('A' for Active; 'I' for Inactive)
REMARK    1  A    between atoms: C_1  and  C_2
REMARK    2  A    between atoms: C_2  and  C_3
REMARK    3  A    between atoms: C_3  and  C_4
REMARK    4  A    between atoms: C_4  and  C_5
REMARK    5  A    between atoms: C_5  and  C_6
REMARK    6  A    between atoms: C_6  and  C_7
REMARK    7  A    between atoms: C_7  and  C_8
REMARK    8  A    between atoms: C_8  and  C_9
REMARK    9  A    between atoms: C_9  and  C_10
REMARK   10  A    between atoms: C_10  and  C_11
REMARK   11  A    between atoms: C_11  and  C_12
REMARK   12  A    between atoms: C_12  and  C_13
REMARK   13  A    between atoms: C_13  and  C_14
REMARK   14  A    between atoms: N_16  and  C_17
REMARK   15  A    between atoms: C_17  and  C_18
REMARK   16  A    between atoms: C_18  and  O_19
REMARK   17  A    between atoms: C_18  and  C_20
REMARK   18  A    between atoms: C_23  and  C_24
REMARK   19  A    between atoms: C_24  and  C_25
REMARK   20  A    between atoms: C_24  and  C_26
REMARK   21  A    between atoms: C_24  and  C_27
REMARK                            x       y       z     vdW  Elec       q    Type
REMARK                         _______ _______ _______ _____ _____    ______ ____
ROOT
ATOM      1  C   UNL     1       1.709   4.742  20.692  0.00  0.00    +0.000 C 
ATOM      2  O   UNL     1       2.226   4.267  21.698  0.00  0.00    +0.000 OA
ATOM      3  N   UNL     1       1.275   3.968  19.640  0.00  0.00    +0.000 N 
ATOM      4  H   UNL     1       1.078   4.412  18.748  0.00  0.00    +0.000 HD
ENDROOT
BRANCH   3   5
ATOM      5  C   UNL     1       1.465   2.530  19.723  0.00  0.00    +0.000 C 
BRANCH   5   6
ATOM      6  C   UNL     1       2.909   2.005  19.474  0.00  0.00    +0.000 C 
BRANCH   6   7
ATOM      7  C   UNL     1       3.793   2.966  18.669  0.00  0.00    +0.000 A 
ATOM      8  C   UNL     1       4.827   3.694  19.249  0.00  0.00    +0.000 A 
ATOM      9  C   UNL     1       5.548   4.628  18.499  0.00  0.00    +0.000 A 
ATOM     10  C   UNL     1       5.271   4.857  17.145  0.00  0.00    +0.000 A 
ATOM     11  C   UNL     1       4.235   4.112  16.558  0.00  0.00    +0.000 A 
ATOM     12  C   UNL     1       3.513   3.172  17.305  0.00  0.00    +0.000 A 
BRANCH  10  13
ATOM     13  C   UNL     1       6.123   5.843  16.339  0.00  0.00    +0.000 C 
ATOM     14  C   UNL     1       7.042   5.097  15.344  0.00  0.00    +0.000 C 
ATOM     15  C   UNL     1       5.193   6.786  15.548  0.00  0.00    +0.000 C 
ATOM     16  C   UNL     1       7.028   6.706  17.242  0.00  0.00    +0.000 C 
ENDBRANCH  10  13
ENDBRANCH   6   7
BRANCH   6  17
ATOM     17  O   UNL     1       2.945   0.765  18.752  0.00  0.00    +0.000 OA
ATOM     18  H   UNL     1       2.203   0.811  18.114  0.00  0.00    +0.000 HD
ENDBRANCH   6  17
ENDBRANCH   5   6
ENDBRANCH   3   5
BRANCH   1  19
ATOM     19  C   UNL     1       1.432   6.204  20.496  0.00  0.00    +0.000 C 
BRANCH  19  20
ATOM     20  C   UNL     1       2.610   6.853  19.794  0.00  0.00    +0.000 C 
BRANCH  20  21
ATOM     21  C   UNL     1       2.351   6.977  18.305  0.00  0.00    +0.000 C 
BRANCH  21  22
ATOM     22  C   UNL     1       2.655   8.398  17.858  0.00  0.00    +0.000 C 
BRANCH  22  23
ATOM     23  C   UNL     1       1.369   9.186  17.704  0.00  0.00    +0.000 C 
BRANCH  23  24
ATOM     24  C   UNL     1       1.102  10.000  18.960  0.00  0.00    +0.000 C 
BRANCH  24  25
ATOM     25  C   UNL     1      -0.310  10.561  18.927  0.00  0.00    +0.000 C 
BRANCH  25  26
ATOM     26  C   UNL     1      -0.325  11.988  19.450  0.00  0.00    +0.000 C 
BRANCH  26  27
ATOM     27  C   UNL     1       0.686  12.838  18.694  0.00  0.00    +0.000 C 
BRANCH  27  28
ATOM     28  C   UNL     1       1.309  13.875  19.619  0.00  0.00    +0.000 C 
BRANCH  28  29
ATOM     29  C   UNL     1       1.247  15.259  18.985  0.00  0.00    +0.000 C 
BRANCH  29  31
ATOM     30  C   UNL     1      -0.929  16.029  19.957  0.00  0.00    +0.000 C 
ATOM     31  C   UNL     1      -0.194  15.655  18.683  0.00  0.00    +0.000 C 
ENDBRANCH  29  31
ENDBRANCH  28  29
ENDBRANCH  27  28
ENDBRANCH  26  27
ENDBRANCH  25  26
ENDBRANCH  24  25
ENDBRANCH  23  24
ENDBRANCH  22  23
ENDBRANCH  21  22
ENDBRANCH  20  21
ENDBRANCH  19  20
ENDBRANCH   1  19
TORSDOF 17
ENDMDL
MODEL 8
REMARK VINA RESULT:      -5.8      2.408     10.092
REMARK  Name = 
REMARK  21 active torsions:
REMARK  status: ('A' for Active; 'I' for Inactive)
REMARK    1  A    between atoms: C_1  and  C_2
REMARK    2  A    between atoms: C_2  and  C_3
REMARK    3  A    between atoms: C_3  and  C_4
REMARK    4  A    between atoms: C_4  and  C_5
REMARK    5  A    between atoms: C_5  and  C_6
REMARK    6  A    between atoms: C_6  and  C_7
REMARK    7  A    between atoms: C_7  and  C_8
REMARK    8  A    between atoms: C_8  and  C_9
REMARK    9  A    between atoms: C_9  and  C_10
REMARK   10  A    between atoms: C_10  and  C_11
REMARK   11  A    between atoms: C_11  and  C_12
REMARK   12  A    between atoms: C_12  and  C_13
REMARK   13  A    between atoms: C_13  and  C_14
REMARK   14  A    between atoms: N_16  and  C_17
REMARK   15  A    between atoms: C_17  and  C_18
REMARK   16  A    between atoms: C_18  and  O_19
REMARK   17  A    between atoms: C_18  and  C_20
REMARK   18  A    between atoms: C_23  and  C_24
REMARK   19  A    between atoms: C_24  and  C_25
REMARK   20  A    between atoms: C_24  and  C_26
REMARK   21  A    between atoms: C_24  and  C_27
REMARK                            x       y       z     vdW  Elec       q    Type
REMARK                         _______ _______ _______ _____ _____    ______ ____
ROOT
ATOM      1  C   UNL     1       2.033   7.830  19.142  0.00  0.00    +0.000 C 
ATOM      2  O   UNL     1       2.098   8.248  17.990  0.00  0.00    +0.000 OA
ATOM      3  N   UNL     1       1.344   8.485  20.137  0.00  0.00    +0.000 N 
ATOM      4  H   UNL     1       1.514   8.233  21.105  0.00  0.00    +0.000 HD
ENDROOT
BRANCH   3   5
ATOM      5  C   UNL     1       0.690   9.740  19.804  0.00  0.00    +0.000 C 
BRANCH   5   6
ATOM      6  C   UNL     1       0.978  10.944  20.746  0.00  0.00    +0.000 C 
BRANCH   6   7
ATOM      7  C   UNL     1      -0.272  11.523  21.421  0.00  0.00    +0.000 A 
ATOM      8  C   UNL     1      -0.734  11.069  22.653  0.00  0.00    +0.000 A 
ATOM      9  C   UNL     1      -1.929  11.559  23.189  0.00  0.00    +0.000 A 
ATOM     10  C   UNL     1      -2.693  12.525  22.522  0.00  0.00    +0.000 A 
ATOM     11  C   UNL     1      -2.217  12.992  21.286  0.00  0.00    +0.000 A 
ATOM     12  C   UNL     1      -1.019  12.506  20.747  0.00  0.00    +0.000 A 
BRANCH  10  13
ATOM     13  C   UNL     1      -3.965  13.085  23.170  0.00  0.00    +0.000 C 
ATOM     14  C   UNL     1      -3.868  14.618  23.348  0.00  0.00    +0.000 C 
ATOM     15  C   UNL     1      -5.175  12.763  22.269  0.00  0.00    +0.000 C 
ATOM     16  C   UNL     1      -4.226  12.475  24.563  0.00  0.00    +0.000 C 
ENDBRANCH  10  13
ENDBRANCH   6   7
BRANCH   6  17
ATOM     17  O   UNL     1       1.593  12.054  20.076  0.00  0.00    +0.000 OA
ATOM     18  H   UNL     1       1.005  12.262  19.320  0.00  0.00    +0.000 HD
ENDBRANCH   6  17
ENDBRANCH   5   6
ENDBRANCH   3   5
BRANCH   1  19
ATOM     19  C   UNL     1       2.640   6.537  19.605  0.00  0.00    +0.000 C 
BRANCH  19  20
ATOM     20  C   UNL     1       1.776   5.934  20.696  0.00  0.00    +0.000 C 
BRANCH  20  21
ATOM     21  C   UNL     1       1.063   4.693  20.196  0.00  0.00    +0.000 C 
BRANCH  21  22
ATOM     22  C   UNL     1       1.588   3.476  20.942  0.00  0.00    +0.000 C 
BRANCH  22  23
ATOM     23  C   UNL     1       2.165   2.471  19.963  0.00  0.00    +0.000 C 
BRANCH  23  24
ATOM     24  C   UNL     1       1.428   2.551  18.637  0.00  0.00    +0.000 C 
BRANCH  24  25
ATOM     25  C   UNL     1       2.303   3.227  17.594  0.00  0.00    +0.000 C 
BRANCH  25  26
ATOM     26  C   UNL     1       3.739   2.745  17.716  0.00  0.00    +0.000 C 
BRANCH  26  27
ATOM     27  C   UNL     1       4.679   3.927  17.907  0.00  0.00    +0.000 C 
BRANCH  27  28
ATOM     28  C   UNL     1       4.434   4.981  16.836  0.00  0.00    +0.000 C 
BRANCH  28  29
ATOM     29  C   UNL     1       5.755   5.446  16.235  0.00  0.00    +0.000 C 
BRANCH  29  31
ATOM     30  C   UNL     1       6.078   4.017  14.203  0.00  0.00    +0.000 C 
ATOM     31  C   UNL     1       6.520   4.273  15.632  0.00  0.00    +0.000 C 
ENDBRANCH  29  31
ENDBRANCH  28  29
ENDBRANCH  27  28
ENDBRANCH  26  27
ENDBRANCH  25  26
ENDBRANCH  24  25
ENDBRANCH  23  24
ENDBRANCH  22  23
ENDBRANCH  21  22
ENDBRANCH  20  21
ENDBRANCH  19  20
ENDBRANCH   1  19
TORSDOF 17
ENDMDL
MODEL 9
REMARK VINA RESULT:      -5.8      1.224      1.542
REMARK  Name = 
REMARK  21 active torsions:
REMARK  status: ('A' for Active; 'I' for Inactive)
REMARK    1  A    between atoms: C_1  and  C_2
REMARK    2  A    between atoms: C_2  and  C_3
REMARK    3  A    between atoms: C_3  and  C_4
REMARK    4  A    between atoms: C_4  and  C_5
REMARK    5  A    between atoms: C_5  and  C_6
REMARK    6  A    between atoms: C_6  and  C_7
REMARK    7  A    between atoms: C_7  and  C_8
REMARK    8  A    between atoms: C_8  and  C_9
REMARK    9  A    between atoms: C_9  and  C_10
REMARK   10  A    between atoms: C_10  and  C_11
REMARK   11  A    between atoms: C_11  and  C_12
REMARK   12  A    between atoms: C_12  and  C_13
REMARK   13  A    between atoms: C_13  and  C_14
REMARK   14  A    between atoms: N_16  and  C_17
REMARK   15  A    between atoms: C_17  and  C_18
REMARK   16  A    between atoms: C_18  and  O_19
REMARK   17  A    between atoms: C_18  and  C_20
REMARK   18  A    between atoms: C_23  and  C_24
REMARK   19  A    between atoms: C_24  and  C_25
REMARK   20  A    between atoms: C_24  and  C_26
REMARK   21  A    between atoms: C_24  and  C_27
REMARK                            x       y       z     vdW  Elec       q    Type
REMARK                         _______ _______ _______ _____ _____    ______ ____
ROOT
ATOM      1  C   UNL     1       1.895   5.498  20.485  0.00  0.00    +0.000 C 
ATOM      2  O   UNL     1       2.519   5.150  21.482  0.00  0.00    +0.000 OA
ATOM      3  N   UNL     1       1.036   4.660  19.811  0.00  0.00    +0.000 N 
ATOM      4  H   UNL     1       0.733   4.910  18.876  0.00  0.00    +0.000 HD
ENDROOT
BRANCH   3   5
ATOM      5  C   UNL     1       0.890   3.297  20.295  0.00  0.00    +0.000 C 
BRANCH   5   6
ATOM      6  C   UNL     1       1.822   2.229  19.655  0.00  0.00    +0.000 C 
BRANCH   6   7
ATOM      7  C   UNL     1       2.962   2.818  18.813  0.00  0.00    +0.000 A 
ATOM      8  C   UNL     1       4.218   3.095  19.345  0.00  0.00    +0.000 A 
ATOM      9  C   UNL     1       5.198   3.718  18.567  0.00  0.00    +0.000 A 
ATOM     10  C   UNL     1       4.963   4.073  17.232  0.00  0.00    +0.000 A 
ATOM     11  C   UNL     1       3.699   3.780  16.694  0.00  0.00    +0.000 A 
ATOM     12  C   UNL     1       2.716   3.153  17.468  0.00  0.00    +0.000 A 
BRANCH  10  13
ATOM     13  C   UNL     1       6.082   4.697  16.391  0.00  0.00    +0.000 C 
ATOM     14  C   UNL     1       7.450   4.563  17.101  0.00  0.00    +0.000 C 
ATOM     15  C   UNL     1       6.154   3.975  15.030  0.00  0.00    +0.000 C 
ATOM     16  C   UNL     1       5.846   6.198  16.128  0.00  0.00    +0.000 C 
ENDBRANCH  10  13
ENDBRANCH   6   7
BRANCH   6  17
ATOM     17  O   UNL     1       1.133   1.327  18.777  0.00  0.00    +0.000 OA
ATOM     18  H   UNL     1       0.309   1.083  19.246  0.00  0.00    +0.000 HD
ENDBRANCH   6  17
ENDBRANCH   5   6
ENDBRANCH   3   5
BRANCH   1  19
ATOM     19  C   UNL     1       1.938   6.882  19.903  0.00  0.00    +0.000 C 
BRANCH  19  20
ATOM     20  C   UNL     1       2.475   6.819  18.486  0.00  0.00    +0.000 C 
BRANCH  20  21
ATOM     21  C   UNL     1       2.806   8.206  17.972  0.00  0.00    +0.000 C 
BRANCH  21  22
ATOM     22  C   UNL     1       1.533   9.035  17.903  0.00  0.00    +0.000 C 
BRANCH  22  23
ATOM     23  C   UNL     1       1.868  10.514  17.940  0.00  0.00    +0.000 C 
BRANCH  23  24
ATOM     24  C   UNL     1       1.236  11.161  19.161  0.00  0.00    +0.000 C 
BRANCH  24  25
ATOM     25  C   UNL     1       0.170  10.247  19.743  0.00  0.00    +0.000 C 
BRANCH  25  26
ATOM     26  C   UNL     1      -1.206  10.876  19.592  0.00  0.00    +0.000 C 
BRANCH  26  27
ATOM     27  C   UNL     1      -1.286  12.167  20.395  0.00  0.00    +0.000 C 
BRANCH  27  28
ATOM     28  C   UNL     1      -2.641  12.834  20.197  0.00  0.00    +0.000 C 
BRANCH  28  29
ATOM     29  C   UNL     1      -3.042  13.605  21.449  0.00  0.00    +0.000 C 
BRANCH  29  31
ATOM     30  C   UNL     1      -3.184  12.237  23.543  0.00  0.00    +0.000 C 
ATOM     31  C   UNL     1      -3.947  12.761  22.340  0.00  0.00    +0.000 C 
ENDBRANCH  29  31
ENDBRANCH  28  29
ENDBRANCH  27  28
ENDBRANCH  26  27
ENDBRANCH  25  26
ENDBRANCH  24  25
ENDBRANCH  23  24
ENDBRANCH  22  23
ENDBRANCH  21  22
ENDBRANCH  20  21
ENDBRANCH  19  20
ENDBRANCH   1  19
TORSDOF 17
ENDMDL
