MODEL 1
REMARK VINA RESULT:      -8.0      0.000      0.000
REMARK  Name = 
REMARK  8 active torsions:
REMARK  status: ('A' for Active; 'I' for Inactive)
REMARK    1  A    between atoms: C_1  and  C_2
REMARK    2  A    between atoms: C_2  and  C_3
REMARK    3  A    between atoms: C_14  and  C_16
REMARK    4  A    between atoms: C_16  and  O_17
REMARK    5  A    between atoms: O_17  and  C_18
REMARK    6  A    between atoms: C_18  and  C_20
REMARK    7  A    between atoms: C_20  and  S_21
REMARK    8  A    between atoms: S_21  and  C_22
REMARK                            x       y       z     vdW  Elec       q    Type
REMARK                         _______ _______ _______ _____ _____    ______ ____
ROOT
ATOM      1  C   UNL     1       2.250   9.172  17.733  0.00  0.00    +0.000 C 
ATOM      2  C   UNL     1       1.261   9.812  18.728  0.00  0.00    +0.000 C 
ATOM      3  C   UNL     1      -0.125   9.782  18.034  0.00  0.00    +0.000 C 
ATOM      4  C   UNL     1       1.698  11.300  18.824  0.00  0.00    +0.000 C 
ATOM      5  O   UNL     1       2.386  11.874  17.979  0.00  0.00    +0.000 OA
ATOM      6  N   UNL     1       1.101  12.044  19.795  0.00  0.00    +0.000 N 
ATOM      7  C   UNL     1       0.382  11.480  20.845  0.00  0.00    +0.000 A 
ATOM      8  C   UNL     1      -0.289  12.362  21.701  0.00  0.00    +0.000 A 
ATOM      9  C   UNL     1      -0.976  11.872  22.804  0.00  0.00    +0.000 A 
ATOM     10  C   UNL     1      -0.987  10.505  23.045  0.00  0.00    +0.000 A 
ATOM     11  C   UNL     1      -0.325   9.626  22.178  0.00  0.00    +0.000 A 
ATOM     12  C   UNL     1       0.387  10.087  21.059  0.00  0.00    +0.000 A 
ATOM     13  N   UNL     1       1.119   9.207  20.135  0.00  0.00    +0.000 N 
ATOM     14  C   UNL     1       1.505   7.924  20.584  0.00  0.00    +0.000 C 
ATOM     15  O   UNL     1       1.292   7.492  21.723  0.00  0.00    +0.000 OA
ATOM     16  H   UNL     1       1.259  13.041  19.754  0.00  0.00    +0.000 HD
ENDROOT
BRANCH  14  17
ATOM     17  C   UNL     1       2.263   6.992  19.643  0.00  0.00    +0.000 C 
BRANCH  17  18
ATOM     18  O   UNL     1       2.546   5.680  20.136  0.00  0.00    +0.000 OA
BRANCH  18  19
ATOM     19  C   UNL     1       1.742   4.707  19.619  0.00  0.00    +0.000 C 
ATOM     20  O   UNL     1       1.030   3.965  20.285  0.00  0.00    +0.000 OA
BRANCH  19  21
ATOM     21  C   UNL     1       1.891   4.588  18.115  0.00  0.00    +0.000 C 
BRANCH  21  22
ATOM     22  S   UNL     1       3.346   3.539  17.717  0.00  0.00    +0.000 S 
BRANCH  22  23
ATOM     23  C   UNL     1       4.692   4.698  17.703  0.00  0.00    +0.000 A 
ATOM     24  C   UNL     1       4.650   5.722  16.739  0.00  0.00    +0.000 A 
ATOM     25  C   UNL     1       5.637   6.715  16.710  0.00  0.00    +0.000 A 
ATOM     26  C   UNL     1       6.665   6.689  17.641  0.00  0.00    +0.000 A 
ATOM     27 CL   UNL     1       7.875   7.914  17.617  0.00  0.00    +0.000 Cl
ATOM     28  C   UNL     1       6.717   5.684  18.600  0.00  0.00    +0.000 A 
ATOM     29  C   UNL     1       5.732   4.689  18.632  0.00  0.00    +0.000 A 
ENDBRANCH  22  23
ENDBRANCH  21  22
ENDBRANCH  19  21
ENDBRANCH  18  19
ENDBRANCH  17  18
ENDBRANCH  14  17
TORSDOF 6
ENDMDL
MODEL 2
REMARK VINA RESULT:      -7.9      3.815      8.237
REMARK  Name = 
REMARK  8 active torsions:
REMARK  status: ('A' for Active; 'I' for Inactive)
REMARK    1  A    between atoms: C_1  and  C_2
REMARK    2  A    between atoms: C_2  and  C_3
REMARK    3  A    between atoms: C_14  and  C_16
REMARK    4  A    between atoms: C_16  and  O_17
REMARK    5  A    between atoms: O_17  and  C_18
REMARK    6  A    between atoms: C_18  and  C_20
REMARK    7  A    between atoms: C_20  and  S_21
REMARK    8  A    between atoms: S_21  and  C_22
REMARK                            x       y       z     vdW  Elec       q    Type
REMARK                         _______ _______ _______ _____ _____    ______ ____
ROOT
ATOM      1  C   UNL     1       1.809   4.216  20.448  0.00  0.00    +0.000 C 
ATOM      2  C   UNL     1       2.626   4.236  19.140  0.00  0.00    +0.000 C 
ATOM      3  C   UNL     1       1.734   3.559  18.068  0.00  0.00    +0.000 C 
ATOM      4  C   UNL     1       3.828   3.288  19.407  0.00  0.00    +0.000 C 
ATOM      5  O   UNL     1       3.849   2.429  20.290  0.00  0.00    +0.000 OA
ATOM      6  N   UNL     1       4.814   3.283  18.468  0.00  0.00    +0.000 N 
ATOM      7  C   UNL     1       4.929   4.265  17.488  0.00  0.00    +0.000 A 
ATOM      8  C   UNL     1       5.909   4.071  16.507  0.00  0.00    +0.000 A 
ATOM      9  C   UNL     1       6.120   5.039  15.533  0.00  0.00    +0.000 A 
ATOM     10  C   UNL     1       5.351   6.194  15.547  0.00  0.00    +0.000 A 
ATOM     11  C   UNL     1       4.362   6.377  16.524  0.00  0.00    +0.000 A 
ATOM     12  C   UNL     1       4.129   5.424  17.528  0.00  0.00    +0.000 A 
ATOM     13  N   UNL     1       3.122   5.582  18.588  0.00  0.00    +0.000 N 
ATOM     14  C   UNL     1       2.665   6.883  18.902  0.00  0.00    +0.000 C 
ATOM     15  O   UNL     1       3.078   7.914  18.357  0.00  0.00    +0.000 OA
ATOM     16  H   UNL     1       5.509   2.556  18.555  0.00  0.00    +0.000 HD
ENDROOT
BRANCH  14  17
ATOM     17  C   UNL     1       1.619   7.073  19.996  0.00  0.00    +0.000 C 
BRANCH  17  18
ATOM     18  O   UNL     1       1.791   8.205  20.852  0.00  0.00    +0.000 OA
BRANCH  18  19
ATOM     19  C   UNL     1       0.625   8.824  21.195  0.00  0.00    +0.000 C 
ATOM     20  O   UNL     1      -0.405   8.241  21.515  0.00  0.00    +0.000 OA
BRANCH  19  21
ATOM     21  C   UNL     1       0.720  10.331  21.058  0.00  0.00    +0.000 C 
BRANCH  21  22
ATOM     22  S   UNL     1       0.899  10.781  19.286  0.00  0.00    +0.000 S 
BRANCH  22  23
ATOM     23  C   UNL     1      -0.781  10.973  18.742  0.00  0.00    +0.000 A 
ATOM     24  C   UNL     1      -1.226  10.124  17.713  0.00  0.00    +0.000 A 
ATOM     25  C   UNL     1      -2.557  10.166  17.279  0.00  0.00    +0.000 A 
ATOM     26  C   UNL     1      -3.445  11.053  17.871  0.00  0.00    +0.000 A 
ATOM     27 CL   UNL     1      -5.084  11.101  17.349  0.00  0.00    +0.000 Cl
ATOM     28  C   UNL     1      -3.017  11.897  18.891  0.00  0.00    +0.000 A 
ATOM     29  C   UNL     1      -1.687  11.857  19.326  0.00  0.00    +0.000 A 
ENDBRANCH  22  23
ENDBRANCH  21  22
ENDBRANCH  19  21
ENDBRANCH  18  19
ENDBRANCH  17  18
ENDBRANCH  14  17
TORSDOF 6
ENDMDL
MODEL 3
REMARK VINA RESULT:      -7.9      3.965      8.471
REMARK  Name = 
REMARK  8 active torsions:
REMARK  status: ('A' for Active; 'I' for Inactive)
REMARK    1  A    between atoms: C_1  and  C_2
REMARK    2  A    between atoms: C_2  and  C_3
REMARK    3  A    between atoms: C_14  and  C_16
REMARK    4  A    between atoms: C_16  and  O_17
REMARK    5  A    between atoms: O_17  and  C_18
REMARK    6  A    between atoms: C_18  and  C_20
REMARK    7  A    between atoms: C_20  and  S_21
REMARK    8  A    between atoms: S_21  and  C_22
REMARK                            x       y       z     vdW  Elec       q    Type
REMARK                         _______ _______ _______ _____ _____    ______ ____
ROOT
ATOM      1  C   UNL     1       1.846   4.627  20.250  0.00  0.00    +0.000 C 
ATOM      2  C   UNL     1       2.634   4.452  18.936  0.00  0.00    +0.000 C 
ATOM      3  C   UNL     1       1.633   3.860  17.910  0.00  0.00    +0.000 C 
ATOM      4  C   UNL     1       3.685   3.349  19.246  0.00  0.00    +0.000 C 
ATOM      5  O   UNL     1       3.590   2.546  20.176  0.00  0.00    +0.000 OA
ATOM      6  N   UNL     1       4.643   3.144  18.302  0.00  0.00    +0.000 N 
ATOM      7  C   UNL     1       4.888   4.043  17.267  0.00  0.00    +0.000 A 
ATOM      8  C   UNL     1       5.813   3.650  16.291  0.00  0.00    +0.000 A 
ATOM      9  C   UNL     1       6.151   4.520  15.263  0.00  0.00    +0.000 A 
ATOM     10  C   UNL     1       5.565   5.778  15.218  0.00  0.00    +0.000 A 
ATOM     11  C   UNL     1       4.631   6.161  16.190  0.00  0.00    +0.000 A 
ATOM     12  C   UNL     1       4.273   5.310  17.248  0.00  0.00    +0.000 A 
ATOM     13  N   UNL     1       3.318   5.676  18.306  0.00  0.00    +0.000 N 
ATOM     14  C   UNL     1       3.068   7.046  18.549  0.00  0.00    +0.000 C 
ATOM     15  O   UNL     1       3.622   7.972  17.945  0.00  0.00    +0.000 OA
ATOM     16  H   UNL     1       5.222   2.326  18.423  0.00  0.00    +0.000 HD
ENDROOT
BRANCH  14  17
ATOM     17  C   UNL     1       2.080   7.451  19.639  0.00  0.00    +0.000 C 
BRANCH  17  18
ATOM     18  O   UNL     1       1.479   8.741  19.508  0.00  0.00    +0.000 OA
BRANCH  18  19
ATOM     19  C   UNL     1       0.856   9.182  20.638  0.00  0.00    +0.000 C 
ATOM     20  O   UNL     1       0.336   8.454  21.475  0.00  0.00    +0.000 OA
BRANCH  19  21
ATOM     21  C   UNL     1       0.806  10.696  20.705  0.00  0.00    +0.000 C 
BRANCH  21  22
ATOM     22  S   UNL     1       0.649  11.386  19.010  0.00  0.00    +0.000 S 
BRANCH  22  23
ATOM     23  C   UNL     1      -1.074  11.169  18.639  0.00  0.00    +0.000 A 
ATOM     24  C   UNL     1      -1.980  12.058  19.245  0.00  0.00    +0.000 A 
ATOM     25  C   UNL     1      -3.347  11.997  18.947  0.00  0.00    +0.000 A 
ATOM     26  C   UNL     1      -3.811  11.051  18.043  0.00  0.00    +0.000 A 
ATOM     27 CL   UNL     1      -5.489  10.979  17.664  0.00  0.00    +0.000 Cl
ATOM     28  C   UNL     1      -2.925  10.168  17.435  0.00  0.00    +0.000 A 
ATOM     29  C   UNL     1      -1.557  10.227  17.732  0.00  0.00    +0.000 A 
ENDBRANCH  22  23
ENDBRANCH  21  22
ENDBRANCH  19  21
ENDBRANCH  18  19
ENDBRANCH  17  18
ENDBRANCH  14  17
TORSDOF 6
ENDMDL
MODEL 4
REMARK VINA RESULT:      -7.8      3.632      7.973
REMARK  Name = 
REMARK  8 active torsions:
REMARK  status: ('A' for Active; 'I' for Inactive)
REMARK    1  A    between atoms: C_1  and  C_2
REMARK    2  A    between atoms: C_2  and  C_3
REMARK    3  A    between atoms: C_14  and  C_16
REMARK    4  A    between atoms: C_16  and  O_17
REMARK    5  A    between atoms: O_17  and  C_18
REMARK    6  A    between atoms: C_18  and  C_20
REMARK    7  A    between atoms: C_20  and  S_21
REMARK    8  A    between atoms: S_21  and  C_22
REMARK                            x       y       z     vdW  Elec       q    Type
REMARK                         _______ _______ _______ _____ _____    ______ ____
ROOT
ATOM      1  C   UNL     1       1.833   4.181  20.748  0.00  0.00    +0.000 C 
ATOM      2  C   UNL     1       2.618   4.243  19.422  0.00  0.00    +0.000 C 
ATOM      3  C   UNL     1       1.722   3.555  18.360  0.00  0.00    +0.000 C 
ATOM      4  C   UNL     1       3.854   3.327  19.647  0.00  0.00    +0.000 C 
ATOM      5  O   UNL     1       3.920   2.457  20.517  0.00  0.00    +0.000 OA
ATOM      6  N   UNL     1       4.817   3.365  18.686  0.00  0.00    +0.000 N 
ATOM      7  C   UNL     1       4.880   4.363  17.718  0.00  0.00    +0.000 A 
ATOM      8  C   UNL     1       5.843   4.212  16.712  0.00  0.00    +0.000 A 
ATOM      9  C   UNL     1       6.003   5.199  15.748  0.00  0.00    +0.000 A 
ATOM     10  C   UNL     1       5.201   6.331  15.797  0.00  0.00    +0.000 A 
ATOM     11  C   UNL     1       4.230   6.471  16.798  0.00  0.00    +0.000 A 
ATOM     12  C   UNL     1       4.048   5.498  17.793  0.00  0.00    +0.000 A 
ATOM     13  N   UNL     1       3.062   5.611  18.878  0.00  0.00    +0.000 N 
ATOM     14  C   UNL     1       2.575   6.893  19.221  0.00  0.00    +0.000 C 
ATOM     15  O   UNL     1       2.944   7.944  18.683  0.00  0.00    +0.000 OA
ATOM     16  H   UNL     1       5.535   2.657  18.746  0.00  0.00    +0.000 HD
ENDROOT
BRANCH  14  17
ATOM     17  C   UNL     1       1.550   7.037  20.342  0.00  0.00    +0.000 C 
BRANCH  17  18
ATOM     18  O   UNL     1       1.604   8.245  21.105  0.00  0.00    +0.000 OA
BRANCH  18  19
ATOM     19  C   UNL     1       0.388   8.686  21.536  0.00  0.00    +0.000 C 
ATOM     20  O   UNL     1      -0.655   8.049  21.444  0.00  0.00    +0.000 OA
BRANCH  19  21
ATOM     21  C   UNL     1       0.454  10.102  22.072  0.00  0.00    +0.000 C 
BRANCH  21  22
ATOM     22  S   UNL     1       0.923  11.255  20.721  0.00  0.00    +0.000 S 
BRANCH  22  23
ATOM     23  C   UNL     1      -0.359  11.014  19.516  0.00  0.00    +0.000 A 
ATOM     24  C   UNL     1      -1.483  11.857  19.594  0.00  0.00    +0.000 A 
ATOM     25  C   UNL     1      -2.502  11.777  18.636  0.00  0.00    +0.000 A 
ATOM     26  C   UNL     1      -2.401  10.858  17.601  0.00  0.00    +0.000 A 
ATOM     27 CL   UNL     1      -3.645  10.763  16.416  0.00  0.00    +0.000 Cl
ATOM     28  C   UNL     1      -1.294  10.021  17.512  0.00  0.00    +0.000 A 
ATOM     29  C   UNL     1      -0.273  10.099  18.468  0.00  0.00    +0.000 A 
ENDBRANCH  22  23
ENDBRANCH  21  22
ENDBRANCH  19  21
ENDBRANCH  18  19
ENDBRANCH  17  18
ENDBRANCH  14  17
TORSDOF 6
ENDMDL
MODEL 5
REMARK VINA RESULT:      -7.6      0.623      1.128
REMARK  Name = 
REMARK  8 active torsions:
REMARK  status: ('A' for Active; 'I' for Inactive)
REMARK    1  A    between atoms: C_1  and  C_2
REMARK    2  A    between atoms: C_2  and  C_3
REMARK    3  A    between atoms: C_14  and  C_16
REMARK    4  A    between atoms: C_16  and  O_17
REMARK    5  A    between atoms: O_17  and  C_18
REMARK    6  A    between atoms: C_18  and  C_20
REMARK    7  A    between atoms: C_20  and  S_21
REMARK    8  A    between atoms: S_21  and  C_22
REMARK                            x       y       z     vdW  Elec       q    Type
REMARK                         _______ _______ _______ _____ _____    ______ ____
ROOT
ATOM      1  C   UNL     1       2.205   9.144  17.798  0.00  0.00    +0.000 C 
ATOM      2  C   UNL     1       1.212   9.836  18.752  0.00  0.00    +0.000 C 
ATOM      3  C   UNL     1      -0.171   9.772  18.054  0.00  0.00    +0.000 C 
ATOM      4  C   UNL     1       1.651  11.327  18.771  0.00  0.00    +0.000 C 
ATOM      5  O   UNL     1       2.344  11.854  17.900  0.00  0.00    +0.000 OA
ATOM      6  N   UNL     1       1.051  12.123  19.699  0.00  0.00    +0.000 N 
ATOM      7  C   UNL     1       0.326  11.616  20.773  0.00  0.00    +0.000 A 
ATOM      8  C   UNL     1      -0.347  12.543  21.578  0.00  0.00    +0.000 A 
ATOM      9  C   UNL     1      -1.040  12.114  22.703  0.00  0.00    +0.000 A 
ATOM     10  C   UNL     1      -1.055  10.762  23.016  0.00  0.00    +0.000 A 
ATOM     11  C   UNL     1      -0.390   9.837  22.199  0.00  0.00    +0.000 A 
ATOM     12  C   UNL     1       0.328  10.237  21.061  0.00  0.00    +0.000 A 
ATOM     13  N   UNL     1       1.062   9.308  20.188  0.00  0.00    +0.000 N 
ATOM     14  C   UNL     1       1.444   8.049  20.706  0.00  0.00    +0.000 C 
ATOM     15  O   UNL     1       1.225   7.679  21.866  0.00  0.00    +0.000 OA
ATOM     16  H   UNL     1       1.211  13.115  19.605  0.00  0.00    +0.000 HD
ENDROOT
BRANCH  14  17
ATOM     17  C   UNL     1       2.205   7.067  19.821  0.00  0.00    +0.000 C 
BRANCH  17  18
ATOM     18  O   UNL     1       2.091   5.683  20.159  0.00  0.00    +0.000 OA
BRANCH  18  19
ATOM     19  C   UNL     1       2.130   4.843  19.085  0.00  0.00    +0.000 C 
ATOM     20  O   UNL     1       1.552   5.044  18.024  0.00  0.00    +0.000 OA
BRANCH  19  21
ATOM     21  C   UNL     1       2.911   3.578  19.382  0.00  0.00    +0.000 C 
BRANCH  21  22
ATOM     22  S   UNL     1       4.010   3.181  17.964  0.00  0.00    +0.000 S 
BRANCH  22  23
ATOM     23  C   UNL     1       5.012   4.639  17.805  0.00  0.00    +0.000 A 
ATOM     24  C   UNL     1       6.076   4.791  18.713  0.00  0.00    +0.000 A 
ATOM     25  C   UNL     1       6.954   5.877  18.606  0.00  0.00    +0.000 A 
ATOM     26  C   UNL     1       6.773   6.810  17.594  0.00  0.00    +0.000 A 
ATOM     27 CL   UNL     1       7.857   8.140  17.452  0.00  0.00    +0.000 Cl
ATOM     28  C   UNL     1       5.727   6.669  16.689  0.00  0.00    +0.000 A 
ATOM     29  C   UNL     1       4.847   5.584  16.794  0.00  0.00    +0.000 A 
ENDBRANCH  22  23
ENDBRANCH  21  22
ENDBRANCH  19  21
ENDBRANCH  18  19
ENDBRANCH  17  18
ENDBRANCH  14  17
TORSDOF 6
ENDMDL
MODEL 6
REMARK VINA RESULT:      -7.6      3.891      8.285
REMARK  Name = 
REMARK  8 active torsions:
REMARK  status: ('A' for Active; 'I' for Inactive)
REMARK    1  A    between atoms: C_1  and  C_2
REMARK    2  A    between atoms: C_2  and  C_3
REMARK    3  A    between atoms: C_14  and  C_16
REMARK    4  A    between atoms: C_16  and  O_17
REMARK    5  A    between atoms: O_17  and  C_18
REMARK    6  A    between atoms: C_18  and  C_20
REMARK    7  A    between atoms: C_20  and  S_21
REMARK    8  A    between atoms: S_21  and  C_22
REMARK                            x       y       z     vdW  Elec       q    Type
REMARK                         _______ _______ _______ _____ _____    ______ ____
ROOT
ATOM      1  C   UNL     1       2.229   3.755  20.994  0.00  0.00    +0.000 C 
ATOM      2  C   UNL     1       2.927   3.935  19.631  0.00  0.00    +0.000 C 
ATOM      3  C   UNL     1       2.035   3.203  18.594  0.00  0.00    +0.000 C 
ATOM      4  C   UNL     1       4.251   3.130  19.751  0.00  0.00    +0.000 C 
ATOM      5  O   UNL     1       4.446   2.241  20.581  0.00  0.00    +0.000 OA
ATOM      6  N   UNL     1       5.149   3.290  18.741  0.00  0.00    +0.000 N 
ATOM      7  C   UNL     1       5.065   4.322  17.811  0.00  0.00    +0.000 A 
ATOM      8  C   UNL     1       5.977   4.294  16.748  0.00  0.00    +0.000 A 
ATOM      9  C   UNL     1       5.990   5.324  15.817  0.00  0.00    +0.000 A 
ATOM     10  C   UNL     1       5.093   6.375  15.953  0.00  0.00    +0.000 A 
ATOM     11  C   UNL     1       4.174   6.390  17.012  0.00  0.00    +0.000 A 
ATOM     12  C   UNL     1       4.139   5.371  17.976  0.00  0.00    +0.000 A 
ATOM     13  N   UNL     1       3.212   5.356  19.118  0.00  0.00    +0.000 N 
ATOM     14  C   UNL     1       2.632   6.575  19.537  0.00  0.00    +0.000 C 
ATOM     15  O   UNL     1       2.873   7.673  19.020  0.00  0.00    +0.000 OA
ATOM     16  H   UNL     1       5.930   2.650  18.733  0.00  0.00    +0.000 HD
ENDROOT
BRANCH  14  17
ATOM     17  C   UNL     1       1.665   6.585  20.717  0.00  0.00    +0.000 C 
BRANCH  17  18
ATOM     18  O   UNL     1       0.655   7.597  20.705  0.00  0.00    +0.000 OA
BRANCH  18  19
ATOM     19  C   UNL     1       0.980   8.715  21.414  0.00  0.00    +0.000 C 
ATOM     20  O   UNL     1       1.813   8.753  22.311  0.00  0.00    +0.000 OA
BRANCH  19  21
ATOM     21  C   UNL     1       0.127   9.905  21.020  0.00  0.00    +0.000 C 
BRANCH  21  22
ATOM     22  S   UNL     1       0.483  10.373  19.280  0.00  0.00    +0.000 S 
BRANCH  22  23
ATOM     23  C   UNL     1      -1.132  10.641  18.590  0.00  0.00    +0.000 A 
ATOM     24  C   UNL     1      -1.952  11.593  19.223  0.00  0.00    +0.000 A 
ATOM     25  C   UNL     1      -3.210  11.912  18.697  0.00  0.00    +0.000 A 
ATOM     26  C   UNL     1      -3.650  11.284  17.541  0.00  0.00    +0.000 A 
ATOM     27 CL   UNL     1      -5.192  11.681  16.885  0.00  0.00    +0.000 Cl
ATOM     28  C   UNL     1      -2.848  10.343  16.905  0.00  0.00    +0.000 A 
ATOM     29  C   UNL     1      -1.590  10.021  17.429  0.00  0.00    +0.000 A 
ENDBRANCH  22  23
ENDBRANCH  21  22
ENDBRANCH  19  21
ENDBRANCH  18  19
ENDBRANCH  17  18
ENDBRANCH  14  17
TORSDOF 6
ENDMDL
MODEL 7
REMARK VINA RESULT:      -7.6      4.644      7.132
REMARK  Name = 
REMARK  8 active torsions:
REMARK  status: ('A' for Active; 'I' for Inactive)
REMARK    1  A    between atoms: C_1  and  C_2
REMARK    2  A    between atoms: C_2  and  C_3
REMARK    3  A    between atoms: C_14  and  C_16
REMARK    4  A    between atoms: C_16  and  O_17
REMARK    5  A    between atoms: O_17  and  C_18
REMARK    6  A    between atoms: C_18  and  C_20
REMARK    7  A    between atoms: C_20  and  S_21
REMARK    8  A    between atoms: S_21  and  C_22
REMARK                            x       y       z     vdW  Elec       q    Type
REMARK                         _______ _______ _______ _____ _____    ______ ____
ROOT
ATOM      1  C   UNL     1       3.173   8.152  17.884  0.00  0.00    +0.000 C 
ATOM      2  C   UNL     1       2.890   6.760  18.483  0.00  0.00    +0.000 C 
ATOM      3  C   UNL     1       1.831   6.103  17.559  0.00  0.00    +0.000 C 
ATOM      4  C   UNL     1       2.201   7.045  19.846  0.00  0.00    +0.000 C 
ATOM      5  O   UNL     1       1.653   8.109  20.134  0.00  0.00    +0.000 OA
ATOM      6  N   UNL     1       2.024   5.975  20.669  0.00  0.00    +0.000 N 
ATOM      7  C   UNL     1       2.675   4.759  20.479  0.00  0.00    +0.000 A 
ATOM      8  C   UNL     1       2.304   3.702  21.321  0.00  0.00    +0.000 A 
ATOM      9  C   UNL     1       2.955   2.479  21.228  0.00  0.00    +0.000 A 
ATOM     10  C   UNL     1       3.971   2.319  20.296  0.00  0.00    +0.000 A 
ATOM     11  C   UNL     1       4.328   3.376  19.448  0.00  0.00    +0.000 A 
ATOM     12  C   UNL     1       3.699   4.629  19.521  0.00  0.00    +0.000 A 
ATOM     13  N   UNL     1       4.056   5.775  18.671  0.00  0.00    +0.000 N 
ATOM     14  C   UNL     1       5.334   5.799  18.066  0.00  0.00    +0.000 C 
ATOM     15  O   UNL     1       6.194   4.924  18.224  0.00  0.00    +0.000 OA
ATOM     16  H   UNL     1       1.435   6.125  21.476  0.00  0.00    +0.000 HD
ENDROOT
BRANCH  14  17
ATOM     17  C   UNL     1       5.727   6.976  17.178  0.00  0.00    +0.000 C 
BRANCH  17  18
ATOM     18  O   UNL     1       7.116   7.102  16.865  0.00  0.00    +0.000 OA
BRANCH  18  19
ATOM     19  C   UNL     1       7.866   7.635  17.872  0.00  0.00    +0.000 C 
ATOM     20  O   UNL     1       8.313   6.999  18.819  0.00  0.00    +0.000 OA
BRANCH  19  21
ATOM     21  C   UNL     1       8.020   9.137  17.732  0.00  0.00    +0.000 C 
BRANCH  21  22
ATOM     22  S   UNL     1       9.032   9.789  19.119  0.00  0.00    +0.000 S 
BRANCH  22  23
ATOM     23  C   UNL     1       9.557  11.380  18.529  0.00  0.00    +0.000 A 
ATOM     24  C   UNL     1      10.749  11.429  17.785  0.00  0.00    +0.000 A 
ATOM     25  C   UNL     1      11.191  12.635  17.225  0.00  0.00    +0.000 A 
ATOM     26  C   UNL     1      10.444  13.790  17.406  0.00  0.00    +0.000 A 
ATOM     27 CL   UNL     1      10.978  15.272  16.711  0.00  0.00    +0.000 Cl
ATOM     28  C   UNL     1       9.263  13.754  18.139  0.00  0.00    +0.000 A 
ATOM     29  C   UNL     1       8.819  12.550  18.700  0.00  0.00    +0.000 A 
ENDBRANCH  22  23
ENDBRANCH  21  22
ENDBRANCH  19  21
ENDBRANCH  18  19
ENDBRANCH  17  18
ENDBRANCH  14  17
TORSDOF 6
ENDMDL
MODEL 8
REMARK VINA RESULT:      -7.5      4.087      8.879
REMARK  Name = 
REMARK  8 active torsions:
REMARK  status: ('A' for Active; 'I' for Inactive)
REMARK    1  A    between atoms: C_1  and  C_2
REMARK    2  A    between atoms: C_2  and  C_3
REMARK    3  A    between atoms: C_14  and  C_16
REMARK    4  A    between atoms: C_16  and  O_17
REMARK    5  A    between atoms: O_17  and  C_18
REMARK    6  A    between atoms: C_18  and  C_20
REMARK    7  A    between atoms: C_20  and  S_21
REMARK    8  A    between atoms: S_21  and  C_22
REMARK                            x       y       z     vdW  Elec       q    Type
REMARK                         _______ _______ _______ _____ _____    ______ ____
ROOT
ATOM      1  C   UNL     1       1.704   4.094  20.604  0.00  0.00    +0.000 C 
ATOM      2  C   UNL     1       2.516   4.170  19.295  0.00  0.00    +0.000 C 
ATOM      3  C   UNL     1       1.613   3.553  18.195  0.00  0.00    +0.000 C 
ATOM      4  C   UNL     1       3.711   3.200  19.510  0.00  0.00    +0.000 C 
ATOM      5  O   UNL     1       3.727   2.300  20.350  0.00  0.00    +0.000 OA
ATOM      6  N   UNL     1       4.693   3.232  18.567  0.00  0.00    +0.000 N 
ATOM      7  C   UNL     1       4.811   4.259  17.635  0.00  0.00    +0.000 A 
ATOM      8  C   UNL     1       5.786   4.104  16.641  0.00  0.00    +0.000 A 
ATOM      9  C   UNL     1       6.002   5.116  15.715  0.00  0.00    +0.000 A 
ATOM     10  C   UNL     1       5.243   6.276  15.788  0.00  0.00    +0.000 A 
ATOM     11  C   UNL     1       4.260   6.420  16.776  0.00  0.00    +0.000 A 
ATOM     12  C   UNL     1       4.022   5.422  17.734  0.00  0.00    +0.000 A 
ATOM     13  N   UNL     1       3.021   5.537  18.806  0.00  0.00    +0.000 N 
ATOM     14  C   UNL     1       2.577   6.825  19.184  0.00  0.00    +0.000 C 
ATOM     15  O   UNL     1       2.996   7.878  18.688  0.00  0.00    +0.000 OA
ATOM     16  H   UNL     1       5.381   2.496  18.615  0.00  0.00    +0.000 HD
ENDROOT
BRANCH  14  17
ATOM     17  C   UNL     1       1.538   6.971  20.291  0.00  0.00    +0.000 C 
BRANCH  17  18
ATOM     18  O   UNL     1       1.566   8.191  21.035  0.00  0.00    +0.000 OA
BRANCH  18  19
ATOM     19  C   UNL     1       0.349   8.795  21.159  0.00  0.00    +0.000 C 
ATOM     20  O   UNL     1      -0.528   8.438  21.937  0.00  0.00    +0.000 OA
BRANCH  19  21
ATOM     21  C   UNL     1       0.167   9.919  20.159  0.00  0.00    +0.000 C 
BRANCH  21  22
ATOM     22  S   UNL     1       0.368  11.538  21.003  0.00  0.00    +0.000 S 
BRANCH  22  23
ATOM     23  C   UNL     1      -1.281  11.928  21.535  0.00  0.00    +0.000 A 
ATOM     24  C   UNL     1      -1.581  11.738  22.896  0.00  0.00    +0.000 A 
ATOM     25  C   UNL     1      -2.837  12.091  23.406  0.00  0.00    +0.000 A 
ATOM     26  C   UNL     1      -3.793  12.633  22.560  0.00  0.00    +0.000 A 
ATOM     27 CL   UNL     1      -5.335  13.078  23.184  0.00  0.00    +0.000 Cl
ATOM     28  C   UNL     1      -3.509  12.828  21.213  0.00  0.00    +0.000 A 
ATOM     29  C   UNL     1      -2.254  12.476  20.700  0.00  0.00    +0.000 A 
ENDBRANCH  22  23
ENDBRANCH  21  22
ENDBRANCH  19  21
ENDBRANCH  18  19
ENDBRANCH  17  18
ENDBRANCH  14  17
TORSDOF 6
ENDMDL
MODEL 9
REMARK VINA RESULT:      -7.5      3.668      8.003
REMARK  Name = 
REMARK  8 active torsions:
REMARK  status: ('A' for Active; 'I' for Inactive)
REMARK    1  A    between atoms: C_1  and  C_2
REMARK    2  A    between atoms: C_2  and  C_3
REMARK    3  A    between atoms: C_14  and  C_16
REMARK    4  A    between atoms: C_16  and  O_17
REMARK    5  A    between atoms: O_17  and  C_18
REMARK    6  A    between atoms: C_18  and  C_20
REMARK    7  A    between atoms: C_20  and  S_21
REMARK    8  A    between atoms: S_21  and  C_22
REMARK                            x       y       z     vdW  Elec       q    Type
REMARK                         _______ _______ _______ _____ _____    ______ ____
ROOT
ATOM      1  C   UNL     1       1.370   4.727  20.399  0.00  0.00    +0.000 C 
ATOM      2  C   UNL     1       2.297   4.653  19.169  0.00  0.00    +0.000 C 
ATOM      3  C   UNL     1       1.483   3.935  18.062  0.00  0.00    +0.000 C 
ATOM      4  C   UNL     1       3.446   3.696  19.593  0.00  0.00    +0.000 C 
ATOM      5  O   UNL     1       3.367   2.890  20.521  0.00  0.00    +0.000 OA
ATOM      6  N   UNL     1       4.509   3.616  18.746  0.00  0.00    +0.000 N 
ATOM      7  C   UNL     1       4.734   4.537  17.727  0.00  0.00    +0.000 A 
ATOM      8  C   UNL     1       5.790   4.265  16.848  0.00  0.00    +0.000 A 
ATOM      9  C   UNL     1       6.110   5.169  15.844  0.00  0.00    +0.000 A 
ATOM     10  C   UNL     1       5.374   6.340  15.726  0.00  0.00    +0.000 A 
ATOM     11  C   UNL     1       4.310   6.601  16.600  0.00  0.00    +0.000 A 
ATOM     12  C   UNL     1       3.965   5.713  17.631  0.00  0.00    +0.000 A 
ATOM     13  N   UNL     1       2.874   5.954  18.588  0.00  0.00    +0.000 N 
ATOM     14  C   UNL     1       2.427   7.281  18.787  0.00  0.00    +0.000 C 
ATOM     15  O   UNL     1       2.913   8.269  18.224  0.00  0.00    +0.000 OA
ATOM     16  H   UNL     1       5.174   2.880  18.934  0.00  0.00    +0.000 HD
ENDROOT
BRANCH  14  17
ATOM     17  C   UNL     1       1.296   7.557  19.773  0.00  0.00    +0.000 C 
BRANCH  17  18
ATOM     18  O   UNL     1       1.672   7.740  21.140  0.00  0.00    +0.000 OA
BRANCH  18  19
ATOM     19  C   UNL     1       1.094   8.822  21.735  0.00  0.00    +0.000 C 
ATOM     20  O   UNL     1       1.603   9.474  22.639  0.00  0.00    +0.000 OA
BRANCH  19  21
ATOM     21  C   UNL     1      -0.302   9.084  21.204  0.00  0.00    +0.000 C 
BRANCH  21  22
ATOM     22  S   UNL     1      -0.516  10.880  20.883  0.00  0.00    +0.000 S 
BRANCH  22  23
ATOM     23  C   UNL     1      -1.363  10.917  19.322  0.00  0.00    +0.000 A 
ATOM     24  C   UNL     1      -0.921  10.025  18.329  0.00  0.00    +0.000 A 
ATOM     25  C   UNL     1      -1.584   9.944  17.097  0.00  0.00    +0.000 A 
ATOM     26  C   UNL     1      -2.686  10.752  16.857  0.00  0.00    +0.000 A 
ATOM     27 CL   UNL     1      -3.511  10.649  15.349  0.00  0.00    +0.000 Cl
ATOM     28  C   UNL     1      -3.134  11.637  17.832  0.00  0.00    +0.000 A 
ATOM     29  C   UNL     1      -2.473  11.720  19.064  0.00  0.00    +0.000 A 
ENDBRANCH  22  23
ENDBRANCH  21  22
ENDBRANCH  19  21
ENDBRANCH  18  19
ENDBRANCH  17  18
ENDBRANCH  14  17
TORSDOF 6
ENDMDL
