MODEL 1
REMARK VINA RESULT:      -7.2      0.000      0.000
REMARK  Name = 
REMARK  4 active torsions:
REMARK  status: ('A' for Active; 'I' for Inactive)
REMARK    1  A    between atoms: C_1  and  C_2
REMARK    2  A    between atoms: C_2  and  C_3
REMARK    3  A    between atoms: C_2  and  C_4
REMARK    4  A    between atoms: N_6  and  C_7
REMARK                            x       y       z     vdW  Elec       q    Type
REMARK                         _______ _______ _______ _____ _____    ______ ____
ROOT
ATOM      1  C   UNL     1       2.879  13.988  20.029  0.00  0.00    +0.000 A 
ATOM      2  C   UNL     1       1.694  13.626  20.665  0.00  0.00    +0.000 A 
ATOM      3  C   UNL     1       0.813  12.733  20.075  0.00  0.00    +0.000 A 
ATOM      4  C   UNL     1       1.099  12.189  18.826  0.00  0.00    +0.000 A 
ATOM      5  N   UNL     1       0.242  11.318  18.200  0.00  0.00    +0.000 N 
ATOM      6  C   UNL     1      -1.136  11.236  18.256  0.00  0.00    +0.000 A 
ATOM      7  N   UNL     1      -1.652  10.246  17.505  0.00  0.00    +0.000 NA
ATOM      8  C   UNL     1      -2.985  10.072  17.483  0.00  0.00    +0.000 A 
ATOM      9  C   UNL     1      -3.799  10.933  18.200  0.00  0.00    +0.000 A 
ATOM     10  C   UNL     1      -5.182  11.026  18.427  0.00  0.00    +0.000 A 
ATOM     11  C   UNL     1      -5.381  11.951  19.431  0.00  0.00    +0.000 A 
ATOM     12  N   UNL     1      -4.149  12.549  19.725  0.00  0.00    +0.000 N 
ATOM     13  C   UNL     1      -3.178  11.914  18.962  0.00  0.00    +0.000 A 
ATOM     14  N   UNL     1      -1.850  12.101  19.015  0.00  0.00    +0.000 NA
ATOM     15  C   UNL     1      -3.972  13.301  21.007  0.00  0.00    +0.000 C 
ATOM     16  C   UNL     1      -3.457  12.256  22.023  0.00  0.00    +0.000 C 
ATOM     17  C   UNL     1      -2.934  12.736  23.367  0.00  0.00    +0.000 C 
ATOM     18  C   UNL     1      -2.392  14.153  23.467  0.00  0.00    +0.000 C 
ATOM     19  C   UNL     1      -2.841  15.139  22.397  0.00  0.00    +0.000 C 
ATOM     20  C   UNL     1      -3.011  14.523  20.993  0.00  0.00    +0.000 C 
ATOM     21  C   UNL     1      -5.376  13.881  21.385  0.00  0.00    +0.000 C 
ATOM     22  N   UNL     1      -6.475  12.960  21.262  0.00  0.00    +0.000 N 
ATOM     23  C   UNL     1      -6.600  12.155  20.168  0.00  0.00    +0.000 C 
ATOM     24  O   UNL     1      -7.669  11.620  19.904  0.00  0.00    +0.000 OA
ATOM     25  N   UNL     1       2.243  12.492  18.188  0.00  0.00    +0.000 NA
ATOM     26  C   UNL     1       3.079  13.375  18.786  0.00  0.00    +0.000 A 
ATOM     27  H   UNL     1       0.610  10.927  17.343  0.00  0.00    +0.000 HD
ATOM     28  H   UNL     1      -7.360  13.161  21.710  0.00  0.00    +0.000 HD
ENDROOT
BRANCH   1  31
ATOM     29  C   UNL     1       6.258  14.983  20.768  0.00  0.00    +0.000 C 
ATOM     30  C   UNL     1       4.991  15.281  19.899  0.00  0.00    +0.000 C 
ATOM     31  N   UNL     1       3.769  14.856  20.600  0.00  0.00    +0.000 N 
ATOM     32  C   UNL     1       3.648  15.365  21.967  0.00  0.00    +0.000 C 
ATOM     33  C   UNL     1       4.892  14.970  22.780  0.00  0.00    +0.000 C 
ATOM     34  N   UNL     1       6.143  15.461  22.172  0.00  0.00    +0.000 NA
ATOM     35  H   UNL     1       6.926  15.093  22.711  0.00  0.00    +0.000 HD
BRANCH  29  37
ATOM     36  C   UNL     1       8.600  14.488  19.803  0.00  0.00    +0.000 C 
ATOM     37  C   UNL     1       7.528  15.551  20.075  0.00  0.00    +0.000 C 
ATOM     38  C   UNL     1       7.199  16.289  18.774  0.00  0.00    +0.000 C 
ENDBRANCH  29  37
ENDBRANCH   1  31
TORSDOF 2
ENDMDL
MODEL 2
REMARK VINA RESULT:      -6.9      1.229      1.723
REMARK  Name = 
REMARK  4 active torsions:
REMARK  status: ('A' for Active; 'I' for Inactive)
REMARK    1  A    between atoms: C_1  and  C_2
REMARK    2  A    between atoms: C_2  and  C_3
REMARK    3  A    between atoms: C_2  and  C_4
REMARK    4  A    between atoms: N_6  and  C_7
REMARK                            x       y       z     vdW  Elec       q    Type
REMARK                         _______ _______ _______ _____ _____    ______ ____
ROOT
ATOM      1  C   UNL     1       2.880  14.107  20.074  0.00  0.00    +0.000 A 
ATOM      2  C   UNL     1       1.698  13.735  20.711  0.00  0.00    +0.000 A 
ATOM      3  C   UNL     1       0.813  12.852  20.112  0.00  0.00    +0.000 A 
ATOM      4  C   UNL     1       1.092  12.328  18.853  0.00  0.00    +0.000 A 
ATOM      5  N   UNL     1       0.231  11.467  18.218  0.00  0.00    +0.000 N 
ATOM      6  C   UNL     1      -1.146  11.384  18.281  0.00  0.00    +0.000 A 
ATOM      7  N   UNL     1      -1.666  10.407  17.517  0.00  0.00    +0.000 NA
ATOM      8  C   UNL     1      -3.001  10.233  17.500  0.00  0.00    +0.000 A 
ATOM      9  C   UNL     1      -3.809  11.082  18.237  0.00  0.00    +0.000 A 
ATOM     10  C   UNL     1      -5.192  11.170  18.474  0.00  0.00    +0.000 A 
ATOM     11  C   UNL     1      -5.384  12.079  19.494  0.00  0.00    +0.000 A 
ATOM     12  N   UNL     1      -4.151  12.672  19.790  0.00  0.00    +0.000 N 
ATOM     13  C   UNL     1      -3.184  12.050  19.011  0.00  0.00    +0.000 A 
ATOM     14  N   UNL     1      -1.856  12.236  19.059  0.00  0.00    +0.000 NA
ATOM     15  C   UNL     1      -3.965  13.403  21.084  0.00  0.00    +0.000 C 
ATOM     16  C   UNL     1      -3.444  12.341  22.079  0.00  0.00    +0.000 C 
ATOM     17  C   UNL     1      -2.913  12.799  23.428  0.00  0.00    +0.000 C 
ATOM     18  C   UNL     1      -2.370  14.214  23.548  0.00  0.00    +0.000 C 
ATOM     19  C   UNL     1      -2.826  15.217  22.497  0.00  0.00    +0.000 C 
ATOM     20  C   UNL     1      -3.004  14.625  21.084  0.00  0.00    +0.000 C 
ATOM     21  C   UNL     1      -5.367  13.976  21.480  0.00  0.00    +0.000 C 
ATOM     22  N   UNL     1      -6.467  13.058  21.348  0.00  0.00    +0.000 N 
ATOM     23  C   UNL     1      -6.599  12.270  20.242  0.00  0.00    +0.000 C 
ATOM     24  O   UNL     1      -7.669  11.739  19.976  0.00  0.00    +0.000 OA
ATOM     25  N   UNL     1       2.232  12.642  18.213  0.00  0.00    +0.000 NA
ATOM     26  C   UNL     1       3.072  13.515  18.820  0.00  0.00    +0.000 A 
ATOM     27  H   UNL     1       0.594  11.091  17.353  0.00  0.00    +0.000 HD
ATOM     28  H   UNL     1      -7.349  13.250  21.806  0.00  0.00    +0.000 HD
ENDROOT
BRANCH   1  31
ATOM     29  C   UNL     1       4.795  15.192  22.922  0.00  0.00    +0.000 C 
ATOM     30  C   UNL     1       4.853  14.482  21.528  0.00  0.00    +0.000 C 
ATOM     31  N   UNL     1       3.773  14.966  20.654  0.00  0.00    +0.000 N 
ATOM     32  C   UNL     1       3.692  16.423  20.542  0.00  0.00    +0.000 C 
ATOM     33  C   UNL     1       3.562  17.045  21.943  0.00  0.00    +0.000 C 
ATOM     34  N   UNL     1       4.678  16.672  22.833  0.00  0.00    +0.000 NA
ATOM     35  H   UNL     1       4.484  17.044  23.761  0.00  0.00    +0.000 HD
BRANCH  29  37
ATOM     36  C   UNL     1       5.619  14.213  25.163  0.00  0.00    +0.000 C 
ATOM     37  C   UNL     1       6.014  14.768  23.788  0.00  0.00    +0.000 C 
ATOM     38  C   UNL     1       6.916  13.760  23.070  0.00  0.00    +0.000 C 
ENDBRANCH  29  37
ENDBRANCH   1  31
TORSDOF 2
ENDMDL
MODEL 3
REMARK VINA RESULT:      -6.9      1.109      2.229
REMARK  Name = 
REMARK  4 active torsions:
REMARK  status: ('A' for Active; 'I' for Inactive)
REMARK    1  A    between atoms: C_1  and  C_2
REMARK    2  A    between atoms: C_2  and  C_3
REMARK    3  A    between atoms: C_2  and  C_4
REMARK    4  A    between atoms: N_6  and  C_7
REMARK                            x       y       z     vdW  Elec       q    Type
REMARK                         _______ _______ _______ _____ _____    ______ ____
ROOT
ATOM      1  C   UNL     1       2.870  14.093  19.870  0.00  0.00    +0.000 A 
ATOM      2  C   UNL     1       1.697  13.738  20.532  0.00  0.00    +0.000 A 
ATOM      3  C   UNL     1       0.814  12.825  19.977  0.00  0.00    +0.000 A 
ATOM      4  C   UNL     1       1.087  12.251  18.739  0.00  0.00    +0.000 A 
ATOM      5  N   UNL     1       0.228  11.357  18.147  0.00  0.00    +0.000 N 
ATOM      6  C   UNL     1      -1.149  11.267  18.226  0.00  0.00    +0.000 A 
ATOM      7  N   UNL     1      -1.667  10.255  17.507  0.00  0.00    +0.000 NA
ATOM      8  C   UNL     1      -3.000  10.071  17.510  0.00  0.00    +0.000 A 
ATOM      9  C   UNL     1      -3.809  10.943  18.216  0.00  0.00    +0.000 A 
ATOM     10  C   UNL     1      -5.190  11.031  18.461  0.00  0.00    +0.000 A 
ATOM     11  C   UNL     1      -5.381  11.980  19.445  0.00  0.00    +0.000 A 
ATOM     12  N   UNL     1      -4.151  12.594  19.705  0.00  0.00    +0.000 N 
ATOM     13  C   UNL     1      -3.185  11.947  18.944  0.00  0.00    +0.000 A 
ATOM     14  N   UNL     1      -1.858  12.146  18.973  0.00  0.00    +0.000 NA
ATOM     15  C   UNL     1      -3.960  13.380  20.965  0.00  0.00    +0.000 C 
ATOM     16  C   UNL     1      -3.423  12.365  21.999  0.00  0.00    +0.000 C 
ATOM     17  C   UNL     1      -2.884  12.883  23.323  0.00  0.00    +0.000 C 
ATOM     18  C   UNL     1      -2.351  14.306  23.380  0.00  0.00    +0.000 C 
ATOM     19  C   UNL     1      -2.823  15.261  22.292  0.00  0.00    +0.000 C 
ATOM     20  C   UNL     1      -3.009  14.609  20.906  0.00  0.00    +0.000 C 
ATOM     21  C   UNL     1      -5.363  13.960  21.349  0.00  0.00    +0.000 C 
ATOM     22  N   UNL     1      -6.457  13.028  21.265  0.00  0.00    +0.000 N 
ATOM     23  C   UNL     1      -6.592  12.194  20.194  0.00  0.00    +0.000 C 
ATOM     24  O   UNL     1      -7.660  11.644  19.959  0.00  0.00    +0.000 OA
ATOM     25  N   UNL     1       2.219  12.546  18.077  0.00  0.00    +0.000 NA
ATOM     26  C   UNL     1       3.057  13.450  18.640  0.00  0.00    +0.000 A 
ATOM     27  H   UNL     1       0.587  10.948  17.296  0.00  0.00    +0.000 HD
ATOM     28  H   UNL     1      -7.337  13.233  21.722  0.00  0.00    +0.000 HD
ENDROOT
BRANCH   1  31
ATOM     29  C   UNL     1       3.602  17.269  21.396  0.00  0.00    +0.000 C 
ATOM     30  C   UNL     1       3.462  15.728  21.637  0.00  0.00    +0.000 C 
ATOM     31  N   UNL     1       3.761  14.981  20.405  0.00  0.00    +0.000 N 
ATOM     32  C   UNL     1       5.033  15.341  19.774  0.00  0.00    +0.000 C 
ATOM     33  C   UNL     1       5.067  16.854  19.501  0.00  0.00    +0.000 C 
ATOM     34  N   UNL     1       4.872  17.654  20.725  0.00  0.00    +0.000 NA
ATOM     35  H   UNL     1       4.820  18.636  20.459  0.00  0.00    +0.000 HD
BRANCH  29  37
ATOM     36  C   UNL     1       2.291  17.461  23.611  0.00  0.00    +0.000 C 
ATOM     37  C   UNL     1       3.409  18.038  22.733  0.00  0.00    +0.000 C 
ATOM     38  C   UNL     1       4.704  18.124  23.547  0.00  0.00    +0.000 C 
ENDBRANCH  29  37
ENDBRANCH   1  31
TORSDOF 2
ENDMDL
MODEL 4
REMARK VINA RESULT:      -6.9      4.381      6.640
REMARK  Name = 
REMARK  4 active torsions:
REMARK  status: ('A' for Active; 'I' for Inactive)
REMARK    1  A    between atoms: C_1  and  C_2
REMARK    2  A    between atoms: C_2  and  C_3
REMARK    3  A    between atoms: C_2  and  C_4
REMARK    4  A    between atoms: N_6  and  C_7
REMARK                            x       y       z     vdW  Elec       q    Type
REMARK                         _______ _______ _______ _____ _____    ______ ____
ROOT
ATOM      1  C   UNL     1       1.441   8.188  20.747  0.00  0.00    +0.000 A 
ATOM      2  C   UNL     1       0.660   8.920  19.856  0.00  0.00    +0.000 A 
ATOM      3  C   UNL     1       0.086  10.124  20.233  0.00  0.00    +0.000 A 
ATOM      4  C   UNL     1       0.278  10.617  21.521  0.00  0.00    +0.000 A 
ATOM      5  N   UNL     1      -0.290  11.796  21.939  0.00  0.00    +0.000 N 
ATOM      6  C   UNL     1      -1.480  12.388  21.562  0.00  0.00    +0.000 A 
ATOM      7  N   UNL     1      -1.724  13.557  22.184  0.00  0.00    +0.000 NA
ATOM      8  C   UNL     1      -2.856  14.224  21.895  0.00  0.00    +0.000 A 
ATOM      9  C   UNL     1      -3.759  13.681  20.997  0.00  0.00    +0.000 A 
ATOM     10  C   UNL     1      -4.983  14.102  20.451  0.00  0.00    +0.000 A 
ATOM     11  C   UNL     1      -5.298  13.243  19.417  0.00  0.00    +0.000 A 
ATOM     12  N   UNL     1      -4.362  12.202  19.413  0.00  0.00    +0.000 N 
ATOM     13  C   UNL     1      -3.414  12.481  20.390  0.00  0.00    +0.000 A 
ATOM     14  N   UNL     1      -2.286  11.801  20.647  0.00  0.00    +0.000 NA
ATOM     15  C   UNL     1      -4.211  11.339  18.199  0.00  0.00    +0.000 C 
ATOM     16  C   UNL     1      -3.122  12.026  17.345  0.00  0.00    +0.000 C 
ATOM     17  C   UNL     1      -2.543  11.278  16.155  0.00  0.00    +0.000 C 
ATOM     18  C   UNL     1      -2.584   9.758  16.167  0.00  0.00    +0.000 C 
ATOM     19  C   UNL     1      -3.603   9.105  17.091  0.00  0.00    +0.000 C 
ATOM     20  C   UNL     1      -3.827   9.850  18.424  0.00  0.00    +0.000 C 
ATOM     21  C   UNL     1      -5.609  11.306  17.495  0.00  0.00    +0.000 C 
ATOM     22  N   UNL     1      -6.265  12.581  17.369  0.00  0.00    +0.000 N 
ATOM     23  C   UNL     1      -6.306  13.459  18.413  0.00  0.00    +0.000 C 
ATOM     24  O   UNL     1      -7.114  14.378  18.425  0.00  0.00    +0.000 OA
ATOM     25  N   UNL     1       1.045   9.956  22.405  0.00  0.00    +0.000 NA
ATOM     26  C   UNL     1       1.583   8.777  22.009  0.00  0.00    +0.000 A 
ATOM     27  H   UNL     1       0.002  12.085  22.863  0.00  0.00    +0.000 HD
ATOM     28  H   UNL     1      -7.035  12.696  16.723  0.00  0.00    +0.000 HD
ENDROOT
BRANCH   1  31
ATOM     29  C   UNL     1       2.610   5.899  18.227  0.00  0.00    +0.000 C 
ATOM     30  C   UNL     1       3.036   6.935  19.321  0.00  0.00    +0.000 C 
ATOM     31  N   UNL     1       2.027   7.005  20.390  0.00  0.00    +0.000 N 
ATOM     32  C   UNL     1       1.655   5.708  20.956  0.00  0.00    +0.000 C 
ATOM     33  C   UNL     1       1.177   4.770  19.835  0.00  0.00    +0.000 C 
ATOM     34  N   UNL     1       2.194   4.584  18.782  0.00  0.00    +0.000 NA
ATOM     35  H   UNL     1       1.781   4.026  18.036  0.00  0.00    +0.000 HD
BRANCH  29  37
ATOM     36  C   UNL     1       4.939   6.664  17.422  0.00  0.00    +0.000 C 
ATOM     37  C   UNL     1       3.740   5.740  17.172  0.00  0.00    +0.000 C 
ATOM     38  C   UNL     1       4.227   4.292  17.055  0.00  0.00    +0.000 C 
ENDBRANCH  29  37
ENDBRANCH   1  31
TORSDOF 2
ENDMDL
MODEL 5
REMARK VINA RESULT:      -6.7      3.876      9.208
REMARK  Name = 
REMARK  4 active torsions:
REMARK  status: ('A' for Active; 'I' for Inactive)
REMARK    1  A    between atoms: C_1  and  C_2
REMARK    2  A    between atoms: C_2  and  C_3
REMARK    3  A    between atoms: C_2  and  C_4
REMARK    4  A    between atoms: N_6  and  C_7
REMARK                            x       y       z     vdW  Elec       q    Type
REMARK                         _______ _______ _______ _____ _____    ______ ____
ROOT
ATOM      1  C   UNL     1      -4.715  12.383  20.397  0.00  0.00    +0.000 A 
ATOM      2  C   UNL     1      -3.368  12.675  20.597  0.00  0.00    +0.000 A 
ATOM      3  C   UNL     1      -2.923  13.201  21.800  0.00  0.00    +0.000 A 
ATOM      4  C   UNL     1      -3.825  13.453  22.830  0.00  0.00    +0.000 A 
ATOM      5  N   UNL     1      -3.427  13.992  24.028  0.00  0.00    +0.000 N 
ATOM      6  C   UNL     1      -2.398  14.871  24.306  0.00  0.00    +0.000 A 
ATOM      7  N   UNL     1      -2.295  15.190  25.609  0.00  0.00    +0.000 NA
ATOM      8  C   UNL     1      -1.327  16.040  25.996  0.00  0.00    +0.000 A 
ATOM      9  C   UNL     1      -0.484  16.595  25.048  0.00  0.00    +0.000 A 
ATOM     10  C   UNL     1       0.620  17.462  25.095  0.00  0.00    +0.000 A 
ATOM     11  C   UNL     1       1.205  17.462  23.845  0.00  0.00    +0.000 A 
ATOM     12  N   UNL     1       0.388  16.726  22.979  0.00  0.00    +0.000 N 
ATOM     13  C   UNL     1      -0.652  16.192  23.730  0.00  0.00    +0.000 A 
ATOM     14  N   UNL     1      -1.598  15.335  23.317  0.00  0.00    +0.000 NA
ATOM     15  C   UNL     1       0.934  16.231  21.676  0.00  0.00    +0.000 C 
ATOM     16  C   UNL     1       1.502  14.827  21.980  0.00  0.00    +0.000 C 
ATOM     17  C   UNL     1       1.912  13.934  20.820  0.00  0.00    +0.000 C 
ATOM     18  C   UNL     1       1.253  14.158  19.468  0.00  0.00    +0.000 C 
ATOM     19  C   UNL     1       0.617  15.521  19.230  0.00  0.00    +0.000 C 
ATOM     20  C   UNL     1      -0.049  16.141  20.475  0.00  0.00    +0.000 C 
ATOM     21  C   UNL     1       2.036  17.253  21.235  0.00  0.00    +0.000 C 
ATOM     22  N   UNL     1       2.952  17.654  22.270  0.00  0.00    +0.000 N 
ATOM     23  C   UNL     1       2.507  17.982  23.517  0.00  0.00    +0.000 C 
ATOM     24  O   UNL     1       3.214  18.619  24.287  0.00  0.00    +0.000 OA
ATOM     25  N   UNL     1      -5.131  13.163  22.689  0.00  0.00    +0.000 NA
ATOM     26  C   UNL     1      -5.536  12.659  21.498  0.00  0.00    +0.000 A 
ATOM     27  H   UNL     1      -4.163  14.038  24.720  0.00  0.00    +0.000 HD
ATOM     28  H   UNL     1       3.826  18.104  22.030  0.00  0.00    +0.000 HD
ENDROOT
BRANCH   1  31
ATOM     29  C   UNL     1      -4.146  11.283  17.018  0.00  0.00    +0.000 C 
ATOM     30  C   UNL     1      -4.412  10.826  18.492  0.00  0.00    +0.000 C 
ATOM     31  N   UNL     1      -5.173  11.851  19.224  0.00  0.00    +0.000 N 
ATOM     32  C   UNL     1      -6.389  12.301  18.544  0.00  0.00    +0.000 C 
ATOM     33  C   UNL     1      -6.040  12.803  17.133  0.00  0.00    +0.000 C 
ATOM     34  N   UNL     1      -5.362  11.777  16.319  0.00  0.00    +0.000 NA
ATOM     35  H   UNL     1      -5.085  12.202  15.435  0.00  0.00    +0.000 HD
BRANCH  29  37
ATOM     36  C   UNL     1      -3.367  10.418  14.715  0.00  0.00    +0.000 C 
ATOM     37  C   UNL     1      -3.455  10.141  16.221  0.00  0.00    +0.000 C 
ATOM     38  C   UNL     1      -2.060   9.814  16.763  0.00  0.00    +0.000 C 
ENDBRANCH  29  37
ENDBRANCH   1  31
TORSDOF 2
ENDMDL
MODEL 6
REMARK VINA RESULT:      -6.6      4.611      7.261
REMARK  Name = 
REMARK  4 active torsions:
REMARK  status: ('A' for Active; 'I' for Inactive)
REMARK    1  A    between atoms: C_1  and  C_2
REMARK    2  A    between atoms: C_2  and  C_3
REMARK    3  A    between atoms: C_2  and  C_4
REMARK    4  A    between atoms: N_6  and  C_7
REMARK                            x       y       z     vdW  Elec       q    Type
REMARK                         _______ _______ _______ _____ _____    ______ ____
ROOT
ATOM      1  C   UNL     1       1.787   7.613  19.939  0.00  0.00    +0.000 A 
ATOM      2  C   UNL     1       0.986   8.496  19.218  0.00  0.00    +0.000 A 
ATOM      3  C   UNL     1       0.507   9.660  19.799  0.00  0.00    +0.000 A 
ATOM      4  C   UNL     1       0.816   9.961  21.122  0.00  0.00    +0.000 A 
ATOM      5  N   UNL     1       0.344  11.094  21.739  0.00  0.00    +0.000 N 
ATOM      6  C   UNL     1      -0.836  11.785  21.539  0.00  0.00    +0.000 A 
ATOM      7  N   UNL     1      -0.971  12.865  22.330  0.00  0.00    +0.000 NA
ATOM      8  C   UNL     1      -2.082  13.616  22.222  0.00  0.00    +0.000 A 
ATOM      9  C   UNL     1      -3.075  13.243  21.332  0.00  0.00    +0.000 A 
ATOM     10  C   UNL     1      -4.310  13.790  20.944  0.00  0.00    +0.000 A 
ATOM     11  C   UNL     1      -4.743  13.099  19.831  0.00  0.00    +0.000 A 
ATOM     12  N   UNL     1      -3.868  12.028  19.614  0.00  0.00    +0.000 N 
ATOM     13  C   UNL     1      -2.840  12.125  20.543  0.00  0.00    +0.000 A 
ATOM     14  N   UNL     1      -1.736  11.367  20.618  0.00  0.00    +0.000 NA
ATOM     15  C   UNL     1      -3.851  11.335  18.286  0.00  0.00    +0.000 C 
ATOM     16  C   UNL     1      -2.789  12.086  17.451  0.00  0.00    +0.000 C 
ATOM     17  C   UNL     1      -2.337  11.485  16.129  0.00  0.00    +0.000 C 
ATOM     18  C   UNL     1      -2.460   9.981  15.940  0.00  0.00    +0.000 C 
ATOM     19  C   UNL     1      -3.446   9.252  16.842  0.00  0.00    +0.000 C 
ATOM     20  C   UNL     1      -3.534   9.814  18.277  0.00  0.00    +0.000 C 
ATOM     21  C   UNL     1      -5.295  11.462  17.695  0.00  0.00    +0.000 C 
ATOM     22  N   UNL     1      -5.887  12.771  17.794  0.00  0.00    +0.000 N 
ATOM     23  C   UNL     1      -5.806  13.496  18.946  0.00  0.00    +0.000 C 
ATOM     24  O   UNL     1      -6.560  14.440  19.146  0.00  0.00    +0.000 OA
ATOM     25  N   UNL     1       1.605   9.149  21.847  0.00  0.00    +0.000 NA
ATOM     26  C   UNL     1       2.050   8.014  21.255  0.00  0.00    +0.000 A 
ATOM     27  H   UNL     1       0.716  11.238  22.667  0.00  0.00    +0.000 HD
ATOM     28  H   UNL     1      -6.694  13.008  17.231  0.00  0.00    +0.000 HD
ENDROOT
BRANCH   1  31
ATOM     29  C   UNL     1       2.906   4.207  20.242  0.00  0.00    +0.000 C 
ATOM     30  C   UNL     1       1.754   5.142  19.744  0.00  0.00    +0.000 C 
ATOM     31  N   UNL     1       2.281   6.467  19.381  0.00  0.00    +0.000 N 
ATOM     32  C   UNL     1       3.419   6.434  18.460  0.00  0.00    +0.000 C 
ATOM     33  C   UNL     1       4.538   5.558  19.049  0.00  0.00    +0.000 C 
ATOM     34  N   UNL     1       4.087   4.184  19.338  0.00  0.00    +0.000 NA
ATOM     35  H   UNL     1       4.848   3.689  19.802  0.00  0.00    +0.000 HD
BRANCH  29  37
ATOM     36  C   UNL     1       1.487   2.674  21.758  0.00  0.00    +0.000 C 
ATOM     37  C   UNL     1       2.358   2.774  20.499  0.00  0.00    +0.000 C 
ATOM     38  C   UNL     1       1.584   2.223  19.297  0.00  0.00    +0.000 C 
ENDBRANCH  29  37
ENDBRANCH   1  31
TORSDOF 2
ENDMDL
MODEL 7
REMARK VINA RESULT:      -6.5      4.940      7.898
REMARK  Name = 
REMARK  4 active torsions:
REMARK  status: ('A' for Active; 'I' for Inactive)
REMARK    1  A    between atoms: C_1  and  C_2
REMARK    2  A    between atoms: C_2  and  C_3
REMARK    3  A    between atoms: C_2  and  C_4
REMARK    4  A    between atoms: N_6  and  C_7
REMARK                            x       y       z     vdW  Elec       q    Type
REMARK                         _______ _______ _______ _____ _____    ______ ____
ROOT
ATOM      1  C   UNL     1       1.056   7.859  20.697  0.00  0.00    +0.000 A 
ATOM      2  C   UNL     1       1.491   9.181  20.652  0.00  0.00    +0.000 A 
ATOM      3  C   UNL     1       0.887  10.157  21.430  0.00  0.00    +0.000 A 
ATOM      4  C   UNL     1      -0.176   9.827  22.266  0.00  0.00    +0.000 A 
ATOM      5  N   UNL     1      -0.813  10.769  23.036  0.00  0.00    +0.000 N 
ATOM      6  C   UNL     1      -1.021  12.114  22.799  0.00  0.00    +0.000 A 
ATOM      7  N   UNL     1      -1.693  12.740  23.783  0.00  0.00    +0.000 NA
ATOM      8  C   UNL     1      -1.953  14.054  23.659  0.00  0.00    +0.000 A 
ATOM      9  C   UNL     1      -1.560  14.724  22.512  0.00  0.00    +0.000 A 
ATOM     10  C   UNL     1      -1.633  16.057  22.073  0.00  0.00    +0.000 A 
ATOM     11  C   UNL     1      -0.850  16.168  20.942  0.00  0.00    +0.000 A 
ATOM     12  N   UNL     1      -0.415  14.886  20.584  0.00  0.00    +0.000 N 
ATOM     13  C   UNL     1      -0.856  14.001  21.559  0.00  0.00    +0.000 A 
ATOM     14  N   UNL     1      -0.569  12.694  21.662  0.00  0.00    +0.000 NA
ATOM     15  C   UNL     1       0.740  14.725  19.644  0.00  0.00    +0.000 C 
ATOM     16  C   UNL     1       1.992  14.658  20.548  0.00  0.00    +0.000 C 
ATOM     17  C   UNL     1       3.320  14.246  19.932  0.00  0.00    +0.000 C 
ATOM     18  C   UNL     1       3.298  13.384  18.679  0.00  0.00    +0.000 C 
ATOM     19  C   UNL     1       2.016  13.396  17.858  0.00  0.00    +0.000 C 
ATOM     20  C   UNL     1       0.723  13.496  18.693  0.00  0.00    +0.000 C 
ATOM     21  C   UNL     1       0.732  15.978  18.704  0.00  0.00    +0.000 C 
ATOM     22  N   UNL     1       0.540  17.242  19.366  0.00  0.00    +0.000 N 
ATOM     23  C   UNL     1      -0.414  17.395  20.329  0.00  0.00    +0.000 C 
ATOM     24  O   UNL     1      -0.798  18.510  20.658  0.00  0.00    +0.000 OA
ATOM     25  N   UNL     1      -0.612   8.559  22.359  0.00  0.00    +0.000 NA
ATOM     26  C   UNL     1      -0.008   7.629  21.579  0.00  0.00    +0.000 A 
ATOM     27  H   UNL     1      -1.505  10.383  23.664  0.00  0.00    +0.000 HD
ATOM     28  H   UNL     1       0.764  18.105  18.888  0.00  0.00    +0.000 HD
ENDROOT
BRANCH   1  31
ATOM     29  C   UNL     1       2.850   4.748  20.456  0.00  0.00    +0.000 C 
ATOM     30  C   UNL     1       1.465   5.452  20.264  0.00  0.00    +0.000 C 
ATOM     31  N   UNL     1       1.647   6.878  19.950  0.00  0.00    +0.000 N 
ATOM     32  C   UNL     1       2.571   7.141  18.845  0.00  0.00    +0.000 C 
ATOM     33  C   UNL     1       3.931   6.483  19.138  0.00  0.00    +0.000 C 
ATOM     34  N   UNL     1       3.818   5.029  19.362  0.00  0.00    +0.000 NA
ATOM     35  H   UNL     1       4.735   4.677  19.634  0.00  0.00    +0.000 HD
BRANCH  29  37
ATOM     36  C   UNL     1       1.489   2.880  21.603  0.00  0.00    +0.000 C 
ATOM     37  C   UNL     1       2.650   3.220  20.660  0.00  0.00    +0.000 C 
ATOM     38  C   UNL     1       2.465   2.476  19.333  0.00  0.00    +0.000 C 
ENDBRANCH  29  37
ENDBRANCH   1  31
TORSDOF 2
ENDMDL
MODEL 8
REMARK VINA RESULT:      -6.5      3.638      9.330
REMARK  Name = 
REMARK  4 active torsions:
REMARK  status: ('A' for Active; 'I' for Inactive)
REMARK    1  A    between atoms: C_1  and  C_2
REMARK    2  A    between atoms: C_2  and  C_3
REMARK    3  A    between atoms: C_2  and  C_4
REMARK    4  A    between atoms: N_6  and  C_7
REMARK                            x       y       z     vdW  Elec       q    Type
REMARK                         _______ _______ _______ _____ _____    ______ ____
ROOT
ATOM      1  C   UNL     1      -4.201  13.003  20.300  0.00  0.00    +0.000 A 
ATOM      2  C   UNL     1      -2.826  13.097  20.499  0.00  0.00    +0.000 A 
ATOM      3  C   UNL     1      -2.304  13.893  21.506  0.00  0.00    +0.000 A 
ATOM      4  C   UNL     1      -3.154  14.621  22.335  0.00  0.00    +0.000 A 
ATOM      5  N   UNL     1      -2.675  15.436  23.331  0.00  0.00    +0.000 N 
ATOM      6  C   UNL     1      -1.499  16.158  23.396  0.00  0.00    +0.000 A 
ATOM      7  N   UNL     1      -1.354  16.857  24.537  0.00  0.00    +0.000 NA
ATOM      8  C   UNL     1      -0.245  17.598  24.710  0.00  0.00    +0.000 A 
ATOM      9  C   UNL     1       0.702  17.657  23.702  0.00  0.00    +0.000 A 
ATOM     10  C   UNL     1       1.953  18.280  23.557  0.00  0.00    +0.000 A 
ATOM     11  C   UNL     1       2.544  17.773  22.418  0.00  0.00    +0.000 A 
ATOM     12  N   UNL     1       1.611  16.957  21.767  0.00  0.00    +0.000 N 
ATOM     13  C   UNL     1       0.477  16.889  22.568  0.00  0.00    +0.000 A 
ATOM     14  N   UNL     1      -0.611  16.129  22.373  0.00  0.00    +0.000 NA
ATOM     15  C   UNL     1       2.069  15.980  20.730  0.00  0.00    +0.000 C 
ATOM     16  C   UNL     1       2.349  14.670  21.501  0.00  0.00    +0.000 C 
ATOM     17  C   UNL     1       2.595  13.393  20.713  0.00  0.00    +0.000 C 
ATOM     18  C   UNL     1       2.010  13.284  19.313  0.00  0.00    +0.000 C 
ATOM     19  C   UNL     1       1.654  14.588  18.613  0.00  0.00    +0.000 C 
ATOM     20  C   UNL     1       1.104  15.686  19.547  0.00  0.00    +0.000 C 
ATOM     21  C   UNL     1       3.354  16.590  20.075  0.00  0.00    +0.000 C 
ATOM     22  N   UNL     1       4.316  17.132  20.998  0.00  0.00    +0.000 N 
ATOM     23  C   UNL     1       3.926  17.918  22.042  0.00  0.00    +0.000 C 
ATOM     24  O   UNL     1       4.733  18.631  22.625  0.00  0.00    +0.000 OA
ATOM     25  N   UNL     1      -4.489  14.540  22.194  0.00  0.00    +0.000 NA
ATOM     26  C   UNL     1      -4.968  13.761  21.194  0.00  0.00    +0.000 A 
ATOM     27  H   UNL     1      -3.397  15.834  23.915  0.00  0.00    +0.000 HD
ATOM     28  H   UNL     1       5.264  17.316  20.695  0.00  0.00    +0.000 HD
ENDROOT
BRANCH   1  31
ATOM     29  C   UNL     1      -3.964  11.380  17.097  0.00  0.00    +0.000 C 
ATOM     30  C   UNL     1      -3.944  11.172  18.648  0.00  0.00    +0.000 C 
ATOM     31  N   UNL     1      -4.737  12.212  19.322  0.00  0.00    +0.000 N 
ATOM     32  C   UNL     1      -6.092  12.377  18.792  0.00  0.00    +0.000 C 
ATOM     33  C   UNL     1      -6.028  12.652  17.280  0.00  0.00    +0.000 C 
ATOM     34  N   UNL     1      -5.328  11.584  16.541  0.00  0.00    +0.000 NA
ATOM     35  H   UNL     1      -5.248  11.871  15.566  0.00  0.00    +0.000 HD
BRANCH  29  37
ATOM     36  C   UNL     1      -3.044  10.424  14.883  0.00  0.00    +0.000 C 
ATOM     37  C   UNL     1      -3.231  10.205  16.390  0.00  0.00    +0.000 C 
ATOM     38  C   UNL     1      -1.875   9.895  17.033  0.00  0.00    +0.000 C 
ENDBRANCH  29  37
ENDBRANCH   1  31
TORSDOF 2
ENDMDL
MODEL 9
REMARK VINA RESULT:      -6.5      3.617      9.717
REMARK  Name = 
REMARK  4 active torsions:
REMARK  status: ('A' for Active; 'I' for Inactive)
REMARK    1  A    between atoms: C_1  and  C_2
REMARK    2  A    between atoms: C_2  and  C_3
REMARK    3  A    between atoms: C_2  and  C_4
REMARK    4  A    between atoms: N_6  and  C_7
REMARK                            x       y       z     vdW  Elec       q    Type
REMARK                         _______ _______ _______ _____ _____    ______ ____
ROOT
ATOM      1  C   UNL     1      -4.021  14.714  23.423  0.00  0.00    +0.000 A 
ATOM      2  C   UNL     1      -2.916  14.105  22.832  0.00  0.00    +0.000 A 
ATOM      3  C   UNL     1      -1.636  14.598  23.037  0.00  0.00    +0.000 A 
ATOM      4  C   UNL     1      -1.438  15.721  23.835  0.00  0.00    +0.000 A 
ATOM      5  N   UNL     1      -0.189  16.252  24.046  0.00  0.00    +0.000 N 
ATOM      6  C   UNL     1       0.916  16.272  23.217  0.00  0.00    +0.000 A 
ATOM      7  N   UNL     1       1.986  16.884  23.755  0.00  0.00    +0.000 NA
ATOM      8  C   UNL     1       3.121  16.963  23.037  0.00  0.00    +0.000 A 
ATOM      9  C   UNL     1       3.154  16.449  21.752  0.00  0.00    +0.000 A 
ATOM     10  C   UNL     1       4.143  16.329  20.761  0.00  0.00    +0.000 A 
ATOM     11  C   UNL     1       3.647  15.503  19.773  0.00  0.00    +0.000 A 
ATOM     12  N   UNL     1       2.305  15.231  20.063  0.00  0.00    +0.000 N 
ATOM     13  C   UNL     1       2.009  15.818  21.287  0.00  0.00    +0.000 A 
ATOM     14  N   UNL     1       0.868  15.710  21.986  0.00  0.00    +0.000 NA
ATOM     15  C   UNL     1       1.616  14.079  19.399  0.00  0.00    +0.000 C 
ATOM     16  C   UNL     1       1.835  12.876  20.345  0.00  0.00    +0.000 C 
ATOM     17  C   UNL     1       1.052  11.597  20.098  0.00  0.00    +0.000 C 
ATOM     18  C   UNL     1      -0.276  11.693  19.363  0.00  0.00    +0.000 C 
ATOM     19  C   UNL     1      -0.503  12.935  18.512  0.00  0.00    +0.000 C 
ATOM     20  C   UNL     1       0.099  14.229  19.098  0.00  0.00    +0.000 C 
ATOM     21  C   UNL     1       2.301  13.890  18.004  0.00  0.00    +0.000 C 
ATOM     22  N   UNL     1       3.739  13.933  18.013  0.00  0.00    +0.000 N 
ATOM     23  C   UNL     1       4.411  14.888  18.719  0.00  0.00    +0.000 C 
ATOM     24  O   UNL     1       5.587  15.130  18.482  0.00  0.00    +0.000 OA
ATOM     25  N   UNL     1      -2.474  16.325  24.444  0.00  0.00    +0.000 NA
ATOM     26  C   UNL     1      -3.713  15.826  24.216  0.00  0.00    +0.000 A 
ATOM     27  H   UNL     1      -0.174  17.008  24.716  0.00  0.00    +0.000 HD
ATOM     28  H   UNL     1       4.264  13.581  17.223  0.00  0.00    +0.000 HD
ENDROOT
BRANCH   1  31
ATOM     29  C   UNL     1      -6.556  13.244  21.334  0.00  0.00    +0.000 C 
ATOM     30  C   UNL     1      -5.549  12.990  22.505  0.00  0.00    +0.000 C 
ATOM     31  N   UNL     1      -5.289  14.235  23.245  0.00  0.00    +0.000 N 
ATOM     32  C   UNL     1      -6.495  14.942  23.681  0.00  0.00    +0.000 C 
ATOM     33  C   UNL     1      -7.400  15.222  22.469  0.00  0.00    +0.000 C 
ATOM     34  N   UNL     1      -7.774  13.991  21.747  0.00  0.00    +0.000 NA
ATOM     35  H   UNL     1      -8.297  14.257  20.913  0.00  0.00    +0.000 HD
BRANCH  29  37
ATOM     36  C   UNL     1      -7.916  11.053  21.444  0.00  0.00    +0.000 C 
ATOM     37  C   UNL     1      -6.920  11.900  20.642  0.00  0.00    +0.000 C 
ATOM     38  C   UNL     1      -7.452  12.104  19.220  0.00  0.00    +0.000 C 
ENDBRANCH  29  37
ENDBRANCH   1  31
TORSDOF 2
ENDMDL
