MODEL 1
REMARK VINA RESULT:      -5.7      0.000      0.000
REMARK  Name = 
REMARK  7 active torsions:
REMARK  status: ('A' for Active; 'I' for Inactive)
REMARK    1  A    between atoms: C_1  and  O_2
REMARK    2  A    between atoms: O_2  and  C_3
REMARK    3  A    between atoms: C_8  and  C_9
REMARK    4  A    between atoms: N_10  and  C_11
REMARK    5  A    between atoms: C_11  and  C_12
REMARK    6  A    between atoms: C_12  and  O_13
REMARK    7  A    between atoms: C_14  and  O_15
REMARK                            x       y       z     vdW  Elec       q    Type
REMARK                         _______ _______ _______ _____ _____    ______ ____
ROOT
ATOM      1  C   UNL     1       6.639   4.593  17.907  0.00  0.00    +0.000 A 
ATOM      2  C   UNL     1       6.967   4.538  16.547  0.00  0.00    +0.000 A 
ATOM      3  C   UNL     1       5.997   4.211  15.597  0.00  0.00    +0.000 A 
ATOM      4 BR   UNL     1       6.470   4.132  13.767  0.00  0.00    +0.000 Br
ATOM      5  C   UNL     1       4.686   3.945  15.980  0.00  0.00    +0.000 A 
ATOM      6  C   UNL     1       4.344   4.023  17.333  0.00  0.00    +0.000 A 
ATOM      7  C   UNL     1       5.318   4.351  18.296  0.00  0.00    +0.000 A 
ENDROOT
BRANCH   1   9
ATOM      8  C   UNL     1       7.970   6.333  18.823  0.00  0.00    +0.000 C 
ATOM      9  O   UNL     1       7.686   4.941  18.722  0.00  0.00    +0.000 OA
ENDBRANCH   1   9
BRANCH   6  10
ATOM     10  C   UNL     1       2.941   3.757  17.718  0.00  0.00    +0.000 C 
ATOM     11  N   UNL     1       2.662   2.735  18.458  0.00  0.00    +0.000 NA
BRANCH  11  12
ATOM     12  C   UNL     1       1.242   2.556  18.802  0.00  0.00    +0.000 C 
BRANCH  12  13
ATOM     13  C   UNL     1       0.889   3.545  19.911  0.00  0.00    +0.000 C 
BRANCH  13  14
ATOM     14  O   UNL     1       0.796   2.865  21.161  0.00  0.00    +0.000 OA
ATOM     15  H   UNL     1       1.264   3.435  21.798  0.00  0.00    +0.000 HD
ENDBRANCH  13  14
ENDBRANCH  12  13
ENDBRANCH  11  12
ENDBRANCH   6  10
BRANCH   7  16
ATOM     16  O   UNL     1       4.969   4.473  19.619  0.00  0.00    +0.000 OA
ATOM     17  H   UNL     1       3.988   4.466  19.673  0.00  0.00    +0.000 HD
ENDBRANCH   7  16
TORSDOF 6
ENDMDL
MODEL 2
REMARK VINA RESULT:      -5.6      3.395      5.193
REMARK  Name = 
REMARK  7 active torsions:
REMARK  status: ('A' for Active; 'I' for Inactive)
REMARK    1  A    between atoms: C_1  and  O_2
REMARK    2  A    between atoms: O_2  and  C_3
REMARK    3  A    between atoms: C_8  and  C_9
REMARK    4  A    between atoms: N_10  and  C_11
REMARK    5  A    between atoms: C_11  and  C_12
REMARK    6  A    between atoms: C_12  and  O_13
REMARK    7  A    between atoms: C_14  and  O_15
REMARK                            x       y       z     vdW  Elec       q    Type
REMARK                         _______ _______ _______ _____ _____    ______ ____
ROOT
ATOM      1  C   UNL     1       6.191   4.696  18.478  0.00  0.00    +0.000 A 
ATOM      2  C   UNL     1       4.804   4.768  18.652  0.00  0.00    +0.000 A 
ATOM      3  C   UNL     1       3.942   4.524  17.581  0.00  0.00    +0.000 A 
ATOM      4 BR   UNL     1       2.072   4.641  17.841  0.00  0.00    +0.000 Br
ATOM      5  C   UNL     1       4.442   4.194  16.326  0.00  0.00    +0.000 A 
ATOM      6  C   UNL     1       5.825   4.094  16.150  0.00  0.00    +0.000 A 
ATOM      7  C   UNL     1       6.700   4.340  17.226  0.00  0.00    +0.000 A 
ENDROOT
BRANCH   1   9
ATOM      8  C   UNL     1       7.916   5.950  19.524  0.00  0.00    +0.000 C 
ATOM      9  O   UNL     1       6.912   4.944  19.619  0.00  0.00    +0.000 OA
ENDBRANCH   1   9
BRANCH   6  10
ATOM     10  C   UNL     1       6.337   3.722  14.813  0.00  0.00    +0.000 C 
ATOM     11  N   UNL     1       5.652   4.022  13.758  0.00  0.00    +0.000 NA
BRANCH  11  12
ATOM     12  C   UNL     1       6.244   3.624  12.470  0.00  0.00    +0.000 C 
BRANCH  12  13
ATOM     13  C   UNL     1       5.266   2.691  11.759  0.00  0.00    +0.000 C 
BRANCH  13  14
ATOM     14  O   UNL     1       5.868   1.414  11.557  0.00  0.00    +0.000 OA
ATOM     15  H   UNL     1       5.382   1.017  10.811  0.00  0.00    +0.000 HD
ENDBRANCH  13  14
ENDBRANCH  12  13
ENDBRANCH  11  12
ENDBRANCH   6  10
BRANCH   7  16
ATOM     16  O   UNL     1       8.056   4.196  17.062  0.00  0.00    +0.000 OA
ATOM     17  H   UNL     1       8.335   3.396  17.561  0.00  0.00    +0.000 HD
ENDBRANCH   7  16
TORSDOF 6
ENDMDL
MODEL 3
REMARK VINA RESULT:      -5.6      0.982      1.014
REMARK  Name = 
REMARK  7 active torsions:
REMARK  status: ('A' for Active; 'I' for Inactive)
REMARK    1  A    between atoms: C_1  and  O_2
REMARK    2  A    between atoms: O_2  and  C_3
REMARK    3  A    between atoms: C_8  and  C_9
REMARK    4  A    between atoms: N_10  and  C_11
REMARK    5  A    between atoms: C_11  and  C_12
REMARK    6  A    between atoms: C_12  and  O_13
REMARK    7  A    between atoms: C_14  and  O_15
REMARK                            x       y       z     vdW  Elec       q    Type
REMARK                         _______ _______ _______ _____ _____    ______ ____
ROOT
ATOM      1  C   UNL     1       6.807   5.559  17.602  0.00  0.00    +0.000 A 
ATOM      2  C   UNL     1       6.925   5.249  16.243  0.00  0.00    +0.000 A 
ATOM      3  C   UNL     1       5.992   4.416  15.622  0.00  0.00    +0.000 A 
ATOM      4 BR   UNL     1       6.182   4.003  13.786  0.00  0.00    +0.000 Br
ATOM      5  C   UNL     1       4.922   3.888  16.338  0.00  0.00    +0.000 A 
ATOM      6  C   UNL     1       4.782   4.214  17.690  0.00  0.00    +0.000 A 
ATOM      7  C   UNL     1       5.721   5.052  18.322  0.00  0.00    +0.000 A 
ENDROOT
BRANCH   1   9
ATOM      8  C   UNL     1       7.713   7.754  17.641  0.00  0.00    +0.000 C 
ATOM      9  O   UNL     1       7.785   6.399  18.072  0.00  0.00    +0.000 OA
ENDBRANCH   1   9
BRANCH   6  10
ATOM     10  C   UNL     1       3.627   3.659  18.429  0.00  0.00    +0.000 C 
ATOM     11  N   UNL     1       3.336   2.405  18.317  0.00  0.00    +0.000 NA
BRANCH  11  12
ATOM     12  C   UNL     1       2.179   1.938  19.098  0.00  0.00    +0.000 C 
BRANCH  12  13
ATOM     13  C   UNL     1       1.070   2.983  18.985  0.00  0.00    +0.000 C 
BRANCH  13  14
ATOM     14  O   UNL     1       0.426   3.150  20.246  0.00  0.00    +0.000 OA
ATOM     15  H   UNL     1      -0.131   2.358  20.355  0.00  0.00    +0.000 HD
ENDBRANCH  13  14
ENDBRANCH  12  13
ENDBRANCH  11  12
ENDBRANCH   6  10
BRANCH   7  16
ATOM     16  O   UNL     1       5.556   5.409  19.638  0.00  0.00    +0.000 OA
ATOM     17  H   UNL     1       4.738   5.951  19.702  0.00  0.00    +0.000 HD
ENDBRANCH   7  16
TORSDOF 6
ENDMDL
MODEL 4
REMARK VINA RESULT:      -5.5      1.257      1.306
REMARK  Name = 
REMARK  7 active torsions:
REMARK  status: ('A' for Active; 'I' for Inactive)
REMARK    1  A    between atoms: C_1  and  O_2
REMARK    2  A    between atoms: O_2  and  C_3
REMARK    3  A    between atoms: C_8  and  C_9
REMARK    4  A    between atoms: N_10  and  C_11
REMARK    5  A    between atoms: C_11  and  C_12
REMARK    6  A    between atoms: C_12  and  O_13
REMARK    7  A    between atoms: C_14  and  O_15
REMARK                            x       y       z     vdW  Elec       q    Type
REMARK                         _______ _______ _______ _____ _____    ______ ____
ROOT
ATOM      1  C   UNL     1       6.846   5.600  17.644  0.00  0.00    +0.000 A 
ATOM      2  C   UNL     1       6.947   5.282  16.285  0.00  0.00    +0.000 A 
ATOM      3  C   UNL     1       6.027   4.415  15.690  0.00  0.00    +0.000 A 
ATOM      4 BR   UNL     1       6.194   3.993  13.854  0.00  0.00    +0.000 Br
ATOM      5  C   UNL     1       4.988   3.862  16.431  0.00  0.00    +0.000 A 
ATOM      6  C   UNL     1       4.864   4.196  17.783  0.00  0.00    +0.000 A 
ATOM      7  C   UNL     1       5.790   5.067  18.389  0.00  0.00    +0.000 A 
ENDROOT
BRANCH   1   9
ATOM      8  C   UNL     1       7.708   7.813  17.616  0.00  0.00    +0.000 C 
ATOM      9  O   UNL     1       7.807   6.473  18.087  0.00  0.00    +0.000 OA
ENDBRANCH   1   9
BRANCH   6  10
ATOM     10  C   UNL     1       3.741   3.613  18.549  0.00  0.00    +0.000 C 
ATOM     11  N   UNL     1       2.863   4.392  19.091  0.00  0.00    +0.000 NA
BRANCH  11  12
ATOM     12  C   UNL     1       1.773   3.725  19.822  0.00  0.00    +0.000 C 
BRANCH  12  13
ATOM     13  C   UNL     1       2.392   2.743  20.815  0.00  0.00    +0.000 C 
BRANCH  13  14
ATOM     14  O   UNL     1       2.284   3.255  22.142  0.00  0.00    +0.000 OA
ATOM     15  H   UNL     1       1.982   2.503  22.682  0.00  0.00    +0.000 HD
ENDBRANCH  13  14
ENDBRANCH  12  13
ENDBRANCH  11  12
ENDBRANCH   6  10
BRANCH   7  16
ATOM     16  O   UNL     1       5.639   5.430  19.705  0.00  0.00    +0.000 OA
ATOM     17  H   UNL     1       5.501   4.610  20.229  0.00  0.00    +0.000 HD
ENDBRANCH   7  16
TORSDOF 6
ENDMDL
MODEL 5
REMARK VINA RESULT:      -5.5      3.191      5.950
REMARK  Name = 
REMARK  7 active torsions:
REMARK  status: ('A' for Active; 'I' for Inactive)
REMARK    1  A    between atoms: C_1  and  O_2
REMARK    2  A    between atoms: O_2  and  C_3
REMARK    3  A    between atoms: C_8  and  C_9
REMARK    4  A    between atoms: N_10  and  C_11
REMARK    5  A    between atoms: C_11  and  C_12
REMARK    6  A    between atoms: C_12  and  O_13
REMARK    7  A    between atoms: C_14  and  O_15
REMARK                            x       y       z     vdW  Elec       q    Type
REMARK                         _______ _______ _______ _____ _____    ______ ____
ROOT
ATOM      1  C   UNL     1       2.509   3.611  19.874  0.00  0.00    +0.000 A 
ATOM      2  C   UNL     1       1.927   4.817  20.279  0.00  0.00    +0.000 A 
ATOM      3  C   UNL     1       2.443   6.038  19.838  0.00  0.00    +0.000 A 
ATOM      4 BR   UNL     1       1.643   7.653  20.411  0.00  0.00    +0.000 Br
ATOM      5  C   UNL     1       3.537   6.079  18.979  0.00  0.00    +0.000 A 
ATOM      6  C   UNL     1       4.108   4.878  18.548  0.00  0.00    +0.000 A 
ATOM      7  C   UNL     1       3.593   3.644  18.991  0.00  0.00    +0.000 A 
ENDROOT
BRANCH   1   9
ATOM      8  C   UNL     1       1.484   2.554  21.737  0.00  0.00    +0.000 C 
ATOM      9  O   UNL     1       1.889   2.494  20.373  0.00  0.00    +0.000 OA
ENDBRANCH   1   9
BRANCH   6  10
ATOM     10  C   UNL     1       5.257   4.942  17.619  0.00  0.00    +0.000 C 
ATOM     11  N   UNL     1       6.414   4.506  17.998  0.00  0.00    +0.000 NA
BRANCH  11  12
ATOM     12  C   UNL     1       7.495   4.597  17.004  0.00  0.00    +0.000 C 
BRANCH  12  13
ATOM     13  C   UNL     1       6.865   4.667  15.614  0.00  0.00    +0.000 C 
BRANCH  13  14
ATOM     14  O   UNL     1       7.721   5.382  14.725  0.00  0.00    +0.000 OA
ATOM     15  H   UNL     1       8.485   5.650  15.267  0.00  0.00    +0.000 HD
ENDBRANCH  13  14
ENDBRANCH  12  13
ENDBRANCH  11  12
ENDBRANCH   6  10
BRANCH   7  16
ATOM     16  O   UNL     1       4.127   2.466  18.530  0.00  0.00    +0.000 OA
ATOM     17  H   UNL     1       4.117   2.495  17.548  0.00  0.00    +0.000 HD
ENDBRANCH   7  16
TORSDOF 6
ENDMDL
MODEL 6
REMARK VINA RESULT:      -5.5      3.187      5.799
REMARK  Name = 
REMARK  7 active torsions:
REMARK  status: ('A' for Active; 'I' for Inactive)
REMARK    1  A    between atoms: C_1  and  O_2
REMARK    2  A    between atoms: O_2  and  C_3
REMARK    3  A    between atoms: C_8  and  C_9
REMARK    4  A    between atoms: N_10  and  C_11
REMARK    5  A    between atoms: C_11  and  C_12
REMARK    6  A    between atoms: C_12  and  O_13
REMARK    7  A    between atoms: C_14  and  O_15
REMARK                            x       y       z     vdW  Elec       q    Type
REMARK                         _______ _______ _______ _____ _____    ______ ____
ROOT
ATOM      1  C   UNL     1       2.792   3.615  19.793  0.00  0.00    +0.000 A 
ATOM      2  C   UNL     1       2.230   4.817  20.239  0.00  0.00    +0.000 A 
ATOM      3  C   UNL     1       2.574   6.028  19.635  0.00  0.00    +0.000 A 
ATOM      4 BR   UNL     1       1.808   7.638  20.265  0.00  0.00    +0.000 Br
ATOM      5  C   UNL     1       3.473   6.063  18.573  0.00  0.00    +0.000 A 
ATOM      6  C   UNL     1       4.019   4.865  18.105  0.00  0.00    +0.000 A 
ATOM      7  C   UNL     1       3.677   3.641  18.711  0.00  0.00    +0.000 A 
ENDROOT
BRANCH   1   9
ATOM      8  C   UNL     1       1.652   2.745  21.686  0.00  0.00    +0.000 C 
ATOM      9  O   UNL     1       2.351   2.506  20.469  0.00  0.00    +0.000 OA
ENDBRANCH   1   9
BRANCH   6  10
ATOM     10  C   UNL     1       4.957   4.922  16.962  0.00  0.00    +0.000 C 
ATOM     11  N   UNL     1       4.808   4.106  15.970  0.00  0.00    +0.000 NA
BRANCH  11  12
ATOM     12  C   UNL     1       5.778   4.242  14.872  0.00  0.00    +0.000 C 
BRANCH  12  13
ATOM     13  C   UNL     1       7.083   4.790  15.448  0.00  0.00    +0.000 C 
BRANCH  13  14
ATOM     14  O   UNL     1       7.828   5.453  14.428  0.00  0.00    +0.000 OA
ATOM     15  H   UNL     1       7.329   5.296  13.606  0.00  0.00    +0.000 HD
ENDBRANCH  13  14
ENDBRANCH  12  13
ENDBRANCH  11  12
ENDBRANCH   6  10
BRANCH   7  16
ATOM     16  O   UNL     1       4.179   2.461  18.219  0.00  0.00    +0.000 OA
ATOM     17  H   UNL     1       3.856   2.358  17.297  0.00  0.00    +0.000 HD
ENDBRANCH   7  16
TORSDOF 6
ENDMDL
MODEL 7
REMARK VINA RESULT:      -5.5      3.318      5.723
REMARK  Name = 
REMARK  7 active torsions:
REMARK  status: ('A' for Active; 'I' for Inactive)
REMARK    1  A    between atoms: C_1  and  O_2
REMARK    2  A    between atoms: O_2  and  C_3
REMARK    3  A    between atoms: C_8  and  C_9
REMARK    4  A    between atoms: N_10  and  C_11
REMARK    5  A    between atoms: C_11  and  C_12
REMARK    6  A    between atoms: C_12  and  O_13
REMARK    7  A    between atoms: C_14  and  O_15
REMARK                            x       y       z     vdW  Elec       q    Type
REMARK                         _______ _______ _______ _____ _____    ______ ____
ROOT
ATOM      1  C   UNL     1       2.876   5.627  19.809  0.00  0.00    +0.000 A 
ATOM      2  C   UNL     1       2.243   6.827  19.465  0.00  0.00    +0.000 A 
ATOM      3  C   UNL     1       2.688   7.576  18.373  0.00  0.00    +0.000 A 
ATOM      4 BR   UNL     1       1.822   9.200  17.938  0.00  0.00    +0.000 Br
ATOM      5  C   UNL     1       3.759   7.139  17.600  0.00  0.00    +0.000 A 
ATOM      6  C   UNL     1       4.381   5.929  17.920  0.00  0.00    +0.000 A 
ATOM      7  C   UNL     1       3.938   5.171  19.021  0.00  0.00    +0.000 A 
ENDROOT
BRANCH   1   9
ATOM      8  C   UNL     1       1.232   4.120  20.623  0.00  0.00    +0.000 C 
ATOM      9  O   UNL     1       2.324   4.993  20.892  0.00  0.00    +0.000 OA
ENDBRANCH   1   9
BRANCH   6  10
ATOM     10  C   UNL     1       5.504   5.472  17.074  0.00  0.00    +0.000 C 
ATOM     11  N   UNL     1       5.432   4.329  16.474  0.00  0.00    +0.000 NA
BRANCH  11  12
ATOM     12  C   UNL     1       6.590   3.963  15.643  0.00  0.00    +0.000 C 
BRANCH  12  13
ATOM     13  C   UNL     1       6.595   4.857  14.405  0.00  0.00    +0.000 C 
BRANCH  13  14
ATOM     14  O   UNL     1       7.853   5.518  14.284  0.00  0.00    +0.000 OA
ATOM     15  H   UNL     1       7.711   6.407  14.655  0.00  0.00    +0.000 HD
ENDBRANCH  13  14
ENDBRANCH  12  13
ENDBRANCH  11  12
ENDBRANCH   6  10
BRANCH   7  16
ATOM     16  O   UNL     1       4.519   3.960  19.306  0.00  0.00    +0.000 OA
ATOM     17  H   UNL     1       4.257   3.327  18.601  0.00  0.00    +0.000 HD
ENDBRANCH   7  16
TORSDOF 6
ENDMDL
MODEL 8
REMARK VINA RESULT:      -5.4      3.668      5.712
REMARK  Name = 
REMARK  7 active torsions:
REMARK  status: ('A' for Active; 'I' for Inactive)
REMARK    1  A    between atoms: C_1  and  O_2
REMARK    2  A    between atoms: O_2  and  C_3
REMARK    3  A    between atoms: C_8  and  C_9
REMARK    4  A    between atoms: N_10  and  C_11
REMARK    5  A    between atoms: C_11  and  C_12
REMARK    6  A    between atoms: C_12  and  O_13
REMARK    7  A    between atoms: C_14  and  O_15
REMARK                            x       y       z     vdW  Elec       q    Type
REMARK                         _______ _______ _______ _____ _____    ______ ____
ROOT
ATOM      1  C   UNL     1       3.065   6.096  18.154  0.00  0.00    +0.000 A 
ATOM      2  C   UNL     1       2.188   5.110  18.620  0.00  0.00    +0.000 A 
ATOM      3  C   UNL     1       2.317   3.787  18.191  0.00  0.00    +0.000 A 
ATOM      4 BR   UNL     1       1.111   2.476  18.827  0.00  0.00    +0.000 Br
ATOM      5  C   UNL     1       3.325   3.421  17.304  0.00  0.00    +0.000 A 
ATOM      6  C   UNL     1       4.221   4.395  16.855  0.00  0.00    +0.000 A 
ATOM      7  C   UNL     1       4.095   5.731  17.282  0.00  0.00    +0.000 A 
ENDROOT
BRANCH   1   9
ATOM      8  C   UNL     1       2.096   7.394  19.891  0.00  0.00    +0.000 C 
ATOM      9  O   UNL     1       2.828   7.345  18.671  0.00  0.00    +0.000 OA
ENDBRANCH   1   9
BRANCH   6  10
ATOM     10  C   UNL     1       5.298   3.982  15.928  0.00  0.00    +0.000 C 
ATOM     11  N   UNL     1       5.327   4.458  14.727  0.00  0.00    +0.000 NA
BRANCH  11  12
ATOM     12  C   UNL     1       6.441   4.003  13.880  0.00  0.00    +0.000 C 
BRANCH  12  13
ATOM     13  C   UNL     1       5.865   3.499  12.557  0.00  0.00    +0.000 C 
BRANCH  13  14
ATOM     14  O   UNL     1       6.648   2.413  12.066  0.00  0.00    +0.000 OA
ATOM     15  H   UNL     1       7.158   2.098  12.834  0.00  0.00    +0.000 HD
ENDBRANCH  13  14
ENDBRANCH  12  13
ENDBRANCH  11  12
ENDBRANCH   6  10
BRANCH   7  16
ATOM     16  O   UNL     1       5.005   6.676  16.876  0.00  0.00    +0.000 OA
ATOM     17  H   UNL     1       4.770   7.526  17.312  0.00  0.00    +0.000 HD
ENDBRANCH   7  16
TORSDOF 6
ENDMDL
MODEL 9
REMARK VINA RESULT:      -5.4      3.697      5.532
REMARK  Name = 
REMARK  7 active torsions:
REMARK  status: ('A' for Active; 'I' for Inactive)
REMARK    1  A    between atoms: C_1  and  O_2
REMARK    2  A    between atoms: O_2  and  C_3
REMARK    3  A    between atoms: C_8  and  C_9
REMARK    4  A    between atoms: N_10  and  C_11
REMARK    5  A    between atoms: C_11  and  C_12
REMARK    6  A    between atoms: C_12  and  O_13
REMARK    7  A    between atoms: C_14  and  O_15
REMARK                            x       y       z     vdW  Elec       q    Type
REMARK                         _______ _______ _______ _____ _____    ______ ____
ROOT
ATOM      1  C   UNL     1       6.867   5.281  17.322  0.00  0.00    +0.000 A 
ATOM      2  C   UNL     1       5.932   4.716  18.197  0.00  0.00    +0.000 A 
ATOM      3  C   UNL     1       4.834   4.010  17.701  0.00  0.00    +0.000 A 
ATOM      4 BR   UNL     1       3.580   3.266  18.906  0.00  0.00    +0.000 Br
ATOM      5  C   UNL     1       4.652   3.845  16.332  0.00  0.00    +0.000 A 
ATOM      6  C   UNL     1       5.595   4.385  15.452  0.00  0.00    +0.000 A 
ATOM      7  C   UNL     1       6.704   5.099  15.945  0.00  0.00    +0.000 A 
ENDROOT
BRANCH   1   9
ATOM      8  C   UNL     1       7.947   5.819  19.367  0.00  0.00    +0.000 C 
ATOM      9  O   UNL     1       7.899   5.931  17.949  0.00  0.00    +0.000 OA
ENDBRANCH   1   9
BRANCH   6  10
ATOM     10  C   UNL     1       5.395   4.181  14.000  0.00  0.00    +0.000 C 
ATOM     11  N   UNL     1       6.301   3.572  13.308  0.00  0.00    +0.000 NA
BRANCH  11  12
ATOM     12  C   UNL     1       6.012   3.403  11.874  0.00  0.00    +0.000 C 
BRANCH  12  13
ATOM     13  C   UNL     1       5.819   1.913  11.596  0.00  0.00    +0.000 C 
BRANCH  13  14
ATOM     14  O   UNL     1       7.063   1.320  11.229  0.00  0.00    +0.000 OA
ATOM     15  H   UNL     1       7.545   2.015  10.746  0.00  0.00    +0.000 HD
ENDBRANCH  13  14
ENDBRANCH  12  13
ENDBRANCH  11  12
ENDBRANCH   6  10
BRANCH   7  16
ATOM     16  O   UNL     1       7.653   5.588  15.081  0.00  0.00    +0.000 OA
ATOM     17  H   UNL     1       7.686   6.564  15.191  0.00  0.00    +0.000 HD
ENDBRANCH   7  16
TORSDOF 6
ENDMDL
