MODEL 1
REMARK VINA RESULT:      -6.4      0.000      0.000
REMARK  Name = 
REMARK  6 active torsions:
REMARK  status: ('A' for Active; 'I' for Inactive)
REMARK    1  A    between atoms: C_2  and  C_3
REMARK    2  A    between atoms: C_2  and  C_5
REMARK    3  A    between atoms: C_3  and  O_4
REMARK    4  A    between atoms: C_5  and  O_7
REMARK    5  A    between atoms: O_7  and  C_8
REMARK    6  A    between atoms: C_14  and  O_15
REMARK                            x       y       z     vdW  Elec       q    Type
REMARK                         _______ _______ _______ _____ _____    ______ ____
ROOT
ATOM      1  C   UNL     1      -2.100  12.128  21.200  0.00  0.00    +0.000 C 
ATOM      2  C   UNL     1      -3.124  12.472  22.315  0.00  0.00    +0.000 C 
ATOM      3  C   UNL     1      -4.019  13.662  21.988  0.00  0.00    +0.000 C 
ATOM      4  C   UNL     1      -3.661  14.898  22.377  0.00  0.00    +0.000 C 
ATOM      5  C   UNL     1      -5.296  13.430  21.183  0.00  0.00    +0.000 C 
ATOM      6  C   UNL     1      -6.321  12.595  21.966  0.00  0.00    +0.000 C 
ATOM      7  C   UNL     1      -7.287  12.055  20.920  0.00  0.00    +0.000 C 
ATOM      8  C   UNL     1      -6.474  11.950  19.661  0.00  0.00    +0.000 C 
ATOM      9  C   UNL     1      -6.794  10.919  18.585  0.00  0.00    +0.000 C 
ATOM     10  O   UNL     1      -7.227  12.272  18.474  0.00  0.00    +0.000 OA
ATOM     11  C   UNL     1      -5.180  12.758  19.770  0.00  0.00    +0.000 C 
ATOM     12  C   UNL     1      -3.931  11.898  19.525  0.00  0.00    +0.000 C 
ATOM     13  O   UNL     1      -3.865  11.495  18.145  0.00  0.00    +0.000 OA
ATOM     14  C   UNL     1      -2.606  11.570  17.652  0.00  0.00    +0.000 C 
ATOM     15  O   UNL     1      -2.236  11.130  16.581  0.00  0.00    +0.000 OA
ATOM     16  C   UNL     1      -1.802  12.339  18.615  0.00  0.00    +0.000 C 
ATOM     17  C   UNL     1      -0.627  12.875  18.260  0.00  0.00    +0.000 C 
ATOM     18  C   UNL     1      -2.613  12.620  19.828  0.00  0.00    +0.000 C 
ENDROOT
BRANCH   7  19
ATOM     19  O   UNL     1      -7.777  10.785  21.332  0.00  0.00    +0.000 OA
ATOM     20  H   UNL     1      -7.916  10.241  20.538  0.00  0.00    +0.000 HD
ENDBRANCH   7  19
BRANCH   1  21
ATOM     21  O   UNL     1      -0.819  12.720  21.512  0.00  0.00    +0.000 OA
BRANCH  21  22
ATOM     22  C   UNL     1       0.243  11.866  21.471  0.00  0.00    +0.000 C 
ATOM     23  O   UNL     1       1.407  12.200  21.297  0.00  0.00    +0.000 OA
BRANCH  22  25
ATOM     24  C   UNL     1      -0.187   9.573  20.650  0.00  0.00    +0.000 C 
ATOM     25  C   UNL     1      -0.170  10.447  21.672  0.00  0.00    +0.000 C 
BRANCH  25  26
ATOM     26  C   UNL     1      -0.569  10.089  23.077  0.00  0.00    +0.000 C 
BRANCH  26  27
ATOM     27  O   UNL     1       0.558   9.660  23.849  0.00  0.00    +0.000 OA
ATOM     28  H   UNL     1       0.859   8.821  23.458  0.00  0.00    +0.000 HD
ENDBRANCH  26  27
ENDBRANCH  25  26
ENDBRANCH  22  25
ENDBRANCH  21  22
ENDBRANCH   1  21
TORSDOF 6
ENDMDL
MODEL 2
REMARK VINA RESULT:      -6.3      2.081      4.269
REMARK  Name = 
REMARK  6 active torsions:
REMARK  status: ('A' for Active; 'I' for Inactive)
REMARK    1  A    between atoms: C_2  and  C_3
REMARK    2  A    between atoms: C_2  and  C_5
REMARK    3  A    between atoms: C_3  and  O_4
REMARK    4  A    between atoms: C_5  and  O_7
REMARK    5  A    between atoms: O_7  and  C_8
REMARK    6  A    between atoms: C_14  and  O_15
REMARK                            x       y       z     vdW  Elec       q    Type
REMARK                         _______ _______ _______ _____ _____    ______ ____
ROOT
ATOM      1  C   UNL     1      -1.303  12.549  19.615  0.00  0.00    +0.000 C 
ATOM      2  C   UNL     1      -1.662  12.198  18.147  0.00  0.00    +0.000 C 
ATOM      3  C   UNL     1      -2.573  10.983  18.006  0.00  0.00    +0.000 C 
ATOM      4  C   UNL     1      -2.040   9.761  17.833  0.00  0.00    +0.000 C 
ATOM      5  C   UNL     1      -4.085  11.175  18.106  0.00  0.00    +0.000 C 
ATOM      6  C   UNL     1      -4.635  11.998  16.930  0.00  0.00    +0.000 C 
ATOM      7  C   UNL     1      -5.997  12.502  17.390  0.00  0.00    +0.000 C 
ATOM      8  C   UNL     1      -5.884  12.607  18.884  0.00  0.00    +0.000 C 
ATOM      9  C   UNL     1      -6.705  13.616  19.679  0.00  0.00    +0.000 C 
ATOM     10  O   UNL     1      -7.103  12.252  19.569  0.00  0.00    +0.000 OA
ATOM     11  C   UNL     1      -4.674  11.830  19.404  0.00  0.00    +0.000 C 
ATOM     12  C   UNL     1      -3.715  12.715  20.216  0.00  0.00    +0.000 C 
ATOM     13  O   UNL     1      -4.326  13.100  21.461  0.00  0.00    +0.000 OA
ATOM     14  C   UNL     1      -3.452  13.046  22.494  0.00  0.00    +0.000 C 
ATOM     15  O   UNL     1      -3.648  13.480  23.613  0.00  0.00    +0.000 OA
ATOM     16  C   UNL     1      -2.266  12.309  22.029  0.00  0.00    +0.000 C 
ATOM     17  C   UNL     1      -1.388  11.795  22.901  0.00  0.00    +0.000 C 
ATOM     18  C   UNL     1      -2.393  12.026  20.576  0.00  0.00    +0.000 C 
ENDROOT
BRANCH   7  19
ATOM     19  O   UNL     1      -6.265  13.766  16.796  0.00  0.00    +0.000 OA
ATOM     20  H   UNL     1      -5.416  14.192  16.593  0.00  0.00    +0.000 HD
ENDBRANCH   7  19
BRANCH   1  21
ATOM     21  O   UNL     1      -0.012  11.991  19.950  0.00  0.00    +0.000 OA
BRANCH  21  22
ATOM     22  C   UNL     1       0.950  12.900  20.272  0.00  0.00    +0.000 C 
ATOM     23  O   UNL     1       1.333  13.147  21.408  0.00  0.00    +0.000 OA
BRANCH  22  25
ATOM     24  C   UNL     1       1.213  14.856  18.781  0.00  0.00    +0.000 C 
ATOM     25  C   UNL     1       1.511  13.576  19.066  0.00  0.00    +0.000 C 
BRANCH  25  26
ATOM     26  C   UNL     1       2.402  12.720  18.208  0.00  0.00    +0.000 C 
BRANCH  26  27
ATOM     27  O   UNL     1       1.835  11.423  17.994  0.00  0.00    +0.000 OA
ATOM     28  H   UNL     1       0.868  11.538  18.005  0.00  0.00    +0.000 HD
ENDBRANCH  26  27
ENDBRANCH  25  26
ENDBRANCH  22  25
ENDBRANCH  21  22
ENDBRANCH   1  21
TORSDOF 6
ENDMDL
MODEL 3
REMARK VINA RESULT:      -6.3      2.150      4.161
REMARK  Name = 
REMARK  6 active torsions:
REMARK  status: ('A' for Active; 'I' for Inactive)
REMARK    1  A    between atoms: C_2  and  C_3
REMARK    2  A    between atoms: C_2  and  C_5
REMARK    3  A    between atoms: C_3  and  O_4
REMARK    4  A    between atoms: C_5  and  O_7
REMARK    5  A    between atoms: O_7  and  C_8
REMARK    6  A    between atoms: C_14  and  O_15
REMARK                            x       y       z     vdW  Elec       q    Type
REMARK                         _______ _______ _______ _____ _____    ______ ____
ROOT
ATOM      1  C   UNL     1      -1.574  12.293  19.346  0.00  0.00    +0.000 C 
ATOM      2  C   UNL     1      -2.113  11.916  17.940  0.00  0.00    +0.000 C 
ATOM      3  C   UNL     1      -3.235  10.883  17.964  0.00  0.00    +0.000 C 
ATOM      4  C   UNL     1      -2.945   9.575  17.854  0.00  0.00    +0.000 C 
ATOM      5  C   UNL     1      -4.674  11.357  18.154  0.00  0.00    +0.000 C 
ATOM      6  C   UNL     1      -5.165  12.186  16.957  0.00  0.00    +0.000 C 
ATOM      7  C   UNL     1      -6.371  12.963  17.469  0.00  0.00    +0.000 C 
ATOM      8  C   UNL     1      -6.116  13.146  18.938  0.00  0.00    +0.000 C 
ATOM      9  C   UNL     1      -6.673  14.341  19.704  0.00  0.00    +0.000 C 
ATOM     10  O   UNL     1      -7.317  13.070  19.734  0.00  0.00    +0.000 OA
ATOM     11  C   UNL     1      -5.024  12.197  19.433  0.00  0.00    +0.000 C 
ATOM     12  C   UNL     1      -3.858  12.941  20.100  0.00  0.00    +0.000 C 
ATOM     13  O   UNL     1      -4.283  13.516  21.349  0.00  0.00    +0.000 OA
ATOM     14  C   UNL     1      -3.349  13.372  22.319  0.00  0.00    +0.000 C 
ATOM     15  O   UNL     1      -3.369  13.909  23.410  0.00  0.00    +0.000 OA
ATOM     16  C   UNL     1      -2.357  12.399  21.834  0.00  0.00    +0.000 C 
ATOM     17  C   UNL     1      -1.515  11.792  22.680  0.00  0.00    +0.000 C 
ATOM     18  C   UNL     1      -2.655  12.047  20.421  0.00  0.00    +0.000 C 
ENDROOT
BRANCH   7  19
ATOM     19  O   UNL     1      -6.458  14.212  16.794  0.00  0.00    +0.000 OA
ATOM     20  H   UNL     1      -6.893  14.847  17.387  0.00  0.00    +0.000 HD
ENDBRANCH   7  19
BRANCH   1  21
ATOM     21  O   UNL     1      -0.380  11.530  19.633  0.00  0.00    +0.000 OA
BRANCH  21  22
ATOM     22  C   UNL     1       0.770  12.257  19.716  0.00  0.00    +0.000 C 
ATOM     23  O   UNL     1       0.990  13.135  20.540  0.00  0.00    +0.000 OA
BRANCH  22  25
ATOM     24  C   UNL     1       2.543  12.767  18.068  0.00  0.00    +0.000 C 
ATOM     25  C   UNL     1       1.763  11.856  18.678  0.00  0.00    +0.000 C 
BRANCH  25  26
ATOM     26  C   UNL     1       1.808  10.385  18.368  0.00  0.00    +0.000 C 
BRANCH  26  27
ATOM     27  O   UNL     1       0.661   9.973  17.614  0.00  0.00    +0.000 OA
ATOM     28  H   UNL     1       0.915  10.020  16.676  0.00  0.00    +0.000 HD
ENDBRANCH  26  27
ENDBRANCH  25  26
ENDBRANCH  22  25
ENDBRANCH  21  22
ENDBRANCH   1  21
TORSDOF 6
ENDMDL
MODEL 4
REMARK VINA RESULT:      -6.3      1.433      2.205
REMARK  Name = 
REMARK  6 active torsions:
REMARK  status: ('A' for Active; 'I' for Inactive)
REMARK    1  A    between atoms: C_2  and  C_3
REMARK    2  A    between atoms: C_2  and  C_5
REMARK    3  A    between atoms: C_3  and  O_4
REMARK    4  A    between atoms: C_5  and  O_7
REMARK    5  A    between atoms: O_7  and  C_8
REMARK    6  A    between atoms: C_14  and  O_15
REMARK                            x       y       z     vdW  Elec       q    Type
REMARK                         _______ _______ _______ _____ _____    ______ ____
ROOT
ATOM      1  C   UNL     1      -2.341  11.949  22.162  0.00  0.00    +0.000 C 
ATOM      2  C   UNL     1      -2.906  12.346  23.551  0.00  0.00    +0.000 C 
ATOM      3  C   UNL     1      -3.539  13.733  23.589  0.00  0.00    +0.000 C 
ATOM      4  C   UNL     1      -2.799  14.800  23.938  0.00  0.00    +0.000 C 
ATOM      5  C   UNL     1      -5.003  13.890  23.185  0.00  0.00    +0.000 C 
ATOM      6  C   UNL     1      -5.947  13.193  24.177  0.00  0.00    +0.000 C 
ATOM      7  C   UNL     1      -7.263  13.018  23.431  0.00  0.00    +0.000 C 
ATOM      8  C   UNL     1      -6.875  12.916  21.984  0.00  0.00    +0.000 C 
ATOM      9  C   UNL     1      -7.717  12.134  20.982  0.00  0.00    +0.000 C 
ATOM     10  O   UNL     1      -7.822  13.550  21.099  0.00  0.00    +0.000 OA
ATOM     11  C   UNL     1      -5.445  13.408  21.759  0.00  0.00    +0.000 C 
ATOM     12  C   UNL     1      -4.557  12.344  21.095  0.00  0.00    +0.000 C 
ATOM     13  O   UNL     1      -4.971  12.129  19.733  0.00  0.00    +0.000 OA
ATOM     14  C   UNL     1      -3.915  12.002  18.895  0.00  0.00    +0.000 C 
ATOM     15  O   UNL     1      -3.969  11.643  17.734  0.00  0.00    +0.000 OA
ATOM     16  C   UNL     1      -2.717  12.443  19.626  0.00  0.00    +0.000 C 
ATOM     17  C   UNL     1      -1.589  12.760  18.976  0.00  0.00    +0.000 C 
ATOM     18  C   UNL     1      -3.072  12.722  21.042  0.00  0.00    +0.000 C 
ENDROOT
BRANCH   7  19
ATOM     19  O   UNL     1      -7.916  11.837  23.881  0.00  0.00    +0.000 OA
ATOM     20  H   UNL     1      -7.961  11.213  23.137  0.00  0.00    +0.000 HD
ENDBRANCH   7  19
BRANCH   1  21
ATOM     21  O   UNL     1      -0.919  12.207  22.120  0.00  0.00    +0.000 OA
BRANCH  21  22
ATOM     22  C   UNL     1      -0.124  11.102  22.199  0.00  0.00    +0.000 C 
ATOM     23  O   UNL     1       0.019  10.408  23.197  0.00  0.00    +0.000 OA
BRANCH  22  25
ATOM     24  C   UNL     1       0.298   9.695  20.209  0.00  0.00    +0.000 C 
ATOM     25  C   UNL     1       0.565  10.813  20.909  0.00  0.00    +0.000 C 
BRANCH  25  26
ATOM     26  C   UNL     1       1.570  11.844  20.474  0.00  0.00    +0.000 C 
BRANCH  26  27
ATOM     27  O   UNL     1       1.559  12.984  21.340  0.00  0.00    +0.000 OA
ATOM     28  H   UNL     1       1.201  13.725  20.818  0.00  0.00    +0.000 HD
ENDBRANCH  26  27
ENDBRANCH  25  26
ENDBRANCH  22  25
ENDBRANCH  21  22
ENDBRANCH   1  21
TORSDOF 6
ENDMDL
MODEL 5
REMARK VINA RESULT:      -6.3      1.553      2.115
REMARK  Name = 
REMARK  6 active torsions:
REMARK  status: ('A' for Active; 'I' for Inactive)
REMARK    1  A    between atoms: C_2  and  C_3
REMARK    2  A    between atoms: C_2  and  C_5
REMARK    3  A    between atoms: C_3  and  O_4
REMARK    4  A    between atoms: C_5  and  O_7
REMARK    5  A    between atoms: O_7  and  C_8
REMARK    6  A    between atoms: C_14  and  O_15
REMARK                            x       y       z     vdW  Elec       q    Type
REMARK                         _______ _______ _______ _____ _____    ______ ____
ROOT
ATOM      1  C   UNL     1      -2.383  11.793  22.062  0.00  0.00    +0.000 C 
ATOM      2  C   UNL     1      -2.888  12.248  23.457  0.00  0.00    +0.000 C 
ATOM      3  C   UNL     1      -3.395  13.686  23.494  0.00  0.00    +0.000 C 
ATOM      4  C   UNL     1      -2.557  14.685  23.822  0.00  0.00    +0.000 C 
ATOM      5  C   UNL     1      -4.846  13.970  23.113  0.00  0.00    +0.000 C 
ATOM      6  C   UNL     1      -5.831  13.365  24.126  0.00  0.00    +0.000 C 
ATOM      7  C   UNL     1      -7.170  13.303  23.403  0.00  0.00    +0.000 C 
ATOM      8  C   UNL     1      -6.817  13.157  21.950  0.00  0.00    +0.000 C 
ATOM      9  C   UNL     1      -7.741  12.445  20.969  0.00  0.00    +0.000 C 
ATOM     10  O   UNL     1      -7.719  13.867  21.076  0.00  0.00    +0.000 OA
ATOM     11  C   UNL     1      -5.352  13.519  21.698  0.00  0.00    +0.000 C 
ATOM     12  C   UNL     1      -4.574  12.376  21.028  0.00  0.00    +0.000 C 
ATOM     13  O   UNL     1      -5.028  12.189  19.676  0.00  0.00    +0.000 OA
ATOM     14  C   UNL     1      -4.002  11.963  18.821  0.00  0.00    +0.000 C 
ATOM     15  O   UNL     1      -4.107  11.603  17.665  0.00  0.00    +0.000 OA
ATOM     16  C   UNL     1      -2.757  12.301  19.529  0.00  0.00    +0.000 C 
ATOM     17  C   UNL     1      -1.618  12.512  18.858  0.00  0.00    +0.000 C 
ATOM     18  C   UNL     1      -3.063  12.620  20.948  0.00  0.00    +0.000 C 
ENDROOT
BRANCH   7  19
ATOM     19  O   UNL     1      -7.916  12.188  23.873  0.00  0.00    +0.000 OA
ATOM     20  H   UNL     1      -7.779  12.113  24.832  0.00  0.00    +0.000 HD
ENDBRANCH   7  19
BRANCH   1  21
ATOM     21  O   UNL     1      -0.946  11.923  21.995  0.00  0.00    +0.000 OA
BRANCH  21  22
ATOM     22  C   UNL     1      -0.242  10.814  22.360  0.00  0.00    +0.000 C 
ATOM     23  O   UNL     1      -0.160  10.376  23.500  0.00  0.00    +0.000 OA
BRANCH  22  25
ATOM     24  C   UNL     1       0.970  10.898  20.205  0.00  0.00    +0.000 C 
ATOM     25  C   UNL     1       0.428  10.166  21.195  0.00  0.00    +0.000 C 
BRANCH  25  26
ATOM     26  C   UNL     1       0.434   8.662  21.214  0.00  0.00    +0.000 C 
BRANCH  26  27
ATOM     27  O   UNL     1      -0.761   8.141  21.807  0.00  0.00    +0.000 OA
ATOM     28  H   UNL     1      -0.517   7.830  22.696  0.00  0.00    +0.000 HD
ENDBRANCH  26  27
ENDBRANCH  25  26
ENDBRANCH  22  25
ENDBRANCH  21  22
ENDBRANCH   1  21
TORSDOF 6
ENDMDL
MODEL 6
REMARK VINA RESULT:      -6.3      2.252      4.543
REMARK  Name = 
REMARK  6 active torsions:
REMARK  status: ('A' for Active; 'I' for Inactive)
REMARK    1  A    between atoms: C_2  and  C_3
REMARK    2  A    between atoms: C_2  and  C_5
REMARK    3  A    between atoms: C_3  and  O_4
REMARK    4  A    between atoms: C_5  and  O_7
REMARK    5  A    between atoms: O_7  and  C_8
REMARK    6  A    between atoms: C_14  and  O_15
REMARK                            x       y       z     vdW  Elec       q    Type
REMARK                         _______ _______ _______ _____ _____    ______ ____
ROOT
ATOM      1  C   UNL     1      -3.026  12.003  19.875  0.00  0.00    +0.000 C 
ATOM      2  C   UNL     1      -2.074  12.572  20.961  0.00  0.00    +0.000 C 
ATOM      3  C   UNL     1      -2.360  14.022  21.335  0.00  0.00    +0.000 C 
ATOM      4  C   UNL     1      -1.716  15.019  20.701  0.00  0.00    +0.000 C 
ATOM      5  C   UNL     1      -3.409  14.318  22.403  0.00  0.00    +0.000 C 
ATOM      6  C   UNL     1      -2.972  13.818  23.789  0.00  0.00    +0.000 C 
ATOM      7  C   UNL     1      -4.249  13.741  24.615  0.00  0.00    +0.000 C 
ATOM      8  C   UNL     1      -5.340  13.481  23.615  0.00  0.00    +0.000 C 
ATOM      9  C   UNL     1      -6.609  12.726  23.993  0.00  0.00    +0.000 C 
ATOM     10  O   UNL     1      -6.576  14.150  23.940  0.00  0.00    +0.000 OA
ATOM     11  C   UNL     1      -4.868  13.781  22.192  0.00  0.00    +0.000 C 
ATOM     12  C   UNL     1      -5.019  12.571  21.257  0.00  0.00    +0.000 C 
ATOM     13  O   UNL     1      -6.411  12.300  21.013  0.00  0.00    +0.000 OA
ATOM     14  C   UNL     1      -6.649  11.983  19.718  0.00  0.00    +0.000 C 
ATOM     15  O   UNL     1      -7.692  11.543  19.275  0.00  0.00    +0.000 OA
ATOM     16  C   UNL     1      -5.444  12.336  18.951  0.00  0.00    +0.000 C 
ATOM     17  C   UNL     1      -5.488  12.465  17.619  0.00  0.00    +0.000 C 
ATOM     18  C   UNL     1      -4.369  12.765  19.882  0.00  0.00    +0.000 C 
ENDROOT
BRANCH   7  19
ATOM     19  O   UNL     1      -4.145  12.685  25.561  0.00  0.00    +0.000 OA
ATOM     20  H   UNL     1      -4.626  11.916  25.212  0.00  0.00    +0.000 HD
ENDBRANCH   7  19
BRANCH   1  21
ATOM     21  O   UNL     1      -2.394  12.086  18.578  0.00  0.00    +0.000 OA
BRANCH  21  22
ATOM     22  C   UNL     1      -1.853  10.923  18.116  0.00  0.00    +0.000 C 
ATOM     23  O   UNL     1      -0.698  10.562  18.301  0.00  0.00    +0.000 OA
BRANCH  22  25
ATOM     24  C   UNL     1      -3.630   9.209  17.963  0.00  0.00    +0.000 C 
ATOM     25  C   UNL     1      -2.841  10.110  17.350  0.00  0.00    +0.000 C 
BRANCH  25  26
ATOM     26  C   UNL     1      -2.870  10.366  15.868  0.00  0.00    +0.000 C 
BRANCH  26  27
ATOM     27  O   UNL     1      -2.284  11.632  15.543  0.00  0.00    +0.000 OA
ATOM     28  H   UNL     1      -2.324  12.171  16.353  0.00  0.00    +0.000 HD
ENDBRANCH  26  27
ENDBRANCH  25  26
ENDBRANCH  22  25
ENDBRANCH  21  22
ENDBRANCH   1  21
TORSDOF 6
ENDMDL
MODEL 7
REMARK VINA RESULT:      -6.2      2.154      4.113
REMARK  Name = 
REMARK  6 active torsions:
REMARK  status: ('A' for Active; 'I' for Inactive)
REMARK    1  A    between atoms: C_2  and  C_3
REMARK    2  A    between atoms: C_2  and  C_5
REMARK    3  A    between atoms: C_3  and  O_4
REMARK    4  A    between atoms: C_5  and  O_7
REMARK    5  A    between atoms: O_7  and  C_8
REMARK    6  A    between atoms: C_14  and  O_15
REMARK                            x       y       z     vdW  Elec       q    Type
REMARK                         _______ _______ _______ _____ _____    ______ ____
ROOT
ATOM      1  C   UNL     1      -1.860  12.477  19.825  0.00  0.00    +0.000 C 
ATOM      2  C   UNL     1      -2.144  12.076  18.353  0.00  0.00    +0.000 C 
ATOM      3  C   UNL     1      -3.176  10.964  18.202  0.00  0.00    +0.000 C 
ATOM      4  C   UNL     1      -2.777   9.681  18.141  0.00  0.00    +0.000 C 
ATOM      5  C   UNL     1      -4.658  11.329  18.164  0.00  0.00    +0.000 C 
ATOM      6  C   UNL     1      -5.017  12.132  16.904  0.00  0.00    +0.000 C 
ATOM      7  C   UNL     1      -6.342  12.812  17.220  0.00  0.00    +0.000 C 
ATOM      8  C   UNL     1      -6.334  12.999  18.711  0.00  0.00    +0.000 C 
ATOM      9  C   UNL     1      -7.090  14.141  19.379  0.00  0.00    +0.000 C 
ATOM     10  O   UNL     1      -7.635  12.826  19.309  0.00  0.00    +0.000 OA
ATOM     11  C   UNL     1      -5.265  12.127  19.371  0.00  0.00    +0.000 C 
ATOM     12  C   UNL     1      -4.276  12.948  20.212  0.00  0.00    +0.000 C 
ATOM     13  O   UNL     1      -4.932  13.477  21.378  0.00  0.00    +0.000 OA
ATOM     14  C   UNL     1      -4.152  13.392  22.482  0.00  0.00    +0.000 C 
ATOM     15  O   UNL     1      -4.382  13.914  23.556  0.00  0.00    +0.000 OA
ATOM     16  C   UNL     1      -3.028  12.499  22.160  0.00  0.00    +0.000 C 
ATOM     17  C   UNL     1      -2.285  11.947  23.128  0.00  0.00    +0.000 C 
ATOM     18  C   UNL     1      -3.075  12.141  20.718  0.00  0.00    +0.000 C 
ENDROOT
BRANCH   7  19
ATOM     19  O   UNL     1      -6.415  14.058  16.539  0.00  0.00    +0.000 OA
ATOM     20  H   UNL     1      -6.664  14.743  17.182  0.00  0.00    +0.000 HD
ENDBRANCH   7  19
BRANCH   1  21
ATOM     21  O   UNL     1      -0.673  11.800  20.297  0.00  0.00    +0.000 OA
BRANCH  21  22
ATOM     22  C   UNL     1       0.268  11.543  19.344  0.00  0.00    +0.000 C 
ATOM     23  O   UNL     1       0.759  12.378  18.596  0.00  0.00    +0.000 OA
BRANCH  22  25
ATOM     24  C   UNL     1       0.681   9.361  20.435  0.00  0.00    +0.000 C 
ATOM     25  C   UNL     1       0.655  10.103  19.313  0.00  0.00    +0.000 C 
BRANCH  25  26
ATOM     26  C   UNL     1       1.020   9.567  17.955  0.00  0.00    +0.000 C 
BRANCH  26  27
ATOM     27  O   UNL     1       2.088  10.317  17.366  0.00  0.00    +0.000 OA
ATOM     28  H   UNL     1       2.003  10.210  16.402  0.00  0.00    +0.000 HD
ENDBRANCH  26  27
ENDBRANCH  25  26
ENDBRANCH  22  25
ENDBRANCH  21  22
ENDBRANCH   1  21
TORSDOF 6
ENDMDL
MODEL 8
REMARK VINA RESULT:      -6.2      8.543     10.748
REMARK  Name = 
REMARK  6 active torsions:
REMARK  status: ('A' for Active; 'I' for Inactive)
REMARK    1  A    between atoms: C_2  and  C_3
REMARK    2  A    between atoms: C_2  and  C_5
REMARK    3  A    between atoms: C_3  and  O_4
REMARK    4  A    between atoms: C_5  and  O_7
REMARK    5  A    between atoms: O_7  and  C_8
REMARK    6  A    between atoms: C_14  and  O_15
REMARK                            x       y       z     vdW  Elec       q    Type
REMARK                         _______ _______ _______ _____ _____    ______ ____
ROOT
ATOM      1  C   UNL     1       5.133   6.097  18.111  0.00  0.00    +0.000 C 
ATOM      2  C   UNL     1       4.181   6.677  19.191  0.00  0.00    +0.000 C 
ATOM      3  C   UNL     1       2.738   6.835  18.723  0.00  0.00    +0.000 C 
ATOM      4  C   UNL     1       2.328   7.999  18.191  0.00  0.00    +0.000 C 
ATOM      5  C   UNL     1       1.790   5.643  18.833  0.00  0.00    +0.000 C 
ATOM      6  C   UNL     1       1.506   5.272  20.297  0.00  0.00    +0.000 C 
ATOM      7  C   UNL     1       0.973   3.846  20.258  0.00  0.00    +0.000 C 
ATOM      8  C   UNL     1       1.605   3.231  19.042  0.00  0.00    +0.000 C 
ATOM      9  C   UNL     1       1.879   1.735  18.952  0.00  0.00    +0.000 C 
ATOM     10  O   UNL     1       0.728   2.319  18.349  0.00  0.00    +0.000 OA
ATOM     11  C   UNL     1       2.182   4.303  18.117  0.00  0.00    +0.000 C 
ATOM     12  C   UNL     1       3.678   4.093  17.838  0.00  0.00    +0.000 C 
ATOM     13  O   UNL     1       3.874   2.922  17.025  0.00  0.00    +0.000 OA
ATOM     14  C   UNL     1       4.812   3.117  16.069  0.00  0.00    +0.000 C 
ATOM     15  O   UNL     1       5.297   2.254  15.363  0.00  0.00    +0.000 OA
ATOM     16  C   UNL     1       5.075   4.563  15.999  0.00  0.00    +0.000 C 
ATOM     17  C   UNL     1       5.685   5.104  14.936  0.00  0.00    +0.000 C 
ATOM     18  C   UNL     1       4.338   5.256  17.088  0.00  0.00    +0.000 C 
ENDROOT
BRANCH   7  19
ATOM     19  O   UNL     1       1.350   3.160  21.445  0.00  0.00    +0.000 OA
ATOM     20  H   UNL     1       0.984   2.261  21.407  0.00  0.00    +0.000 HD
ENDBRANCH   7  19
BRANCH   1  21
ATOM     21  O   UNL     1       5.840   7.172  17.453  0.00  0.00    +0.000 OA
BRANCH  21  22
ATOM     22  C   UNL     1       7.199   7.125  17.557  0.00  0.00    +0.000 C 
ATOM     23  O   UNL     1       7.969   7.956  17.094  0.00  0.00    +0.000 OA
BRANCH  22  25
ATOM     24  C   UNL     1       7.823   4.738  17.721  0.00  0.00    +0.000 C 
ATOM     25  C   UNL     1       7.662   5.931  18.320  0.00  0.00    +0.000 C 
BRANCH  25  26
ATOM     26  C   UNL     1       7.914   6.164  19.785  0.00  0.00    +0.000 C 
BRANCH  26  27
ATOM     27  O   UNL     1       8.673   5.096  20.363  0.00  0.00    +0.000 OA
ATOM     28  H   UNL     1       8.733   4.400  19.685  0.00  0.00    +0.000 HD
ENDBRANCH  26  27
ENDBRANCH  25  26
ENDBRANCH  22  25
ENDBRANCH  21  22
ENDBRANCH   1  21
TORSDOF 6
ENDMDL
MODEL 9
REMARK VINA RESULT:      -6.2      8.842     13.205
REMARK  Name = 
REMARK  6 active torsions:
REMARK  status: ('A' for Active; 'I' for Inactive)
REMARK    1  A    between atoms: C_2  and  C_3
REMARK    2  A    between atoms: C_2  and  C_5
REMARK    3  A    between atoms: C_3  and  O_4
REMARK    4  A    between atoms: C_5  and  O_7
REMARK    5  A    between atoms: O_7  and  C_8
REMARK    6  A    between atoms: C_14  and  O_15
REMARK                            x       y       z     vdW  Elec       q    Type
REMARK                         _______ _______ _______ _____ _____    ______ ____
ROOT
ATOM      1  C   UNL     1       7.117  14.972  19.803  0.00  0.00    +0.000 C 
ATOM      2  C   UNL     1       7.867  15.649  18.626  0.00  0.00    +0.000 C 
ATOM      3  C   UNL     1       9.232  16.214  19.006  0.00  0.00    +0.000 C 
ATOM      4  C   UNL     1       9.343  17.496  19.397  0.00  0.00    +0.000 C 
ATOM      5  C   UNL     1      10.450  15.294  18.972  0.00  0.00    +0.000 C 
ATOM      6  C   UNL     1      10.789  14.846  17.542  0.00  0.00    +0.000 C 
ATOM      7  C   UNL     1      11.669  13.613  17.700  0.00  0.00    +0.000 C 
ATOM      8  C   UNL     1      11.238  12.998  19.001  0.00  0.00    +0.000 C 
ATOM      9  C   UNL     1      11.355  11.499  19.255  0.00  0.00    +0.000 C 
ATOM     10  O   UNL     1      12.332  12.416  19.741  0.00  0.00    +0.000 OA
ATOM     11  C   UNL     1      10.426  13.986  19.839  0.00  0.00    +0.000 C 
ATOM     12  C   UNL     1       9.039  13.439  20.208  0.00  0.00    +0.000 C 
ATOM     13  O   UNL     1       9.164  12.353  21.145  0.00  0.00    +0.000 OA
ATOM     14  C   UNL     1       8.226  12.412  22.120  0.00  0.00    +0.000 C 
ATOM     15  O   UNL     1       7.991  11.538  22.932  0.00  0.00    +0.000 OA
ATOM     16  C   UNL     1       7.606  13.744  22.054  0.00  0.00    +0.000 C 
ATOM     17  C   UNL     1       6.900  14.228  23.085  0.00  0.00    +0.000 C 
ATOM     18  C   UNL     1       8.120  14.475  20.867  0.00  0.00    +0.000 C 
ENDROOT
BRANCH   7  19
ATOM     19  O   UNL     1      11.454  12.728  16.608  0.00  0.00    +0.000 OA
ATOM     20  H   UNL     1      12.005  13.024  15.864  0.00  0.00    +0.000 HD
ENDBRANCH   7  19
BRANCH   1  21
ATOM     21  O   UNL     1       6.172  15.901  20.381  0.00  0.00    +0.000 OA
BRANCH  21  22
ATOM     22  C   UNL     1       5.040  16.111  19.651  0.00  0.00    +0.000 C 
ATOM     23  O   UNL     1       4.817  17.101  18.967  0.00  0.00    +0.000 OA
BRANCH  22  25
ATOM     24  C   UNL     1       3.813  14.405  20.955  0.00  0.00    +0.000 C 
ATOM     25  C   UNL     1       4.079  14.976  19.767  0.00  0.00    +0.000 C 
BRANCH  25  26
ATOM     26  C   UNL     1       3.459  14.527  18.473  0.00  0.00    +0.000 C 
BRANCH  26  27
ATOM     27  O   UNL     1       4.412  14.534  17.404  0.00  0.00    +0.000 OA
ATOM     28  H   UNL     1       4.300  15.381  16.938  0.00  0.00    +0.000 HD
ENDBRANCH  26  27
ENDBRANCH  25  26
ENDBRANCH  22  25
ENDBRANCH  21  22
ENDBRANCH   1  21
TORSDOF 6
ENDMDL
