MODEL 1
REMARK VINA RESULT:      -8.3      0.000      0.000
REMARK  Name = 
REMARK  10 active torsions:
REMARK  status: ('A' for Active; 'I' for Inactive)
REMARK    1  A    between atoms: C_1  and  S_2
REMARK    2  A    between atoms: S_2  and  N_3
REMARK    3  A    between atoms: C_6  and  N_7
REMARK    4  A    between atoms: C_8  and  C_10
REMARK    5  A    between atoms: C_10  and  C_11
REMARK    6  A    between atoms: C_17  and  N_18
REMARK    7  A    between atoms: N_18  and  O_19
REMARK    8  A    between atoms: O_19  and  C_20
REMARK    9  A    between atoms: C_20  and  C_21
REMARK   10  A    between atoms: C_27  and  C_29
REMARK                            x       y       z     vdW  Elec       q    Type
REMARK                         _______ _______ _______ _____ _____    ______ ____
ROOT
ATOM      1  N   UNL     1       5.863   5.157  15.743  0.00  0.00    +0.000 N 
ATOM      2  C   UNL     1       7.031   5.539  16.320  0.00  0.00    +0.000 C 
ATOM      3  O   UNL     1       8.176   5.208  16.154  0.00  0.00    +0.000 OA
ATOM      4  C   UNL     1       6.291   6.513  17.277  0.00  0.00    +0.000 C 
ATOM      5  C   UNL     1       4.981   6.014  16.549  0.00  0.00    +0.000 C 
ENDROOT
BRANCH   4   6
ATOM      6  N   UNL     1       6.590   7.978  17.140  0.00  0.00    +0.000 N 
ATOM      7  C   UNL     1       7.691   8.508  17.766  0.00  0.00    +0.000 C 
ATOM      8  O   UNL     1       8.439   7.829  18.487  0.00  0.00    +0.000 OA
ATOM      9  H   UNL     1       5.939   8.601  16.668  0.00  0.00    +0.000 HD
BRANCH   7  10
ATOM     10  C   UNL     1       7.920   9.995  17.634  0.00  0.00    +0.000 C 
BRANCH  10  11
ATOM     11  C   UNL     1       9.092  10.382  18.489  0.00  0.00    +0.000 A 
ATOM     12  C   UNL     1       8.948  10.462  19.884  0.00  0.00    +0.000 A 
ATOM     13  C   UNL     1       9.937  11.067  20.657  0.00  0.00    +0.000 A 
ATOM     14  C   UNL     1      11.087  11.560  20.049  0.00  0.00    +0.000 A 
ATOM     15  C   UNL     1      11.267  11.426  18.673  0.00  0.00    +0.000 A 
ATOM     16  C   UNL     1      10.273  10.833  17.894  0.00  0.00    +0.000 A 
ENDBRANCH  10  11
ENDBRANCH   7  10
ENDBRANCH   4   6
BRANCH   5  17
ATOM     17  N   UNL     1       3.906   5.376  17.365  0.00  0.00    +0.000 N 
ATOM     18  C   UNL     1       4.173   4.308  18.235  0.00  0.00    +0.000 C 
ATOM     19  O   UNL     1       5.174   3.611  18.146  0.00  0.00    +0.000 OA
BRANCH  18  20
ATOM     20  C   UNL     1       3.169   3.942  19.292  0.00  0.00    +0.000 A 
ATOM     21  C   UNL     1       3.097   4.750  20.436  0.00  0.00    +0.000 A 
ATOM     22  C   UNL     1       2.270   4.392  21.505  0.00  0.00    +0.000 A 
ATOM     23  C   UNL     1       1.490   3.240  21.423  0.00  0.00    +0.000 A 
ATOM     24  C   UNL     1       1.515   2.461  20.276  0.00  0.00    +0.000 A 
ATOM     25  C   UNL     1       2.332   2.824  19.211  0.00  0.00    +0.000 A 
ENDBRANCH  18  20
BRANCH  17  26
ATOM     26  O   UNL     1       2.753   6.165  17.546  0.00  0.00    +0.000 OA
BRANCH  26  27
ATOM     27  C   UNL     1       3.016   7.573  17.452  0.00  0.00    +0.000 C 
BRANCH  27  28
ATOM     28  C   UNL     1       2.155   8.347  18.423  0.00  0.00    +0.000 A 
ATOM     29  C   UNL     1       1.946   7.872  19.728  0.00  0.00    +0.000 A 
ATOM     30  C   UNL     1       1.162   8.582  20.623  0.00  0.00    +0.000 A 
ATOM     31  C   UNL     1       0.597   9.798  20.245  0.00  0.00    +0.000 A 
ATOM     32  C   UNL     1       0.843  10.313  18.971  0.00  0.00    +0.000 A 
ATOM     33  C   UNL     1       1.627   9.598  18.066  0.00  0.00    +0.000 A 
ENDBRANCH  27  28
ENDBRANCH  26  27
ENDBRANCH  17  26
ENDBRANCH   5  17
BRANCH   1  35
ATOM     34  C   UNL     1       6.384   3.984  13.409  0.00  0.00    +0.000 C 
ATOM     35  S   UNL     1       5.542   3.716  14.977  0.00  0.00    +0.000 S 
ENDBRANCH   1  35
TORSDOF 9
ENDMDL
MODEL 2
REMARK VINA RESULT:      -8.3      5.173      9.128
REMARK  Name = 
REMARK  10 active torsions:
REMARK  status: ('A' for Active; 'I' for Inactive)
REMARK    1  A    between atoms: C_1  and  S_2
REMARK    2  A    between atoms: S_2  and  N_3
REMARK    3  A    between atoms: C_6  and  N_7
REMARK    4  A    between atoms: C_8  and  C_10
REMARK    5  A    between atoms: C_10  and  C_11
REMARK    6  A    between atoms: C_17  and  N_18
REMARK    7  A    between atoms: N_18  and  O_19
REMARK    8  A    between atoms: O_19  and  C_20
REMARK    9  A    between atoms: C_20  and  C_21
REMARK   10  A    between atoms: C_27  and  C_29
REMARK                            x       y       z     vdW  Elec       q    Type
REMARK                         _______ _______ _______ _____ _____    ______ ____
ROOT
ATOM      1  N   UNL     1       1.488  11.850  19.627  0.00  0.00    +0.000 N 
ATOM      2  C   UNL     1       1.802  11.002  18.614  0.00  0.00    +0.000 C 
ATOM      3  O   UNL     1       2.400  11.144  17.580  0.00  0.00    +0.000 OA
ATOM      4  C   UNL     1       1.057   9.829  19.307  0.00  0.00    +0.000 C 
ATOM      5  C   UNL     1       0.739  10.881  20.442  0.00  0.00    +0.000 C 
ENDROOT
BRANCH   4   6
ATOM      6  N   UNL     1       1.875   8.645  19.732  0.00  0.00    +0.000 N 
ATOM      7  C   UNL     1       2.286   7.730  18.794  0.00  0.00    +0.000 C 
ATOM      8  O   UNL     1       1.971   7.816  17.597  0.00  0.00    +0.000 OA
ATOM      9  H   UNL     1       2.050   8.459  20.717  0.00  0.00    +0.000 HD
BRANCH   7  10
ATOM     10  C   UNL     1       3.067   6.534  19.282  0.00  0.00    +0.000 C 
BRANCH  10  11
ATOM     11  C   UNL     1       2.163   5.335  19.288  0.00  0.00    +0.000 A 
ATOM     12  C   UNL     1       1.602   4.884  20.495  0.00  0.00    +0.000 A 
ATOM     13  C   UNL     1       0.984   3.636  20.557  0.00  0.00    +0.000 A 
ATOM     14  C   UNL     1       0.891   2.851  19.412  0.00  0.00    +0.000 A 
ATOM     15  C   UNL     1       1.389   3.319  18.197  0.00  0.00    +0.000 A 
ATOM     16  C   UNL     1       2.020   4.562  18.133  0.00  0.00    +0.000 A 
ENDBRANCH  10  11
ENDBRANCH   7  10
ENDBRANCH   4   6
BRANCH   5  17
ATOM     17  N   UNL     1      -0.687  11.170  20.774  0.00  0.00    +0.000 N 
ATOM     18  C   UNL     1      -1.071  11.641  22.038  0.00  0.00    +0.000 C 
ATOM     19  O   UNL     1      -0.370  11.526  23.033  0.00  0.00    +0.000 OA
BRANCH  18  20
ATOM     20  C   UNL     1      -2.429  12.262  22.219  0.00  0.00    +0.000 A 
ATOM     21  C   UNL     1      -3.011  12.204  23.493  0.00  0.00    +0.000 A 
ATOM     22  C   UNL     1      -4.319  12.655  23.694  0.00  0.00    +0.000 A 
ATOM     23  C   UNL     1      -5.040  13.192  22.629  0.00  0.00    +0.000 A 
ATOM     24  C   UNL     1      -4.455  13.302  21.376  0.00  0.00    +0.000 A 
ATOM     25  C   UNL     1      -3.151  12.860  21.181  0.00  0.00    +0.000 A 
ENDBRANCH  18  20
BRANCH  17  26
ATOM     26  O   UNL     1      -1.525  11.370  19.659  0.00  0.00    +0.000 OA
BRANCH  26  27
ATOM     27  C   UNL     1      -2.006  10.142  19.092  0.00  0.00    +0.000 C 
BRANCH  27  28
ATOM     28  C   UNL     1      -2.684  10.393  17.764  0.00  0.00    +0.000 A 
ATOM     29  C   UNL     1      -2.189   9.807  16.587  0.00  0.00    +0.000 A 
ATOM     30  C   UNL     1      -2.811  10.030  15.369  0.00  0.00    +0.000 A 
ATOM     31  C   UNL     1      -3.959  10.815  15.305  0.00  0.00    +0.000 A 
ATOM     32  C   UNL     1      -4.498  11.356  16.474  0.00  0.00    +0.000 A 
ATOM     33  C   UNL     1      -3.871  11.139  17.701  0.00  0.00    +0.000 A 
ENDBRANCH  27  28
ENDBRANCH  26  27
ENDBRANCH  17  26
ENDBRANCH   5  17
BRANCH   1  35
ATOM     34  C   UNL     1       2.978  13.992  20.162  0.00  0.00    +0.000 C 
ATOM     35  S   UNL     1       1.357  13.506  19.550  0.00  0.00    +0.000 S 
ENDBRANCH   1  35
TORSDOF 9
ENDMDL
MODEL 3
REMARK VINA RESULT:      -8.0      5.413      9.121
REMARK  Name = 
REMARK  10 active torsions:
REMARK  status: ('A' for Active; 'I' for Inactive)
REMARK    1  A    between atoms: C_1  and  S_2
REMARK    2  A    between atoms: S_2  and  N_3
REMARK    3  A    between atoms: C_6  and  N_7
REMARK    4  A    between atoms: C_8  and  C_10
REMARK    5  A    between atoms: C_10  and  C_11
REMARK    6  A    between atoms: C_17  and  N_18
REMARK    7  A    between atoms: N_18  and  O_19
REMARK    8  A    between atoms: O_19  and  C_20
REMARK    9  A    between atoms: C_20  and  C_21
REMARK   10  A    between atoms: C_27  and  C_29
REMARK                            x       y       z     vdW  Elec       q    Type
REMARK                         _______ _______ _______ _____ _____    ______ ____
ROOT
ATOM      1  N   UNL     1       1.674  13.104  19.827  0.00  0.00    +0.000 N 
ATOM      2  C   UNL     1       2.063  12.763  18.571  0.00  0.00    +0.000 C 
ATOM      3  O   UNL     1       2.630  13.363  17.696  0.00  0.00    +0.000 OA
ATOM      4  C   UNL     1       1.452  11.344  18.721  0.00  0.00    +0.000 C 
ATOM      5  C   UNL     1       1.040  11.822  20.169  0.00  0.00    +0.000 C 
ENDROOT
BRANCH   4   6
ATOM      6  N   UNL     1       2.394  10.176  18.668  0.00  0.00    +0.000 N 
ATOM      7  C   UNL     1       2.088   9.089  17.887  0.00  0.00    +0.000 C 
ATOM      8  O   UNL     1       1.029   9.009  17.244  0.00  0.00    +0.000 OA
ATOM      9  H   UNL     1       3.211  10.137  19.274  0.00  0.00    +0.000 HD
BRANCH   7  10
ATOM     10  C   UNL     1       3.047   7.924  17.905  0.00  0.00    +0.000 C 
BRANCH  10  11
ATOM     11  C   UNL     1       2.393   6.770  18.609  0.00  0.00    +0.000 A 
ATOM     12  C   UNL     1       2.117   6.850  19.984  0.00  0.00    +0.000 A 
ATOM     13  C   UNL     1       1.758   5.706  20.695  0.00  0.00    +0.000 A 
ATOM     14  C   UNL     1       1.637   4.488  20.032  0.00  0.00    +0.000 A 
ATOM     15  C   UNL     1       1.847   4.413  18.656  0.00  0.00    +0.000 A 
ATOM     16  C   UNL     1       2.219   5.553  17.944  0.00  0.00    +0.000 A 
ENDBRANCH  10  11
ENDBRANCH   7  10
ENDBRANCH   4   6
BRANCH   5  17
ATOM     17  N   UNL     1      -0.405  11.811  20.544  0.00  0.00    +0.000 N 
ATOM     18  C   UNL     1      -0.840  12.203  21.819  0.00  0.00    +0.000 C 
ATOM     19  O   UNL     1      -0.101  12.245  22.792  0.00  0.00    +0.000 OA
BRANCH  18  20
ATOM     20  C   UNL     1      -2.291  12.529  22.040  0.00  0.00    +0.000 A 
ATOM     21  C   UNL     1      -2.838  12.261  23.304  0.00  0.00    +0.000 A 
ATOM     22  C   UNL     1      -4.207  12.430  23.533  0.00  0.00    +0.000 A 
ATOM     23  C   UNL     1      -5.030  12.894  22.508  0.00  0.00    +0.000 A 
ATOM     24  C   UNL     1      -4.491  13.211  21.270  0.00  0.00    +0.000 A 
ATOM     25  C   UNL     1      -3.128  13.050  21.048  0.00  0.00    +0.000 A 
ENDBRANCH  18  20
BRANCH  17  26
ATOM     26  O   UNL     1      -1.299  11.822  19.456  0.00  0.00    +0.000 OA
BRANCH  26  27
ATOM     27  C   UNL     1      -1.648  10.506  19.003  0.00  0.00    +0.000 C 
BRANCH  27  28
ATOM     28  C   UNL     1      -2.497  10.574  17.754  0.00  0.00    +0.000 A 
ATOM     29  C   UNL     1      -3.619  11.418  17.698  0.00  0.00    +0.000 A 
ATOM     30  C   UNL     1      -4.396  11.487  16.553  0.00  0.00    +0.000 A 
ATOM     31  C   UNL     1      -4.051  10.741  15.429  0.00  0.00    +0.000 A 
ATOM     32  C   UNL     1      -2.906   9.943  15.448  0.00  0.00    +0.000 A 
ATOM     33  C   UNL     1      -2.125   9.866  16.601  0.00  0.00    +0.000 A 
ENDBRANCH  27  28
ENDBRANCH  26  27
ENDBRANCH  17  26
ENDBRANCH   5  17
BRANCH   1  35
ATOM     34  C   UNL     1       0.040  15.142  19.306  0.00  0.00    +0.000 C 
ATOM     35  S   UNL     1       1.370  14.633  20.407  0.00  0.00    +0.000 S 
ENDBRANCH   1  35
TORSDOF 9
ENDMDL
MODEL 4
REMARK VINA RESULT:      -7.9      5.352      9.400
REMARK  Name = 
REMARK  10 active torsions:
REMARK  status: ('A' for Active; 'I' for Inactive)
REMARK    1  A    between atoms: C_1  and  S_2
REMARK    2  A    between atoms: S_2  and  N_3
REMARK    3  A    between atoms: C_6  and  N_7
REMARK    4  A    between atoms: C_8  and  C_10
REMARK    5  A    between atoms: C_10  and  C_11
REMARK    6  A    between atoms: C_17  and  N_18
REMARK    7  A    between atoms: N_18  and  O_19
REMARK    8  A    between atoms: O_19  and  C_20
REMARK    9  A    between atoms: C_20  and  C_21
REMARK   10  A    between atoms: C_27  and  C_29
REMARK                            x       y       z     vdW  Elec       q    Type
REMARK                         _______ _______ _______ _____ _____    ______ ____
ROOT
ATOM      1  N   UNL     1       1.648  11.774  19.361  0.00  0.00    +0.000 N 
ATOM      2  C   UNL     1       1.785  10.737  18.494  0.00  0.00    +0.000 C 
ATOM      3  O   UNL     1       2.307  10.632  17.416  0.00  0.00    +0.000 OA
ATOM      4  C   UNL     1       0.977   9.794  19.427  0.00  0.00    +0.000 C 
ATOM      5  C   UNL     1       0.869  11.052  20.378  0.00  0.00    +0.000 C 
ENDROOT
BRANCH   4   6
ATOM      6  N   UNL     1       1.695   8.608  20.002  0.00  0.00    +0.000 N 
ATOM      7  C   UNL     1       2.105   7.593  19.172  0.00  0.00    +0.000 C 
ATOM      8  O   UNL     1       1.867   7.592  17.954  0.00  0.00    +0.000 OA
ATOM      9  H   UNL     1       1.801   8.500  21.008  0.00  0.00    +0.000 HD
BRANCH   7  10
ATOM     10  C   UNL     1       2.782   6.403  19.808  0.00  0.00    +0.000 C 
BRANCH  10  11
ATOM     11  C   UNL     1       2.022   5.161  19.442  0.00  0.00    +0.000 A 
ATOM     12  C   UNL     1       1.219   4.520  20.401  0.00  0.00    +0.000 A 
ATOM     13  C   UNL     1       0.725   3.240  20.158  0.00  0.00    +0.000 A 
ATOM     14  C   UNL     1       0.996   2.611  18.947  0.00  0.00    +0.000 A 
ATOM     15  C   UNL     1       1.737   3.266  17.965  0.00  0.00    +0.000 A 
ATOM     16  C   UNL     1       2.245   4.542  18.210  0.00  0.00    +0.000 A 
ENDBRANCH  10  11
ENDBRANCH   7  10
ENDBRANCH   4   6
BRANCH   5  17
ATOM     17  N   UNL     1      -0.486  11.561  20.742  0.00  0.00    +0.000 N 
ATOM     18  C   UNL     1      -0.819  11.894  22.064  0.00  0.00    +0.000 C 
ATOM     19  O   UNL     1      -0.193  11.487  23.032  0.00  0.00    +0.000 OA
BRANCH  18  20
ATOM     20  C   UNL     1      -2.037  12.735  22.334  0.00  0.00    +0.000 A 
ATOM     21  C   UNL     1      -3.101  12.143  23.029  0.00  0.00    +0.000 A 
ATOM     22  C   UNL     1      -4.304  12.834  23.203  0.00  0.00    +0.000 A 
ATOM     23  C   UNL     1      -4.437  14.130  22.709  0.00  0.00    +0.000 A 
ATOM     24  C   UNL     1      -3.373  14.744  22.065  0.00  0.00    +0.000 A 
ATOM     25  C   UNL     1      -2.175  14.057  21.900  0.00  0.00    +0.000 A 
ENDBRANCH  18  20
BRANCH  17  26
ATOM     26  O   UNL     1      -1.225  12.096  19.669  0.00  0.00    +0.000 OA
BRANCH  26  27
ATOM     27  C   UNL     1      -1.920  11.094  18.912  0.00  0.00    +0.000 C 
BRANCH  27  28
ATOM     28  C   UNL     1      -3.294  11.580  18.510  0.00  0.00    +0.000 A 
ATOM     29  C   UNL     1      -3.784  11.346  17.215  0.00  0.00    +0.000 A 
ATOM     30  C   UNL     1      -5.044  11.785  16.844  0.00  0.00    +0.000 A 
ATOM     31  C   UNL     1      -5.856  12.438  17.769  0.00  0.00    +0.000 A 
ATOM     32  C   UNL     1      -5.407  12.625  19.078  0.00  0.00    +0.000 A 
ATOM     33  C   UNL     1      -4.137  12.190  19.452  0.00  0.00    +0.000 A 
ENDBRANCH  27  28
ENDBRANCH  26  27
ENDBRANCH  17  26
ENDBRANCH   5  17
BRANCH   1  35
ATOM     34  C   UNL     1       2.116  14.077  20.614  0.00  0.00    +0.000 C 
ATOM     35  S   UNL     1       1.690  13.398  19.003  0.00  0.00    +0.000 S 
ENDBRANCH   1  35
TORSDOF 9
ENDMDL
MODEL 5
REMARK VINA RESULT:      -7.9      5.280      9.369
REMARK  Name = 
REMARK  10 active torsions:
REMARK  status: ('A' for Active; 'I' for Inactive)
REMARK    1  A    between atoms: C_1  and  S_2
REMARK    2  A    between atoms: S_2  and  N_3
REMARK    3  A    between atoms: C_6  and  N_7
REMARK    4  A    between atoms: C_8  and  C_10
REMARK    5  A    between atoms: C_10  and  C_11
REMARK    6  A    between atoms: C_17  and  N_18
REMARK    7  A    between atoms: N_18  and  O_19
REMARK    8  A    between atoms: O_19  and  C_20
REMARK    9  A    between atoms: C_20  and  C_21
REMARK   10  A    between atoms: C_27  and  C_29
REMARK                            x       y       z     vdW  Elec       q    Type
REMARK                         _______ _______ _______ _____ _____    ______ ____
ROOT
ATOM      1  N   UNL     1       1.535  11.788  19.401  0.00  0.00    +0.000 N 
ATOM      2  C   UNL     1       1.500  10.720  18.562  0.00  0.00    +0.000 C 
ATOM      3  O   UNL     1       1.812  10.572  17.410  0.00  0.00    +0.000 OA
ATOM      4  C   UNL     1       0.874   9.821  19.661  0.00  0.00    +0.000 C 
ATOM      5  C   UNL     1       0.954  11.111  20.570  0.00  0.00    +0.000 C 
ENDROOT
BRANCH   4   6
ATOM      6  N   UNL     1       1.677   8.645  20.134  0.00  0.00    +0.000 N 
ATOM      7  C   UNL     1       2.040   7.666  19.242  0.00  0.00    +0.000 C 
ATOM      8  O   UNL     1       1.691   7.687  18.051  0.00  0.00    +0.000 OA
ATOM      9  H   UNL     1       1.879   8.514  21.123  0.00  0.00    +0.000 HD
BRANCH   7  10
ATOM     10  C   UNL     1       2.809   6.482  19.779  0.00  0.00    +0.000 C 
BRANCH  10  11
ATOM     11  C   UNL     1       2.085   5.223  19.401  0.00  0.00    +0.000 A 
ATOM     12  C   UNL     1       1.271   4.570  20.341  0.00  0.00    +0.000 A 
ATOM     13  C   UNL     1       0.811   3.278  20.093  0.00  0.00    +0.000 A 
ATOM     14  C   UNL     1       1.128   2.648  18.893  0.00  0.00    +0.000 A 
ATOM     15  C   UNL     1       1.881   3.314  17.928  0.00  0.00    +0.000 A 
ATOM     16  C   UNL     1       2.355   4.602  18.178  0.00  0.00    +0.000 A 
ENDBRANCH  10  11
ENDBRANCH   7  10
ENDBRANCH   4   6
BRANCH   5  17
ATOM     17  N   UNL     1      -0.306  11.651  21.162  0.00  0.00    +0.000 N 
ATOM     18  C   UNL     1      -0.619  11.476  22.518  0.00  0.00    +0.000 C 
ATOM     19  O   UNL     1      -0.102  10.617  23.217  0.00  0.00    +0.000 OA
BRANCH  18  20
ATOM     20  C   UNL     1      -1.684  12.330  23.150  0.00  0.00    +0.000 A 
ATOM     21  C   UNL     1      -1.343  13.640  23.516  0.00  0.00    +0.000 A 
ATOM     22  C   UNL     1      -2.252  14.439  24.215  0.00  0.00    +0.000 A 
ATOM     23  C   UNL     1      -3.516  13.942  24.527  0.00  0.00    +0.000 A 
ATOM     24  C   UNL     1      -3.883  12.665  24.125  0.00  0.00    +0.000 A 
ATOM     25  C   UNL     1      -2.979  11.876  23.422  0.00  0.00    +0.000 A 
ENDBRANCH  18  20
BRANCH  17  26
ATOM     26  O   UNL     1      -0.910  12.686  20.423  0.00  0.00    +0.000 OA
BRANCH  26  27
ATOM     27  C   UNL     1      -2.092  12.264  19.728  0.00  0.00    +0.000 C 
BRANCH  27  28
ATOM     28  C   UNL     1      -3.295  13.061  20.179  0.00  0.00    +0.000 A 
ATOM     29  C   UNL     1      -4.557  12.453  20.281  0.00  0.00    +0.000 A 
ATOM     30  C   UNL     1      -5.661  13.179  20.700  0.00  0.00    +0.000 A 
ATOM     31  C   UNL     1      -5.521  14.519  21.056  0.00  0.00    +0.000 A 
ATOM     32  C   UNL     1      -4.263  15.121  21.017  0.00  0.00    +0.000 A 
ATOM     33  C   UNL     1      -3.151  14.395  20.590  0.00  0.00    +0.000 A 
ENDBRANCH  27  28
ENDBRANCH  26  27
ENDBRANCH  17  26
ENDBRANCH   5  17
BRANCH   1  35
ATOM     34  C   UNL     1       3.252  13.639  18.553  0.00  0.00    +0.000 C 
ATOM     35  S   UNL     1       1.521  13.398  18.984  0.00  0.00    +0.000 S 
ENDBRANCH   1  35
TORSDOF 9
ENDMDL
MODEL 6
REMARK VINA RESULT:      -7.7      2.561      5.798
REMARK  Name = 
REMARK  10 active torsions:
REMARK  status: ('A' for Active; 'I' for Inactive)
REMARK    1  A    between atoms: C_1  and  S_2
REMARK    2  A    between atoms: S_2  and  N_3
REMARK    3  A    between atoms: C_6  and  N_7
REMARK    4  A    between atoms: C_8  and  C_10
REMARK    5  A    between atoms: C_10  and  C_11
REMARK    6  A    between atoms: C_17  and  N_18
REMARK    7  A    between atoms: N_18  and  O_19
REMARK    8  A    between atoms: O_19  and  C_20
REMARK    9  A    between atoms: C_20  and  C_21
REMARK   10  A    between atoms: C_27  and  C_29
REMARK                            x       y       z     vdW  Elec       q    Type
REMARK                         _______ _______ _______ _____ _____    ______ ____
ROOT
ATOM      1  N   UNL     1       6.834   5.420  17.604  0.00  0.00    +0.000 N 
ATOM      2  C   UNL     1       6.960   6.543  16.851  0.00  0.00    +0.000 C 
ATOM      3  O   UNL     1       7.718   7.476  16.889  0.00  0.00    +0.000 OA
ATOM      4  C   UNL     1       5.735   6.150  15.982  0.00  0.00    +0.000 C 
ATOM      5  C   UNL     1       5.663   4.870  16.905  0.00  0.00    +0.000 C 
ENDROOT
BRANCH   4   6
ATOM      6  N   UNL     1       5.976   5.886  14.525  0.00  0.00    +0.000 N 
ATOM      7  C   UNL     1       7.073   5.155  14.138  0.00  0.00    +0.000 C 
ATOM      8  O   UNL     1       7.912   4.734  14.951  0.00  0.00    +0.000 OA
ATOM      9  H   UNL     1       5.391   6.317  13.813  0.00  0.00    +0.000 HD
BRANCH   7  10
ATOM     10  C   UNL     1       7.294   4.957  12.658  0.00  0.00    +0.000 C 
BRANCH  10  11
ATOM     11  C   UNL     1       6.667   3.656  12.245  0.00  0.00    +0.000 A 
ATOM     12  C   UNL     1       7.471   2.615  11.751  0.00  0.00    +0.000 A 
ATOM     13  C   UNL     1       6.886   1.516  11.125  0.00  0.00    +0.000 A 
ATOM     14  C   UNL     1       5.501   1.432  11.024  0.00  0.00    +0.000 A 
ATOM     15  C   UNL     1       4.695   2.430  11.569  0.00  0.00    +0.000 A 
ATOM     16  C   UNL     1       5.276   3.538  12.184  0.00  0.00    +0.000 A 
ENDBRANCH  10  11
ENDBRANCH   7  10
ENDBRANCH   4   6
BRANCH   5  17
ATOM     17  N   UNL     1       4.415   4.614  17.682  0.00  0.00    +0.000 N 
ATOM     18  C   UNL     1       3.991   3.314  17.993  0.00  0.00    +0.000 C 
ATOM     19  O   UNL     1       4.381   2.324  17.390  0.00  0.00    +0.000 OA
BRANCH  18  20
ATOM     20  C   UNL     1       2.960   3.105  19.068  0.00  0.00    +0.000 A 
ATOM     21  C   UNL     1       1.608   3.137  18.695  0.00  0.00    +0.000 A 
ATOM     22  C   UNL     1       0.605   3.070  19.665  0.00  0.00    +0.000 A 
ATOM     23  C   UNL     1       0.947   2.942  21.010  0.00  0.00    +0.000 A 
ATOM     24  C   UNL     1       2.280   2.858  21.386  0.00  0.00    +0.000 A 
ATOM     25  C   UNL     1       3.276   2.916  20.417  0.00  0.00    +0.000 A 
ENDBRANCH  18  20
BRANCH  17  26
ATOM     26  O   UNL     1       3.957   5.709  18.441  0.00  0.00    +0.000 OA
BRANCH  26  27
ATOM     27  C   UNL     1       2.885   6.422  17.807  0.00  0.00    +0.000 C 
BRANCH  27  28
ATOM     28  C   UNL     1       2.189   7.335  18.790  0.00  0.00    +0.000 A 
ATOM     29  C   UNL     1       1.960   6.919  20.112  0.00  0.00    +0.000 A 
ATOM     30  C   UNL     1       1.328   7.755  21.019  0.00  0.00    +0.000 A 
ATOM     31  C   UNL     1       0.940   9.036  20.634  0.00  0.00    +0.000 A 
ATOM     32  C   UNL     1       1.214   9.486  19.341  0.00  0.00    +0.000 A 
ATOM     33  C   UNL     1       1.845   8.646  18.425  0.00  0.00    +0.000 A 
ENDBRANCH  27  28
ENDBRANCH  26  27
ENDBRANCH  17  26
ENDBRANCH   5  17
BRANCH   1  35
ATOM     34  C   UNL     1       8.419   6.624  19.374  0.00  0.00    +0.000 C 
ATOM     35  S   UNL     1       7.344   5.195  19.171  0.00  0.00    +0.000 S 
ENDBRANCH   1  35
TORSDOF 9
ENDMDL
MODEL 7
REMARK VINA RESULT:      -7.6      4.904      8.781
REMARK  Name = 
REMARK  10 active torsions:
REMARK  status: ('A' for Active; 'I' for Inactive)
REMARK    1  A    between atoms: C_1  and  S_2
REMARK    2  A    between atoms: S_2  and  N_3
REMARK    3  A    between atoms: C_6  and  N_7
REMARK    4  A    between atoms: C_8  and  C_10
REMARK    5  A    between atoms: C_10  and  C_11
REMARK    6  A    between atoms: C_17  and  N_18
REMARK    7  A    between atoms: N_18  and  O_19
REMARK    8  A    between atoms: O_19  and  C_20
REMARK    9  A    between atoms: C_20  and  C_21
REMARK   10  A    between atoms: C_27  and  C_29
REMARK                            x       y       z     vdW  Elec       q    Type
REMARK                         _______ _______ _______ _____ _____    ______ ____
ROOT
ATOM      1  N   UNL     1      -0.155  10.415  21.840  0.00  0.00    +0.000 N 
ATOM      2  C   UNL     1       0.926   9.666  22.179  0.00  0.00    +0.000 C 
ATOM      3  O   UNL     1       1.320   9.220  23.225  0.00  0.00    +0.000 OA
ATOM      4  C   UNL     1       1.440   9.666  20.714  0.00  0.00    +0.000 C 
ATOM      5  C   UNL     1       0.155  10.531  20.407  0.00  0.00    +0.000 C 
ENDROOT
BRANCH   4   6
ATOM      6  N   UNL     1       1.514   8.343  20.007  0.00  0.00    +0.000 N 
ATOM      7  C   UNL     1       2.049   8.277  18.744  0.00  0.00    +0.000 C 
ATOM      8  O   UNL     1       2.442   9.283  18.133  0.00  0.00    +0.000 OA
ATOM      9  H   UNL     1       1.090   7.512  20.411  0.00  0.00    +0.000 HD
BRANCH   7  10
ATOM     10  C   UNL     1       2.058   6.931  18.061  0.00  0.00    +0.000 C 
BRANCH  10  11
ATOM     11  C   UNL     1       3.460   6.392  18.069  0.00  0.00    +0.000 A 
ATOM     12  C   UNL     1       3.908   5.617  19.151  0.00  0.00    +0.000 A 
ATOM     13  C   UNL     1       5.266   5.336  19.298  0.00  0.00    +0.000 A 
ATOM     14  C   UNL     1       6.174   5.794  18.348  0.00  0.00    +0.000 A 
ATOM     15  C   UNL     1       5.729   6.509  17.237  0.00  0.00    +0.000 A 
ATOM     16  C   UNL     1       4.373   6.804  17.095  0.00  0.00    +0.000 A 
ENDBRANCH  10  11
ENDBRANCH   7  10
ENDBRANCH   4   6
BRANCH   5  17
ATOM     17  N   UNL     1       0.330  11.891  19.817  0.00  0.00    +0.000 N 
ATOM     18  C   UNL     1       1.370  12.742  20.217  0.00  0.00    +0.000 C 
ATOM     19  O   UNL     1       1.976  12.605  21.270  0.00  0.00    +0.000 OA
BRANCH  18  20
ATOM     20  C   UNL     1       1.734  13.925  19.362  0.00  0.00    +0.000 A 
ATOM     21  C   UNL     1       2.871  13.819  18.547  0.00  0.00    +0.000 A 
ATOM     22  C   UNL     1       3.327  14.924  17.822  0.00  0.00    +0.000 A 
ATOM     23  C   UNL     1       2.633  16.131  17.887  0.00  0.00    +0.000 A 
ATOM     24  C   UNL     1       1.478  16.232  18.649  0.00  0.00    +0.000 A 
ATOM     25  C   UNL     1       1.023  15.128  19.362  0.00  0.00    +0.000 A 
ENDBRANCH  18  20
BRANCH  17  26
ATOM     26  O   UNL     1      -0.302  12.081  18.572  0.00  0.00    +0.000 OA
BRANCH  26  27
ATOM     27  C   UNL     1      -0.765  10.856  17.985  0.00  0.00    +0.000 C 
BRANCH  27  28
ATOM     28  C   UNL     1      -2.189  10.998  17.499  0.00  0.00    +0.000 A 
ATOM     29  C   UNL     1      -3.171  11.576  18.321  0.00  0.00    +0.000 A 
ATOM     30  C   UNL     1      -4.477  11.713  17.876  0.00  0.00    +0.000 A 
ATOM     31  C   UNL     1      -4.822  11.306  16.590  0.00  0.00    +0.000 A 
ATOM     32  C   UNL     1      -3.846  10.784  15.740  0.00  0.00    +0.000 A 
ATOM     33  C   UNL     1      -2.532  10.640  16.186  0.00  0.00    +0.000 A 
ENDBRANCH  27  28
ENDBRANCH  26  27
ENDBRANCH  17  26
ENDBRANCH   5  17
BRANCH   1  35
ATOM     34  C   UNL     1      -2.176  12.139  21.637  0.00  0.00    +0.000 C 
ATOM     35  S   UNL     1      -1.029  11.427  22.828  0.00  0.00    +0.000 S 
ENDBRANCH   1  35
TORSDOF 9
ENDMDL
MODEL 8
REMARK VINA RESULT:      -7.6      2.853      5.970
REMARK  Name = 
REMARK  10 active torsions:
REMARK  status: ('A' for Active; 'I' for Inactive)
REMARK    1  A    between atoms: C_1  and  S_2
REMARK    2  A    between atoms: S_2  and  N_3
REMARK    3  A    between atoms: C_6  and  N_7
REMARK    4  A    between atoms: C_8  and  C_10
REMARK    5  A    between atoms: C_10  and  C_11
REMARK    6  A    between atoms: C_17  and  N_18
REMARK    7  A    between atoms: N_18  and  O_19
REMARK    8  A    between atoms: O_19  and  C_20
REMARK    9  A    between atoms: C_20  and  C_21
REMARK   10  A    between atoms: C_27  and  C_29
REMARK                            x       y       z     vdW  Elec       q    Type
REMARK                         _______ _______ _______ _____ _____    ______ ____
ROOT
ATOM      1  N   UNL     1       6.837   5.743  17.980  0.00  0.00    +0.000 N 
ATOM      2  C   UNL     1       6.986   6.818  17.164  0.00  0.00    +0.000 C 
ATOM      3  O   UNL     1       7.677   7.801  17.219  0.00  0.00    +0.000 OA
ATOM      4  C   UNL     1       5.900   6.285  16.191  0.00  0.00    +0.000 C 
ATOM      5  C   UNL     1       5.794   5.068  17.193  0.00  0.00    +0.000 C 
ENDROOT
BRANCH   4   6
ATOM      6  N   UNL     1       6.331   5.938  14.795  0.00  0.00    +0.000 N 
ATOM      7  C   UNL     1       6.663   4.641  14.488  0.00  0.00    +0.000 C 
ATOM      8  O   UNL     1       6.664   3.735  15.337  0.00  0.00    +0.000 OA
ATOM      9  H   UNL     1       6.471   6.664  14.097  0.00  0.00    +0.000 HD
BRANCH   7  10
ATOM     10  C   UNL     1       7.133   4.356  13.082  0.00  0.00    +0.000 C 
BRANCH  10  11
ATOM     11  C   UNL     1       6.153   3.429  12.423  0.00  0.00    +0.000 A 
ATOM     12  C   UNL     1       6.588   2.195  11.911  0.00  0.00    +0.000 A 
ATOM     13  C   UNL     1       5.757   1.452  11.074  0.00  0.00    +0.000 A 
ATOM     14  C   UNL     1       4.480   1.916  10.775  0.00  0.00    +0.000 A 
ATOM     15  C   UNL     1       4.018   3.109  11.331  0.00  0.00    +0.000 A 
ATOM     16  C   UNL     1       4.851   3.862  12.158  0.00  0.00    +0.000 A 
ENDBRANCH  10  11
ENDBRANCH   7  10
ENDBRANCH   4   6
BRANCH   5  17
ATOM     17  N   UNL     1       4.478   4.782  17.837  0.00  0.00    +0.000 N 
ATOM     18  C   UNL     1       4.022   3.470  18.035  0.00  0.00    +0.000 C 
ATOM     19  O   UNL     1       4.462   2.511  17.417  0.00  0.00    +0.000 OA
BRANCH  18  20
ATOM     20  C   UNL     1       2.895   3.213  18.997  0.00  0.00    +0.000 A 
ATOM     21  C   UNL     1       1.584   3.266  18.501  0.00  0.00    +0.000 A 
ATOM     22  C   UNL     1       0.494   3.155  19.370  0.00  0.00    +0.000 A 
ATOM     23  C   UNL     1       0.709   2.962  20.733  0.00  0.00    +0.000 A 
ATOM     24  C   UNL     1       2.002   2.857  21.227  0.00  0.00    +0.000 A 
ATOM     25  C   UNL     1       3.083   2.959  20.359  0.00  0.00    +0.000 A 
ENDBRANCH  18  20
BRANCH  17  26
ATOM     26  O   UNL     1       3.956   5.838  18.610  0.00  0.00    +0.000 OA
BRANCH  26  27
ATOM     27  C   UNL     1       3.116   6.724  17.856  0.00  0.00    +0.000 C 
BRANCH  27  28
ATOM     28  C   UNL     1       2.313   7.615  18.775  0.00  0.00    +0.000 A 
ATOM     29  C   UNL     1       1.748   8.810  18.297  0.00  0.00    +0.000 A 
ATOM     30  C   UNL     1       1.006   9.627  19.135  0.00  0.00    +0.000 A 
ATOM     31  C   UNL     1       0.785   9.253  20.459  0.00  0.00    +0.000 A 
ATOM     32  C   UNL     1       1.289   8.041  20.932  0.00  0.00    +0.000 A 
ATOM     33  C   UNL     1       2.041   7.219  20.094  0.00  0.00    +0.000 A 
ENDBRANCH  27  28
ENDBRANCH  26  27
ENDBRANCH  17  26
ENDBRANCH   5  17
BRANCH   1  35
ATOM     34  C   UNL     1       8.893   5.157  19.568  0.00  0.00    +0.000 C 
ATOM     35  S   UNL     1       7.166   5.661  19.608  0.00  0.00    +0.000 S 
ENDBRANCH   1  35
TORSDOF 9
ENDMDL
MODEL 9
REMARK VINA RESULT:      -7.5      2.868      5.727
REMARK  Name = 
REMARK  10 active torsions:
REMARK  status: ('A' for Active; 'I' for Inactive)
REMARK    1  A    between atoms: C_1  and  S_2
REMARK    2  A    between atoms: S_2  and  N_3
REMARK    3  A    between atoms: C_6  and  N_7
REMARK    4  A    between atoms: C_8  and  C_10
REMARK    5  A    between atoms: C_10  and  C_11
REMARK    6  A    between atoms: C_17  and  N_18
REMARK    7  A    between atoms: N_18  and  O_19
REMARK    8  A    between atoms: O_19  and  C_20
REMARK    9  A    between atoms: C_20  and  C_21
REMARK   10  A    between atoms: C_27  and  C_29
REMARK                            x       y       z     vdW  Elec       q    Type
REMARK                         _______ _______ _______ _____ _____    ______ ____
ROOT
ATOM      1  N   UNL     1       6.332   5.605  17.678  0.00  0.00    +0.000 N 
ATOM      2  C   UNL     1       6.415   6.717  16.903  0.00  0.00    +0.000 C 
ATOM      3  O   UNL     1       7.055   7.732  16.991  0.00  0.00    +0.000 OA
ATOM      4  C   UNL     1       5.348   6.165  15.920  0.00  0.00    +0.000 C 
ATOM      5  C   UNL     1       5.316   4.907  16.874  0.00  0.00    +0.000 C 
ENDROOT
BRANCH   4   6
ATOM      6  N   UNL     1       5.782   5.896  14.508  0.00  0.00    +0.000 N 
ATOM      7  C   UNL     1       6.917   5.159  14.274  0.00  0.00    +0.000 C 
ATOM      8  O   UNL     1       7.637   4.735  15.192  0.00  0.00    +0.000 OA
ATOM      9  H   UNL     1       5.300   6.328  13.723  0.00  0.00    +0.000 HD
BRANCH   7  10
ATOM     10  C   UNL     1       7.333   4.956  12.837  0.00  0.00    +0.000 C 
BRANCH  10  11
ATOM     11  C   UNL     1       6.727   3.678  12.333  0.00  0.00    +0.000 A 
ATOM     12  C   UNL     1       7.549   2.678  11.788  0.00  0.00    +0.000 A 
ATOM     13  C   UNL     1       6.986   1.614  11.085  0.00  0.00    +0.000 A 
ATOM     14  C   UNL     1       5.603   1.524  10.956  0.00  0.00    +0.000 A 
ATOM     15  C   UNL     1       4.778   2.478  11.549  0.00  0.00    +0.000 A 
ATOM     16  C   UNL     1       5.339   3.551  12.241  0.00  0.00    +0.000 A 
ENDBRANCH  10  11
ENDBRANCH   7  10
ENDBRANCH   4   6
BRANCH   5  17
ATOM     17  N   UNL     1       4.025   4.528  17.519  0.00  0.00    +0.000 N 
ATOM     18  C   UNL     1       3.895   3.358  18.282  0.00  0.00    +0.000 C 
ATOM     19  O   UNL     1       4.674   2.419  18.201  0.00  0.00    +0.000 OA
BRANCH  18  20
ATOM     20  C   UNL     1       2.717   3.198  19.203  0.00  0.00    +0.000 A 
ATOM     21  C   UNL     1       2.964   3.149  20.583  0.00  0.00    +0.000 A 
ATOM     22  C   UNL     1       1.926   2.881  21.479  0.00  0.00    +0.000 A 
ATOM     23  C   UNL     1       0.630   2.690  21.003  0.00  0.00    +0.000 A 
ATOM     24  C   UNL     1       0.364   2.788  19.644  0.00  0.00    +0.000 A 
ATOM     25  C   UNL     1       1.399   3.062  18.756  0.00  0.00    +0.000 A 
ENDBRANCH  18  20
BRANCH  17  26
ATOM     26  O   UNL     1       3.114   5.589  17.689  0.00  0.00    +0.000 OA
BRANCH  26  27
ATOM     27  C   UNL     1       3.280   6.276  18.938  0.00  0.00    +0.000 C 
BRANCH  27  28
ATOM     28  C   UNL     1       2.388   7.494  19.005  0.00  0.00    +0.000 A 
ATOM     29  C   UNL     1       1.813   7.893  20.223  0.00  0.00    +0.000 A 
ATOM     30  C   UNL     1       0.999   9.012  20.290  0.00  0.00    +0.000 A 
ATOM     31  C   UNL     1       0.768   9.775  19.148  0.00  0.00    +0.000 A 
ATOM     32  C   UNL     1       1.379   9.427  17.942  0.00  0.00    +0.000 A 
ATOM     33  C   UNL     1       2.195   8.298  17.871  0.00  0.00    +0.000 A 
ENDBRANCH  27  28
ENDBRANCH  26  27
ENDBRANCH  17  26
ENDBRANCH   5  17
BRANCH   1  35
ATOM     34  C   UNL     1       8.481   5.483  19.246  0.00  0.00    +0.000 C 
ATOM     35  S   UNL     1       6.682   5.477  19.299  0.00  0.00    +0.000 S 
ENDBRANCH   1  35
TORSDOF 9
ENDMDL
