MODEL 1
REMARK VINA RESULT:      -8.6      0.000      0.000
REMARK  Name = 
REMARK  9 active torsions:
REMARK  status: ('A' for Active; 'I' for Inactive)
REMARK    1  A    between atoms: C_1  and  C_2
REMARK    2  A    between atoms: C_2  and  C_3
REMARK    3  A    between atoms: C_2  and  C_4
REMARK    4  A    between atoms: C_7  and  N_8
REMARK    5  A    between atoms: C_9  and  C_12
REMARK    6  A    between atoms: N_10  and  O_11
REMARK    7  A    between atoms: C_17  and  O_18
REMARK    8  A    between atoms: O_18  and  C_19
REMARK    9  A    between atoms: C_19  and  C_20
REMARK                            x       y       z     vdW  Elec       q    Type
REMARK                         _______ _______ _______ _____ _____    ______ ____
ROOT
ATOM      1  N   UNL     1       6.251   5.237  17.635  0.00  0.00    +0.000 N 
ATOM      2  C   UNL     1       5.553   4.643  18.686  0.00  0.00    +0.000 C 
ATOM      3  N   UNL     1       5.923   4.736  19.934  0.00  0.00    +0.000 NA
ATOM      4  H   UNL     1       6.988   5.868  17.921  0.00  0.00    +0.000 HD
ENDROOT
BRANCH   1   8
ATOM      5  C   UNL     1       6.071   3.880  13.621  0.00  0.00    +0.000 A 
ATOM      6  C   UNL     1       4.911   3.946  14.408  0.00  0.00    +0.000 A 
ATOM      7  C   UNL     1       4.954   4.469  15.714  0.00  0.00    +0.000 A 
ATOM      8  C   UNL     1       6.155   4.941  16.260  0.00  0.00    +0.000 A 
ATOM      9  C   UNL     1       7.288   4.938  15.438  0.00  0.00    +0.000 A 
ATOM     10  C   UNL     1       7.259   4.389  14.158  0.00  0.00    +0.000 A 
BRANCH   5  12
ATOM     11  C   UNL     1       4.643   3.373  11.617  0.00  0.00    +0.000 C 
ATOM     12  C   UNL     1       6.050   3.293  12.219  0.00  0.00    +0.000 C 
ATOM     13  C   UNL     1       7.064   3.972  11.288  0.00  0.00    +0.000 C 
ENDBRANCH   5  12
ENDBRANCH   1   8
BRANCH   2  14
ATOM     14  C   UNL     1       4.250   3.955  18.414  0.00  0.00    +0.000 A 
ATOM     15  C   UNL     1       4.241   2.551  18.474  0.00  0.00    +0.000 A 
ATOM     16  C   UNL     1       3.037   1.862  18.489  0.00  0.00    +0.000 A 
ATOM     17  C   UNL     1       1.877   2.598  18.381  0.00  0.00    +0.000 A 
ATOM     18  N   UNL     1       1.848   3.944  18.250  0.00  0.00    +0.000 NA
ATOM     19  C   UNL     1       3.032   4.615  18.266  0.00  0.00    +0.000 A 
BRANCH  19  20
ATOM     20  O   UNL     1       2.986   5.995  18.167  0.00  0.00    +0.000 OA
BRANCH  20  21
ATOM     21  C   UNL     1       2.658   6.621  19.418  0.00  0.00    +0.000 C 
BRANCH  21  22
ATOM     22  C   UNL     1       1.986   7.969  19.270  0.00  0.00    +0.000 A 
ATOM     23  C   UNL     1       1.999   8.719  18.090  0.00  0.00    +0.000 A 
ATOM     24  C   UNL     1       1.400   9.985  18.050  0.00  0.00    +0.000 A 
ATOM     25  C   UNL     1       0.781  10.513  19.185  0.00  0.00    +0.000 A 
ATOM     26  C   UNL     1       0.750   9.770  20.363  0.00  0.00    +0.000 A 
ATOM     27  C   UNL     1       1.351   8.516  20.395  0.00  0.00    +0.000 A 
ATOM     28  F   UNL     1       1.319   7.824  21.544  0.00  0.00    +0.000 F 
ENDBRANCH  21  22
ENDBRANCH  20  21
ENDBRANCH  19  20
ENDBRANCH   2  14
BRANCH   3  29
ATOM     29  O   UNL     1       7.114   5.466  20.056  0.00  0.00    +0.000 OA
ATOM     30  H   UNL     1       7.355   5.295  20.987  0.00  0.00    +0.000 HD
ENDBRANCH   3  29
TORSDOF 7
ENDMDL
MODEL 2
REMARK VINA RESULT:      -8.5      1.102      1.582
REMARK  Name = 
REMARK  9 active torsions:
REMARK  status: ('A' for Active; 'I' for Inactive)
REMARK    1  A    between atoms: C_1  and  C_2
REMARK    2  A    between atoms: C_2  and  C_3
REMARK    3  A    between atoms: C_2  and  C_4
REMARK    4  A    between atoms: C_7  and  N_8
REMARK    5  A    between atoms: C_9  and  C_12
REMARK    6  A    between atoms: N_10  and  O_11
REMARK    7  A    between atoms: C_17  and  O_18
REMARK    8  A    between atoms: O_18  and  C_19
REMARK    9  A    between atoms: C_19  and  C_20
REMARK                            x       y       z     vdW  Elec       q    Type
REMARK                         _______ _______ _______ _____ _____    ______ ____
ROOT
ATOM      1  N   UNL     1       6.504   5.267  17.482  0.00  0.00    +0.000 N 
ATOM      2  C   UNL     1       5.719   4.797  18.533  0.00  0.00    +0.000 C 
ATOM      3  N   UNL     1       6.124   4.775  19.774  0.00  0.00    +0.000 NA
ATOM      4  H   UNL     1       7.360   5.726  17.765  0.00  0.00    +0.000 HD
ENDROOT
BRANCH   1   8
ATOM      5  C   UNL     1       6.024   4.096  13.434  0.00  0.00    +0.000 A 
ATOM      6  C   UNL     1       4.909   4.261  14.270  0.00  0.00    +0.000 A 
ATOM      7  C   UNL     1       5.058   4.724  15.590  0.00  0.00    +0.000 A 
ATOM      8  C   UNL     1       6.325   5.038  16.102  0.00  0.00    +0.000 A 
ATOM      9  C   UNL     1       7.419   4.941  15.234  0.00  0.00    +0.000 A 
ATOM     10  C   UNL     1       7.280   4.449  13.938  0.00  0.00    +0.000 A 
BRANCH   5  12
ATOM     11  C   UNL     1       6.750   2.321  11.809  0.00  0.00    +0.000 C 
ATOM     12  C   UNL     1       5.884   3.570  12.014  0.00  0.00    +0.000 C 
ATOM     13  C   UNL     1       4.426   3.269  11.645  0.00  0.00    +0.000 C 
ENDBRANCH   5  12
ENDBRANCH   1   8
BRANCH   2  14
ATOM     14  C   UNL     1       4.299   4.397  18.276  0.00  0.00    +0.000 A 
ATOM     15  C   UNL     1       4.025   3.022  18.189  0.00  0.00    +0.000 A 
ATOM     16  C   UNL     1       2.714   2.569  18.210  0.00  0.00    +0.000 A 
ATOM     17  C   UNL     1       1.711   3.514  18.255  0.00  0.00    +0.000 A 
ATOM     18  N   UNL     1       1.934   4.848  18.266  0.00  0.00    +0.000 NA
ATOM     19  C   UNL     1       3.223   5.284  18.276  0.00  0.00    +0.000 A 
BRANCH  19  20
ATOM     20  O   UNL     1       3.436   6.650  18.326  0.00  0.00    +0.000 OA
BRANCH  20  21
ATOM     21  C   UNL     1       2.245   7.399  18.038  0.00  0.00    +0.000 C 
BRANCH  21  22
ATOM     22  C   UNL     1       1.759   8.244  19.197  0.00  0.00    +0.000 A 
ATOM     23  C   UNL     1       1.704   7.792  20.519  0.00  0.00    +0.000 A 
ATOM     24  C   UNL     1       1.189   8.617  21.527  0.00  0.00    +0.000 A 
ATOM     25  C   UNL     1       0.725   9.900  21.227  0.00  0.00    +0.000 A 
ATOM     26  C   UNL     1       0.786  10.366  19.916  0.00  0.00    +0.000 A 
ATOM     27  C   UNL     1       1.296   9.538  18.920  0.00  0.00    +0.000 A 
ATOM     28  F   UNL     1       1.334  10.004  17.662  0.00  0.00    +0.000 F 
ENDBRANCH  21  22
ENDBRANCH  20  21
ENDBRANCH  19  20
ENDBRANCH   2  14
BRANCH   3  29
ATOM     29  O   UNL     1       7.440   5.244  19.886  0.00  0.00    +0.000 OA
ATOM     30  H   UNL     1       7.358   5.890  20.614  0.00  0.00    +0.000 HD
ENDBRANCH   3  29
TORSDOF 7
ENDMDL
MODEL 3
REMARK VINA RESULT:      -8.4      1.850      2.611
REMARK  Name = 
REMARK  9 active torsions:
REMARK  status: ('A' for Active; 'I' for Inactive)
REMARK    1  A    between atoms: C_1  and  C_2
REMARK    2  A    between atoms: C_2  and  C_3
REMARK    3  A    between atoms: C_2  and  C_4
REMARK    4  A    between atoms: C_7  and  N_8
REMARK    5  A    between atoms: C_9  and  C_12
REMARK    6  A    between atoms: N_10  and  O_11
REMARK    7  A    between atoms: C_17  and  O_18
REMARK    8  A    between atoms: O_18  and  C_19
REMARK    9  A    between atoms: C_19  and  C_20
REMARK                            x       y       z     vdW  Elec       q    Type
REMARK                         _______ _______ _______ _____ _____    ______ ____
ROOT
ATOM      1  N   UNL     1       5.325   3.111  19.549  0.00  0.00    +0.000 N 
ATOM      2  C   UNL     1       4.205   2.520  20.134  0.00  0.00    +0.000 C 
ATOM      3  N   UNL     1       4.271   1.732  21.172  0.00  0.00    +0.000 NA
ATOM      4  H   UNL     1       6.183   3.000  20.075  0.00  0.00    +0.000 HD
ENDROOT
BRANCH   1   8
ATOM      5  C   UNL     1       5.880   4.436  15.559  0.00  0.00    +0.000 A 
ATOM      6  C   UNL     1       4.716   3.745  15.930  0.00  0.00    +0.000 A 
ATOM      7  C   UNL     1       4.493   3.372  17.269  0.00  0.00    +0.000 A 
ATOM      8  C   UNL     1       5.426   3.686  18.266  0.00  0.00    +0.000 A 
ATOM      9  C   UNL     1       6.545   4.440  17.896  0.00  0.00    +0.000 A 
ATOM     10  C   UNL     1       6.788   4.780  16.566  0.00  0.00    +0.000 A 
BRANCH   5  12
ATOM     11  C   UNL     1       7.607   5.265  13.933  0.00  0.00    +0.000 C 
ATOM     12  C   UNL     1       6.151   4.822  14.114  0.00  0.00    +0.000 C 
ATOM     13  C   UNL     1       5.819   3.686  13.136  0.00  0.00    +0.000 C 
ENDBRANCH   5  12
ENDBRANCH   1   8
BRANCH   2  14
ATOM     14  C   UNL     1       2.837   2.879  19.640  0.00  0.00    +0.000 A 
ATOM     15  C   UNL     1       2.083   1.857  19.039  0.00  0.00    +0.000 A 
ATOM     16  C   UNL     1       0.731   2.040  18.792  0.00  0.00    +0.000 A 
ATOM     17  C   UNL     1       0.185   3.268  19.100  0.00  0.00    +0.000 A 
ATOM     18  N   UNL     1       0.894   4.300  19.613  0.00  0.00    +0.000 NA
ATOM     19  C   UNL     1       2.213   4.102  19.880  0.00  0.00    +0.000 A 
BRANCH  19  20
ATOM     20  O   UNL     1       2.918   5.154  20.439  0.00  0.00    +0.000 OA
BRANCH  20  21
ATOM     21  C   UNL     1       3.327   6.119  19.457  0.00  0.00    +0.000 C 
BRANCH  21  22
ATOM     22  C   UNL     1       2.467   7.365  19.428  0.00  0.00    +0.000 A 
ATOM     23  C   UNL     1       1.723   7.822  20.521  0.00  0.00    +0.000 A 
ATOM     24  C   UNL     1       0.907   8.954  20.398  0.00  0.00    +0.000 A 
ATOM     25  C   UNL     1       0.827   9.642  19.184  0.00  0.00    +0.000 A 
ATOM     26  C   UNL     1       1.572   9.204  18.092  0.00  0.00    +0.000 A 
ATOM     27  C   UNL     1       2.377   8.076  18.223  0.00  0.00    +0.000 A 
ATOM     28  F   UNL     1       3.077   7.666  17.154  0.00  0.00    +0.000 F 
ENDBRANCH  21  22
ENDBRANCH  20  21
ENDBRANCH  19  20
ENDBRANCH   2  14
BRANCH   3  29
ATOM     29  O   UNL     1       5.599   1.539  21.578  0.00  0.00    +0.000 OA
ATOM     30  H   UNL     1       5.479   1.077  22.430  0.00  0.00    +0.000 HD
ENDBRANCH   3  29
TORSDOF 7
ENDMDL
MODEL 4
REMARK VINA RESULT:      -8.3      2.559      7.700
REMARK  Name = 
REMARK  9 active torsions:
REMARK  status: ('A' for Active; 'I' for Inactive)
REMARK    1  A    between atoms: C_1  and  C_2
REMARK    2  A    between atoms: C_2  and  C_3
REMARK    3  A    between atoms: C_2  and  C_4
REMARK    4  A    between atoms: C_7  and  N_8
REMARK    5  A    between atoms: C_9  and  C_12
REMARK    6  A    between atoms: N_10  and  O_11
REMARK    7  A    between atoms: C_17  and  O_18
REMARK    8  A    between atoms: O_18  and  C_19
REMARK    9  A    between atoms: C_19  and  C_20
REMARK                            x       y       z     vdW  Elec       q    Type
REMARK                         _______ _______ _______ _____ _____    ______ ____
ROOT
ATOM      1  N   UNL     1       2.725   4.288  18.682  0.00  0.00    +0.000 N 
ATOM      2  C   UNL     1       3.942   3.608  18.633  0.00  0.00    +0.000 C 
ATOM      3  N   UNL     1       4.036   2.307  18.649  0.00  0.00    +0.000 NA
ATOM      4  H   UNL     1       1.908   3.699  18.586  0.00  0.00    +0.000 HD
ENDROOT
BRANCH   1   8
ATOM      5  C   UNL     1       1.596   8.290  19.515  0.00  0.00    +0.000 A 
ATOM      6  C   UNL     1       1.583   7.316  20.526  0.00  0.00    +0.000 A 
ATOM      7  C   UNL     1       2.031   6.006  20.272  0.00  0.00    +0.000 A 
ATOM      8  C   UNL     1       2.506   5.643  19.004  0.00  0.00    +0.000 A 
ATOM      9  C   UNL     1       2.584   6.643  18.028  0.00  0.00    +0.000 A 
ATOM     10  C   UNL     1       2.108   7.931  18.264  0.00  0.00    +0.000 A 
BRANCH   5  12
ATOM     11  C   UNL     1       0.173  10.160  18.623  0.00  0.00    +0.000 C 
ATOM     12  C   UNL     1       1.090   9.702  19.763  0.00  0.00    +0.000 C 
ATOM     13  C   UNL     1       0.365   9.833  21.110  0.00  0.00    +0.000 C 
ENDBRANCH   5  12
ENDBRANCH   1   8
BRANCH   2  14
ATOM     14  C   UNL     1       5.211   4.378  18.437  0.00  0.00    +0.000 A 
ATOM     15  C   UNL     1       5.736   5.048  19.555  0.00  0.00    +0.000 A 
ATOM     16  C   UNL     1       7.024   5.561  19.521  0.00  0.00    +0.000 A 
ATOM     17  C   UNL     1       7.728   5.441  18.342  0.00  0.00    +0.000 A 
ATOM     18  N   UNL     1       7.233   4.867  17.223  0.00  0.00    +0.000 NA
ATOM     19  C   UNL     1       5.979   4.339  17.274  0.00  0.00    +0.000 A 
BRANCH  19  20
ATOM     20  O   UNL     1       5.498   3.722  16.132  0.00  0.00    +0.000 OA
BRANCH  20  21
ATOM     21  C   UNL     1       5.290   4.651  15.057  0.00  0.00    +0.000 C 
BRANCH  21  22
ATOM     22  C   UNL     1       5.724   4.128  13.704  0.00  0.00    +0.000 A 
ATOM     23  C   UNL     1       4.962   3.249  12.928  0.00  0.00    +0.000 A 
ATOM     24  C   UNL     1       5.459   2.767  11.711  0.00  0.00    +0.000 A 
ATOM     25  C   UNL     1       6.721   3.158  11.255  0.00  0.00    +0.000 A 
ATOM     26  C   UNL     1       7.484   4.043  12.012  0.00  0.00    +0.000 A 
ATOM     27  C   UNL     1       6.984   4.514  13.222  0.00  0.00    +0.000 A 
ATOM     28  F   UNL     1       7.742   5.356  13.940  0.00  0.00    +0.000 F 
ENDBRANCH  21  22
ENDBRANCH  20  21
ENDBRANCH  19  20
ENDBRANCH   2  14
BRANCH   3  29
ATOM     29  O   UNL     1       2.772   1.709  18.760  0.00  0.00    +0.000 OA
ATOM     30  H   UNL     1       3.009   0.781  18.949  0.00  0.00    +0.000 HD
ENDBRANCH   3  29
TORSDOF 7
ENDMDL
MODEL 5
REMARK VINA RESULT:      -8.3      1.130      1.616
REMARK  Name = 
REMARK  9 active torsions:
REMARK  status: ('A' for Active; 'I' for Inactive)
REMARK    1  A    between atoms: C_1  and  C_2
REMARK    2  A    between atoms: C_2  and  C_3
REMARK    3  A    between atoms: C_2  and  C_4
REMARK    4  A    between atoms: C_7  and  N_8
REMARK    5  A    between atoms: C_9  and  C_12
REMARK    6  A    between atoms: N_10  and  O_11
REMARK    7  A    between atoms: C_17  and  O_18
REMARK    8  A    between atoms: O_18  and  C_19
REMARK    9  A    between atoms: C_19  and  C_20
REMARK                            x       y       z     vdW  Elec       q    Type
REMARK                         _______ _______ _______ _____ _____    ______ ____
ROOT
ATOM      1  N   UNL     1       5.906   5.106  17.652  0.00  0.00    +0.000 N 
ATOM      2  C   UNL     1       5.277   4.594  18.787  0.00  0.00    +0.000 C 
ATOM      3  N   UNL     1       5.757   4.729  19.993  0.00  0.00    +0.000 NA
ATOM      4  H   UNL     1       6.690   5.716  17.843  0.00  0.00    +0.000 HD
ENDROOT
BRANCH   1   8
ATOM      5  C   UNL     1       5.713   4.107  13.535  0.00  0.00    +0.000 A 
ATOM      6  C   UNL     1       5.882   3.110  14.507  0.00  0.00    +0.000 A 
ATOM      7  C   UNL     1       5.869   3.428  15.879  0.00  0.00    +0.000 A 
ATOM      8  C   UNL     1       5.680   4.749  16.307  0.00  0.00    +0.000 A 
ATOM      9  C   UNL     1       5.438   5.721  15.330  0.00  0.00    +0.000 A 
ATOM     10  C   UNL     1       5.486   5.417  13.971  0.00  0.00    +0.000 A 
BRANCH   5  12
ATOM     11  C   UNL     1       6.852   2.762  11.744  0.00  0.00    +0.000 C 
ATOM     12  C   UNL     1       5.753   3.786  12.050  0.00  0.00    +0.000 C 
ATOM     13  C   UNL     1       4.401   3.283  11.526  0.00  0.00    +0.000 C 
ENDBRANCH   5  12
ENDBRANCH   1   8
BRANCH   2  14
ATOM     14  C   UNL     1       3.929   3.953  18.661  0.00  0.00    +0.000 A 
ATOM     15  C   UNL     1       3.849   2.573  18.910  0.00  0.00    +0.000 A 
ATOM     16  C   UNL     1       2.613   1.962  19.064  0.00  0.00    +0.000 A 
ATOM     17  C   UNL     1       1.489   2.744  18.903  0.00  0.00    +0.000 A 
ATOM     18  N   UNL     1       1.525   4.060  18.593  0.00  0.00    +0.000 NA
ATOM     19  C   UNL     1       2.741   4.658  18.473  0.00  0.00    +0.000 A 
BRANCH  19  20
ATOM     20  O   UNL     1       2.763   6.013  18.191  0.00  0.00    +0.000 OA
BRANCH  20  21
ATOM     21  C   UNL     1       2.957   6.811  19.369  0.00  0.00    +0.000 C 
BRANCH  21  22
ATOM     22  C   UNL     1       1.992   7.971  19.488  0.00  0.00    +0.000 A 
ATOM     23  C   UNL     1       1.248   8.250  20.639  0.00  0.00    +0.000 A 
ATOM     24  C   UNL     1       0.334   9.310  20.651  0.00  0.00    +0.000 A 
ATOM     25  C   UNL     1       0.153  10.105  19.516  0.00  0.00    +0.000 A 
ATOM     26  C   UNL     1       0.897   9.846  18.367  0.00  0.00    +0.000 A 
ATOM     27  C   UNL     1       1.800   8.788  18.363  0.00  0.00    +0.000 A 
ATOM     28  F   UNL     1       2.497   8.550  17.241  0.00  0.00    +0.000 F 
ENDBRANCH  21  22
ENDBRANCH  20  21
ENDBRANCH  19  20
ENDBRANCH   2  14
BRANCH   3  29
ATOM     29  O   UNL     1       6.982   5.411  19.978  0.00  0.00    +0.000 OA
ATOM     30  H   UNL     1       7.615   4.675  19.875  0.00  0.00    +0.000 HD
ENDBRANCH   3  29
TORSDOF 7
ENDMDL
MODEL 6
REMARK VINA RESULT:      -8.3      2.497      6.378
REMARK  Name = 
REMARK  9 active torsions:
REMARK  status: ('A' for Active; 'I' for Inactive)
REMARK    1  A    between atoms: C_1  and  C_2
REMARK    2  A    between atoms: C_2  and  C_3
REMARK    3  A    between atoms: C_2  and  C_4
REMARK    4  A    between atoms: C_7  and  N_8
REMARK    5  A    between atoms: C_9  and  C_12
REMARK    6  A    between atoms: N_10  and  O_11
REMARK    7  A    between atoms: C_17  and  O_18
REMARK    8  A    between atoms: O_18  and  C_19
REMARK    9  A    between atoms: C_19  and  C_20
REMARK                            x       y       z     vdW  Elec       q    Type
REMARK                         _______ _______ _______ _____ _____    ______ ____
ROOT
ATOM      1  N   UNL     1       4.540   6.105  16.118  0.00  0.00    +0.000 N 
ATOM      2  C   UNL     1       5.674   5.307  16.260  0.00  0.00    +0.000 C 
ATOM      3  N   UNL     1       6.082   4.473  15.342  0.00  0.00    +0.000 NA
ATOM      4  H   UNL     1       4.133   6.100  15.192  0.00  0.00    +0.000 HD
ENDROOT
BRANCH   1   8
ATOM      5  C   UNL     1       1.994   8.104  18.859  0.00  0.00    +0.000 A 
ATOM      6  C   UNL     1       2.140   6.709  18.902  0.00  0.00    +0.000 A 
ATOM      7  C   UNL     1       3.042   6.050  18.046  0.00  0.00    +0.000 A 
ATOM      8  C   UNL     1       3.822   6.772  17.132  0.00  0.00    +0.000 A 
ATOM      9  C   UNL     1       3.722   8.168  17.152  0.00  0.00    +0.000 A 
ATOM     10  C   UNL     1       2.804   8.821  17.972  0.00  0.00    +0.000 A 
BRANCH   5  12
ATOM     11  C   UNL     1       1.292   8.536  21.233  0.00  0.00    +0.000 C 
ATOM     12  C   UNL     1       1.004   8.829  19.756  0.00  0.00    +0.000 C 
ATOM     13  C   UNL     1       0.997  10.344  19.510  0.00  0.00    +0.000 C 
ENDBRANCH   5  12
ENDBRANCH   1   8
BRANCH   2  14
ATOM     14  C   UNL     1       6.550   5.473  17.463  0.00  0.00    +0.000 A 
ATOM     15  C   UNL     1       7.450   6.553  17.457  0.00  0.00    +0.000 A 
ATOM     16  C   UNL     1       8.105   6.922  18.623  0.00  0.00    +0.000 A 
ATOM     17  C   UNL     1       7.883   6.160  19.749  0.00  0.00    +0.000 A 
ATOM     18  N   UNL     1       7.080   5.072  19.777  0.00  0.00    +0.000 NA
ATOM     19  C   UNL     1       6.419   4.733  18.637  0.00  0.00    +0.000 A 
BRANCH  19  20
ATOM     20  O   UNL     1       5.572   3.640  18.689  0.00  0.00    +0.000 OA
BRANCH  20  21
ATOM     21  C   UNL     1       4.780   3.620  19.887  0.00  0.00    +0.000 C 
BRANCH  21  22
ATOM     22  C   UNL     1       3.349   3.181  19.666  0.00  0.00    +0.000 A 
ATOM     23  C   UNL     1       2.928   2.422  18.570  0.00  0.00    +0.000 A 
ATOM     24  C   UNL     1       1.574   2.102  18.408  0.00  0.00    +0.000 A 
ATOM     25  C   UNL     1       0.627   2.535  19.339  0.00  0.00    +0.000 A 
ATOM     26  C   UNL     1       1.034   3.281  20.442  0.00  0.00    +0.000 A 
ATOM     27  C   UNL     1       2.381   3.597  20.592  0.00  0.00    +0.000 A 
ATOM     28  F   UNL     1       2.749   4.327  21.657  0.00  0.00    +0.000 F 
ENDBRANCH  21  22
ENDBRANCH  20  21
ENDBRANCH  19  20
ENDBRANCH   2  14
BRANCH   3  29
ATOM     29  O   UNL     1       5.215   4.469  14.240  0.00  0.00    +0.000 OA
ATOM     30  H   UNL     1       5.153   5.422  14.035  0.00  0.00    +0.000 HD
ENDBRANCH   3  29
TORSDOF 7
ENDMDL
MODEL 7
REMARK VINA RESULT:      -8.2      1.941      6.795
REMARK  Name = 
REMARK  9 active torsions:
REMARK  status: ('A' for Active; 'I' for Inactive)
REMARK    1  A    between atoms: C_1  and  C_2
REMARK    2  A    between atoms: C_2  and  C_3
REMARK    3  A    between atoms: C_2  and  C_4
REMARK    4  A    between atoms: C_7  and  N_8
REMARK    5  A    between atoms: C_9  and  C_12
REMARK    6  A    between atoms: N_10  and  O_11
REMARK    7  A    between atoms: C_17  and  O_18
REMARK    8  A    between atoms: O_18  and  C_19
REMARK    9  A    between atoms: C_19  and  C_20
REMARK                            x       y       z     vdW  Elec       q    Type
REMARK                         _______ _______ _______ _____ _____    ______ ____
ROOT
ATOM      1  N   UNL     1       4.278   6.265  19.650  0.00  0.00    +0.000 N 
ATOM      2  C   UNL     1       4.521   4.937  19.302  0.00  0.00    +0.000 C 
ATOM      3  N   UNL     1       5.698   4.380  19.385  0.00  0.00    +0.000 NA
ATOM      4  H   UNL     1       5.050   6.730  20.109  0.00  0.00    +0.000 HD
ENDROOT
BRANCH   1   8
ATOM      5  C   UNL     1       1.205   9.043  18.740  0.00  0.00    +0.000 A 
ATOM      6  C   UNL     1       2.120   8.640  17.757  0.00  0.00    +0.000 A 
ATOM      7  C   UNL     1       3.093   7.660  18.034  0.00  0.00    +0.000 A 
ATOM      8  C   UNL     1       3.167   7.060  19.298  0.00  0.00    +0.000 A 
ATOM      9  C   UNL     1       2.201   7.417  20.245  0.00  0.00    +0.000 A 
ATOM     10  C   UNL     1       1.260   8.411  19.987  0.00  0.00    +0.000 A 
BRANCH   5  12
ATOM     11  C   UNL     1      -0.917   9.602  17.514  0.00  0.00    +0.000 C 
ATOM     12  C   UNL     1       0.166  10.120  18.468  0.00  0.00    +0.000 C 
ATOM     13  C   UNL     1      -0.475  10.650  19.758  0.00  0.00    +0.000 C 
ENDBRANCH   5  12
ENDBRANCH   1   8
BRANCH   2  14
ATOM     14  C   UNL     1       3.376   4.051  18.920  0.00  0.00    +0.000 A 
ATOM     15  C   UNL     1       2.596   3.525  19.964  0.00  0.00    +0.000 A 
ATOM     16  C   UNL     1       1.381   2.914  19.688  0.00  0.00    +0.000 A 
ATOM     17  C   UNL     1       1.012   2.794  18.366  0.00  0.00    +0.000 A 
ATOM     18  N   UNL     1       1.768   3.223  17.330  0.00  0.00    +0.000 NA
ATOM     19  C   UNL     1       2.945   3.847  17.610  0.00  0.00    +0.000 A 
BRANCH  19  20
ATOM     20  O   UNL     1       3.691   4.314  16.543  0.00  0.00    +0.000 OA
BRANCH  20  21
ATOM     21  C   UNL     1       4.819   3.472  16.256  0.00  0.00    +0.000 C 
BRANCH  21  22
ATOM     22  C   UNL     1       5.662   3.954  15.095  0.00  0.00    +0.000 A 
ATOM     23  C   UNL     1       5.512   3.496  13.782  0.00  0.00    +0.000 A 
ATOM     24  C   UNL     1       6.370   3.950  12.772  0.00  0.00    +0.000 A 
ATOM     25  C   UNL     1       7.384   4.866  13.061  0.00  0.00    +0.000 A 
ATOM     26  C   UNL     1       7.536   5.339  14.362  0.00  0.00    +0.000 A 
ATOM     27  C   UNL     1       6.682   4.880  15.360  0.00  0.00    +0.000 A 
ATOM     28  F   UNL     1       6.854   5.340  16.608  0.00  0.00    +0.000 F 
ENDBRANCH  21  22
ENDBRANCH  20  21
ENDBRANCH  19  20
ENDBRANCH   2  14
BRANCH   3  29
ATOM     29  O   UNL     1       6.663   5.297  19.824  0.00  0.00    +0.000 OA
ATOM     30  H   UNL     1       6.114   6.079  20.027  0.00  0.00    +0.000 HD
ENDBRANCH   3  29
TORSDOF 7
ENDMDL
MODEL 8
REMARK VINA RESULT:      -8.2      2.762      6.458
REMARK  Name = 
REMARK  9 active torsions:
REMARK  status: ('A' for Active; 'I' for Inactive)
REMARK    1  A    between atoms: C_1  and  C_2
REMARK    2  A    between atoms: C_2  and  C_3
REMARK    3  A    between atoms: C_2  and  C_4
REMARK    4  A    between atoms: C_7  and  N_8
REMARK    5  A    between atoms: C_9  and  C_12
REMARK    6  A    between atoms: N_10  and  O_11
REMARK    7  A    between atoms: C_17  and  O_18
REMARK    8  A    between atoms: O_18  and  C_19
REMARK    9  A    between atoms: C_19  and  C_20
REMARK                            x       y       z     vdW  Elec       q    Type
REMARK                         _______ _______ _______ _____ _____    ______ ____
ROOT
ATOM      1  N   UNL     1       4.618   6.058  16.051  0.00  0.00    +0.000 N 
ATOM      2  C   UNL     1       5.729   5.231  16.214  0.00  0.00    +0.000 C 
ATOM      3  N   UNL     1       6.159   4.420  15.286  0.00  0.00    +0.000 NA
ATOM      4  H   UNL     1       4.251   6.092  15.109  0.00  0.00    +0.000 HD
ENDROOT
BRANCH   1   8
ATOM      5  C   UNL     1       2.000   8.026  18.745  0.00  0.00    +0.000 A 
ATOM      6  C   UNL     1       2.097   6.626  18.734  0.00  0.00    +0.000 A 
ATOM      7  C   UNL     1       3.021   5.973  17.896  0.00  0.00    +0.000 A 
ATOM      8  C   UNL     1       3.871   6.706  17.056  0.00  0.00    +0.000 A 
ATOM      9  C   UNL     1       3.815   8.102  17.133  0.00  0.00    +0.000 A 
ATOM     10  C   UNL     1       2.878   8.752  17.933  0.00  0.00    +0.000 A 
BRANCH   5  12
ATOM     11  C   UNL     1       1.257   8.465  21.106  0.00  0.00    +0.000 C 
ATOM     12  C   UNL     1       0.989   8.747  19.623  0.00  0.00    +0.000 C 
ATOM     13  C   UNL     1       0.971  10.260  19.367  0.00  0.00    +0.000 C 
ENDBRANCH   5  12
ENDBRANCH   1   8
BRANCH   2  14
ATOM     14  C   UNL     1       6.556   5.339  17.458  0.00  0.00    +0.000 A 
ATOM     15  C   UNL     1       7.478   6.397  17.525  0.00  0.00    +0.000 A 
ATOM     16  C   UNL     1       8.090   6.714  18.729  0.00  0.00    +0.000 A 
ATOM     17  C   UNL     1       7.803   5.921  19.820  0.00  0.00    +0.000 A 
ATOM     18  N   UNL     1       6.977   4.852  19.778  0.00  0.00    +0.000 NA
ATOM     19  C   UNL     1       6.359   4.565  18.600  0.00  0.00    +0.000 A 
BRANCH  19  20
ATOM     20  O   UNL     1       5.487   3.490  18.580  0.00  0.00    +0.000 OA
BRANCH  20  21
ATOM     21  C   UNL     1       4.904   3.236  19.868  0.00  0.00    +0.000 C 
BRANCH  21  22
ATOM     22  C   UNL     1       3.393   3.153  19.850  0.00  0.00    +0.000 A 
ATOM     23  C   UNL     1       2.569   3.759  20.804  0.00  0.00    +0.000 A 
ATOM     24  C   UNL     1       1.180   3.589  20.749  0.00  0.00    +0.000 A 
ATOM     25  C   UNL     1       0.599   2.815  19.742  0.00  0.00    +0.000 A 
ATOM     26  C   UNL     1       1.407   2.216  18.779  0.00  0.00    +0.000 A 
ATOM     27  C   UNL     1       2.787   2.387  18.843  0.00  0.00    +0.000 A 
ATOM     28  F   UNL     1       3.547   1.791  17.912  0.00  0.00    +0.000 F 
ENDBRANCH  21  22
ENDBRANCH  20  21
ENDBRANCH  19  20
ENDBRANCH   2  14
BRANCH   3  29
ATOM     29  O   UNL     1       5.341   4.471  14.149  0.00  0.00    +0.000 OA
ATOM     30  H   UNL     1       5.563   3.629  13.708  0.00  0.00    +0.000 HD
ENDBRANCH   3  29
TORSDOF 7
ENDMDL
MODEL 9
REMARK VINA RESULT:      -8.2      2.612      4.214
REMARK  Name = 
REMARK  9 active torsions:
REMARK  status: ('A' for Active; 'I' for Inactive)
REMARK    1  A    between atoms: C_1  and  C_2
REMARK    2  A    between atoms: C_2  and  C_3
REMARK    3  A    between atoms: C_2  and  C_4
REMARK    4  A    between atoms: C_7  and  N_8
REMARK    5  A    between atoms: C_9  and  C_12
REMARK    6  A    between atoms: N_10  and  O_11
REMARK    7  A    between atoms: C_17  and  O_18
REMARK    8  A    between atoms: O_18  and  C_19
REMARK    9  A    between atoms: C_19  and  C_20
REMARK                            x       y       z     vdW  Elec       q    Type
REMARK                         _______ _______ _______ _____ _____    ______ ____
ROOT
ATOM      1  N   UNL     1       7.790   4.675  16.703  0.00  0.00    +0.000 N 
ATOM      2  C   UNL     1       7.274   5.119  17.920  0.00  0.00    +0.000 C 
ATOM      3  N   UNL     1       7.892   4.965  19.059  0.00  0.00    +0.000 NA
ATOM      4  H   UNL     1       8.747   4.349  16.745  0.00  0.00    +0.000 HD
ENDROOT
BRANCH   1   8
ATOM      5  C   UNL     1       5.990   3.689  12.992  0.00  0.00    +0.000 A 
ATOM      6  C   UNL     1       5.434   3.240  14.200  0.00  0.00    +0.000 A 
ATOM      7  C   UNL     1       5.984   3.629  15.436  0.00  0.00    +0.000 A 
ATOM      8  C   UNL     1       7.097   4.479  15.491  0.00  0.00    +0.000 A 
ATOM      9  C   UNL     1       7.594   4.979  14.283  0.00  0.00    +0.000 A 
ATOM     10  C   UNL     1       7.076   4.568  13.056  0.00  0.00    +0.000 A 
BRANCH   5  12
ATOM     11  C   UNL     1       5.822   1.809  11.333  0.00  0.00    +0.000 C 
ATOM     12  C   UNL     1       5.427   3.256  11.648  0.00  0.00    +0.000 C 
ATOM     13  C   UNL     1       3.903   3.416  11.575  0.00  0.00    +0.000 C 
ENDBRANCH   5  12
ENDBRANCH   1   8
BRANCH   2  14
ATOM     14  C   UNL     1       6.006   5.917  17.938  0.00  0.00    +0.000 A 
ATOM     15  C   UNL     1       5.847   6.892  16.939  0.00  0.00    +0.000 A 
ATOM     16  C   UNL     1       4.610   7.486  16.734  0.00  0.00    +0.000 A 
ATOM     17  C   UNL     1       3.581   7.128  17.578  0.00  0.00    +0.000 A 
ATOM     18  N   UNL     1       3.714   6.247  18.596  0.00  0.00    +0.000 NA
ATOM     19  C   UNL     1       4.922   5.646  18.772  0.00  0.00    +0.000 A 
BRANCH  19  20
ATOM     20  O   UNL     1       5.033   4.720  19.793  0.00  0.00    +0.000 OA
BRANCH  20  21
ATOM     21  C   UNL     1       4.592   3.412  19.395  0.00  0.00    +0.000 C 
BRANCH  21  22
ATOM     22  C   UNL     1       3.108   3.183  19.586  0.00  0.00    +0.000 A 
ATOM     23  C   UNL     1       2.400   3.579  20.724  0.00  0.00    +0.000 A 
ATOM     24  C   UNL     1       1.038   3.281  20.850  0.00  0.00    +0.000 A 
ATOM     25  C   UNL     1       0.368   2.584  19.840  0.00  0.00    +0.000 A 
ATOM     26  C   UNL     1       1.059   2.194  18.696  0.00  0.00    +0.000 A 
ATOM     27  C   UNL     1       2.413   2.492  18.581  0.00  0.00    +0.000 A 
ATOM     28  F   UNL     1       3.061   2.096  17.475  0.00  0.00    +0.000 F 
ENDBRANCH  21  22
ENDBRANCH  20  21
ENDBRANCH  19  20
ENDBRANCH   2  14
BRANCH   3  29
ATOM     29  O   UNL     1       9.098   4.271  18.891  0.00  0.00    +0.000 OA
ATOM     30  H   UNL     1       8.801   3.473  18.413  0.00  0.00    +0.000 HD
ENDBRANCH   3  29
TORSDOF 7
ENDMDL
