MODEL 1
REMARK VINA RESULT:      -7.4      0.000      0.000
REMARK  Name = 
REMARK  3 active torsions:
REMARK  status: ('A' for Active; 'I' for Inactive)
REMARK    1  A    between atoms: C_2  and  C_3
REMARK    2  A    between atoms: N_13  and  C_14
REMARK    3  A    between atoms: C_14  and  C_15
REMARK                            x       y       z     vdW  Elec       q    Type
REMARK                         _______ _______ _______ _____ _____    ______ ____
ROOT
ATOM      1  O   UNL     1       3.993   5.797  17.585  0.00  0.00    +0.000 OA
ATOM      2  C   UNL     1       3.904   4.724  16.997  0.00  0.00    +0.000 C 
ATOM      3  N   UNL     1       2.790   3.937  17.204  0.00  0.00    +0.000 N 
ATOM      4  C   UNL     1       1.600   4.434  17.882  0.00  0.00    +0.000 C 
ATOM      5  C   UNL     1       1.054   3.286  18.731  0.00  0.00    +0.000 C 
ATOM      6  C   UNL     1       0.719   3.557  20.198  0.00  0.00    +0.000 C 
ATOM      7  N   UNL     1       1.705   4.062  21.154  0.00  0.00    +0.000 NA
ATOM      8  C   UNL     1       2.718   3.042  21.481  0.00  0.00    +0.000 C 
ATOM      9  C   UNL     1       3.509   2.487  20.288  0.00  0.00    +0.000 C 
ATOM     10  O   UNL     1       2.726   1.569  19.529  0.00  0.00    +0.000 OA
ATOM     11  C   UNL     1       1.978   2.092  18.437  0.00  0.00    +0.000 C 
ATOM     12  C   UNL     1       2.860   2.497  17.253  0.00  0.00    +0.000 C 
ENDROOT
BRANCH   2  13
ATOM     13  C   UNL     1       4.950   4.266  15.955  0.00  0.00    +0.000 C 
ATOM     14  C   UNL     1       5.396   5.316  14.895  0.00  0.00    +0.000 C 
ATOM     15  C   UNL     1       6.802   4.684  14.968  0.00  0.00    +0.000 C 
ATOM     16  F   UNL     1       7.845   5.534  14.853  0.00  0.00    +0.000 F 
ATOM     17  F   UNL     1       7.017   3.674  14.093  0.00  0.00    +0.000 F 
ATOM     18  C   UNL     1       6.436   4.242  16.403  0.00  0.00    +0.000 C 
ENDBRANCH   2  13
BRANCH   7  19
ATOM     19  C   UNL     1       2.314   5.370  20.929  0.00  0.00    +0.000 C 
BRANCH  19  20
ATOM     20  C   UNL     1       1.483   6.558  20.533  0.00  0.00    +0.000 C 
ATOM     21  C   UNL     1       1.509   7.924  21.179  0.00  0.00    +0.000 C 
ATOM     22  C   UNL     1       1.991   7.752  19.764  0.00  0.00    +0.000 C 
ENDBRANCH  19  20
ENDBRANCH   7  19
TORSDOF 3
ENDMDL
MODEL 2
REMARK VINA RESULT:      -7.3      3.624      6.910
REMARK  Name = 
REMARK  3 active torsions:
REMARK  status: ('A' for Active; 'I' for Inactive)
REMARK    1  A    between atoms: C_2  and  C_3
REMARK    2  A    between atoms: N_13  and  C_14
REMARK    3  A    between atoms: C_14  and  C_15
REMARK                            x       y       z     vdW  Elec       q    Type
REMARK                         _______ _______ _______ _____ _____    ______ ____
ROOT
ATOM      1  O   UNL     1       3.099   3.297  17.219  0.00  0.00    +0.000 OA
ATOM      2  C   UNL     1       3.476   3.800  18.273  0.00  0.00    +0.000 C 
ATOM      3  N   UNL     1       4.031   5.062  18.252  0.00  0.00    +0.000 N 
ATOM      4  C   UNL     1       3.955   5.928  17.084  0.00  0.00    +0.000 C 
ATOM      5  C   UNL     1       5.284   6.678  16.992  0.00  0.00    +0.000 C 
ATOM      6  C   UNL     1       6.021   6.699  15.651  0.00  0.00    +0.000 C 
ATOM      7  N   UNL     1       6.430   5.479  14.956  0.00  0.00    +0.000 NA
ATOM      8  C   UNL     1       7.536   4.798  15.655  0.00  0.00    +0.000 C 
ATOM      9  C   UNL     1       7.254   4.399  17.110  0.00  0.00    +0.000 C 
ATOM     10  O   UNL     1       7.307   5.529  17.976  0.00  0.00    +0.000 OA
ATOM     11  C   UNL     1       6.089   6.224  18.222  0.00  0.00    +0.000 C 
ATOM     12  C   UNL     1       5.125   5.438  19.115  0.00  0.00    +0.000 C 
ENDROOT
BRANCH   2  13
ATOM     13  C   UNL     1       3.260   3.109  19.639  0.00  0.00    +0.000 C 
ATOM     14  C   UNL     1       2.554   3.944  20.748  0.00  0.00    +0.000 C 
ATOM     15  C   UNL     1       1.889   2.631  21.212  0.00  0.00    +0.000 C 
ATOM     16  F   UNL     1       0.620   2.731  21.663  0.00  0.00    +0.000 F 
ATOM     17  F   UNL     1       2.586   1.938  22.143  0.00  0.00    +0.000 F 
ATOM     18  C   UNL     1       2.059   2.131  19.759  0.00  0.00    +0.000 C 
ENDBRANCH   2  13
BRANCH   7  19
ATOM     19  C   UNL     1       5.411   4.531  14.515  0.00  0.00    +0.000 C 
BRANCH  19  20
ATOM     20  C   UNL     1       5.701   3.519  13.443  0.00  0.00    +0.000 C 
ATOM     21  C   UNL     1       5.073   3.465  12.068  0.00  0.00    +0.000 C 
ATOM     22  C   UNL     1       6.539   3.774  12.214  0.00  0.00    +0.000 C 
ENDBRANCH  19  20
ENDBRANCH   7  19
TORSDOF 3
ENDMDL
MODEL 3
REMARK VINA RESULT:      -7.1      0.675      1.082
REMARK  Name = 
REMARK  3 active torsions:
REMARK  status: ('A' for Active; 'I' for Inactive)
REMARK    1  A    between atoms: C_2  and  C_3
REMARK    2  A    between atoms: N_13  and  C_14
REMARK    3  A    between atoms: C_14  and  C_15
REMARK                            x       y       z     vdW  Elec       q    Type
REMARK                         _______ _______ _______ _____ _____    ______ ____
ROOT
ATOM      1  O   UNL     1       4.267   6.351  18.116  0.00  0.00    +0.000 OA
ATOM      2  C   UNL     1       4.355   5.383  17.367  0.00  0.00    +0.000 C 
ATOM      3  N   UNL     1       3.290   4.511  17.271  0.00  0.00    +0.000 N 
ATOM      4  C   UNL     1       1.976   4.823  17.817  0.00  0.00    +0.000 C 
ATOM      5  C   UNL     1       1.405   3.523  18.385  0.00  0.00    +0.000 C 
ATOM      6  C   UNL     1       0.833   3.535  19.803  0.00  0.00    +0.000 C 
ATOM      7  N   UNL     1       1.621   3.935  20.969  0.00  0.00    +0.000 NA
ATOM      8  C   UNL     1       2.654   2.935  21.298  0.00  0.00    +0.000 C 
ATOM      9  C   UNL     1       3.657   2.627  20.178  0.00  0.00    +0.000 C 
ATOM     10  O   UNL     1       3.074   1.799  19.174  0.00  0.00    +0.000 OA
ATOM     11  C   UNL     1       2.458   2.448  18.067  0.00  0.00    +0.000 C 
ATOM     12  C   UNL     1       3.471   3.088  17.114  0.00  0.00    +0.000 C 
ENDROOT
BRANCH   2  13
ATOM     13  C   UNL     1       5.579   5.160  16.449  0.00  0.00    +0.000 C 
ATOM     14  C   UNL     1       5.836   3.706  15.956  0.00  0.00    +0.000 C 
ATOM     15  C   UNL     1       6.327   4.320  14.628  0.00  0.00    +0.000 C 
ATOM     16  F   UNL     1       6.031   3.630  13.506  0.00  0.00    +0.000 F 
ATOM     17  F   UNL     1       7.652   4.594  14.586  0.00  0.00    +0.000 F 
ATOM     18  C   UNL     1       5.418   5.527  14.949  0.00  0.00    +0.000 C 
ENDBRANCH   2  13
BRANCH   7  19
ATOM     19  C   UNL     1       2.147   5.295  21.044  0.00  0.00    +0.000 C 
BRANCH  19  20
ATOM     20  C   UNL     1       1.316   6.475  20.629  0.00  0.00    +0.000 C 
ATOM     21  C   UNL     1       1.136   7.762  21.404  0.00  0.00    +0.000 C 
ATOM     22  C   UNL     1       1.863   7.772  20.085  0.00  0.00    +0.000 C 
ENDBRANCH  19  20
ENDBRANCH   7  19
TORSDOF 3
ENDMDL
MODEL 4
REMARK VINA RESULT:      -7.1      3.551      6.072
REMARK  Name = 
REMARK  3 active torsions:
REMARK  status: ('A' for Active; 'I' for Inactive)
REMARK    1  A    between atoms: C_2  and  C_3
REMARK    2  A    between atoms: N_13  and  C_14
REMARK    3  A    between atoms: C_14  and  C_15
REMARK                            x       y       z     vdW  Elec       q    Type
REMARK                         _______ _______ _______ _____ _____    ______ ____
ROOT
ATOM      1  O   UNL     1       3.299   7.456  17.506  0.00  0.00    +0.000 OA
ATOM      2  C   UNL     1       2.590   7.376  18.504  0.00  0.00    +0.000 C 
ATOM      3  N   UNL     1       2.878   6.420  19.456  0.00  0.00    +0.000 N 
ATOM      4  C   UNL     1       4.130   5.676  19.459  0.00  0.00    +0.000 C 
ATOM      5  C   UNL     1       3.804   4.248  19.896  0.00  0.00    +0.000 C 
ATOM      6  C   UNL     1       4.337   3.087  19.054  0.00  0.00    +0.000 C 
ATOM      7  N   UNL     1       4.032   2.937  17.632  0.00  0.00    +0.000 NA
ATOM      8  C   UNL     1       2.621   2.565  17.413  0.00  0.00    +0.000 C 
ATOM      9  C   UNL     1       1.583   3.542  17.983  0.00  0.00    +0.000 C 
ATOM     10  O   UNL     1       1.473   3.413  19.398  0.00  0.00    +0.000 OA
ATOM     11  C   UNL     1       2.296   4.254  20.199  0.00  0.00    +0.000 C 
ATOM     12  C   UNL     1       1.847   5.717  20.181  0.00  0.00    +0.000 C 
ENDROOT
BRANCH   2  13
ATOM     13  C   UNL     1       1.443   8.375  18.783  0.00  0.00    +0.000 C 
ATOM     14  C   UNL     1       1.445   9.083  20.170  0.00  0.00    +0.000 C 
ATOM     15  C   UNL     1       0.889  10.331  19.452  0.00  0.00    +0.000 C 
ATOM     16  F   UNL     1       1.324  11.525  19.909  0.00  0.00    +0.000 F 
ATOM     17  F   UNL     1      -0.461  10.398  19.393  0.00  0.00    +0.000 F 
ATOM     18  C   UNL     1       1.576   9.797  18.175  0.00  0.00    +0.000 C 
ENDBRANCH   2  13
BRANCH   7  19
ATOM     19  C   UNL     1       4.465   3.969  16.694  0.00  0.00    +0.000 C 
BRANCH  19  20
ATOM     20  C   UNL     1       5.750   3.833  15.926  0.00  0.00    +0.000 C 
ATOM     21  C   UNL     1       5.928   4.029  14.437  0.00  0.00    +0.000 C 
ATOM     22  C   UNL     1       6.574   4.984  15.405  0.00  0.00    +0.000 C 
ENDBRANCH  19  20
ENDBRANCH   7  19
TORSDOF 3
ENDMDL
MODEL 5
REMARK VINA RESULT:      -6.8      3.556      6.637
REMARK  Name = 
REMARK  3 active torsions:
REMARK  status: ('A' for Active; 'I' for Inactive)
REMARK    1  A    between atoms: C_2  and  C_3
REMARK    2  A    between atoms: N_13  and  C_14
REMARK    3  A    between atoms: C_14  and  C_15
REMARK                            x       y       z     vdW  Elec       q    Type
REMARK                         _______ _______ _______ _____ _____    ______ ____
ROOT
ATOM      1  O   UNL     1       2.454   3.800  16.849  0.00  0.00    +0.000 OA
ATOM      2  C   UNL     1       2.648   4.121  18.017  0.00  0.00    +0.000 C 
ATOM      3  N   UNL     1       3.388   5.253  18.287  0.00  0.00    +0.000 N 
ATOM      4  C   UNL     1       3.730   6.225  17.257  0.00  0.00    +0.000 C 
ATOM      5  C   UNL     1       5.146   6.718  17.556  0.00  0.00    +0.000 C 
ATOM      6  C   UNL     1       6.171   6.727  16.421  0.00  0.00    +0.000 C 
ATOM      7  N   UNL     1       6.531   5.523  15.672  0.00  0.00    +0.000 NA
ATOM      8  C   UNL     1       7.317   4.585  16.494  0.00  0.00    +0.000 C 
ATOM      9  C   UNL     1       6.639   4.109  17.787  0.00  0.00    +0.000 C 
ATOM     10  O   UNL     1       6.667   5.122  18.789  0.00  0.00    +0.000 OA
ATOM     11  C   UNL     1       5.554   6.006  18.857  0.00  0.00    +0.000 C 
ATOM     12  C   UNL     1       4.293   5.334  19.408  0.00  0.00    +0.000 C 
ENDROOT
BRANCH   2  13
ATOM     13  C   UNL     1       2.007   3.357  19.199  0.00  0.00    +0.000 C 
ATOM     14  C   UNL     1       2.972   2.815  20.295  0.00  0.00    +0.000 C 
ATOM     15  C   UNL     1       1.864   3.129  21.322  0.00  0.00    +0.000 C 
ATOM     16  F   UNL     1       2.276   3.573  22.529  0.00  0.00    +0.000 F 
ATOM     17  F   UNL     1       0.997   2.114  21.550  0.00  0.00    +0.000 F 
ATOM     18  C   UNL     1       1.367   4.205  20.331  0.00  0.00    +0.000 C 
ENDBRANCH   2  13
BRANCH   7  19
ATOM     19  C   UNL     1       5.506   4.829  14.898  0.00  0.00    +0.000 C 
BRANCH  19  20
ATOM     20  C   UNL     1       5.869   3.751  13.916  0.00  0.00    +0.000 C 
ATOM     21  C   UNL     1       5.217   3.505  12.574  0.00  0.00    +0.000 C 
ATOM     22  C   UNL     1       6.648   3.966  12.642  0.00  0.00    +0.000 C 
ENDBRANCH  19  20
ENDBRANCH   7  19
TORSDOF 3
ENDMDL
MODEL 6
REMARK VINA RESULT:      -6.5      3.536      6.035
REMARK  Name = 
REMARK  3 active torsions:
REMARK  status: ('A' for Active; 'I' for Inactive)
REMARK    1  A    between atoms: C_2  and  C_3
REMARK    2  A    between atoms: N_13  and  C_14
REMARK    3  A    between atoms: C_14  and  C_15
REMARK                            x       y       z     vdW  Elec       q    Type
REMARK                         _______ _______ _______ _____ _____    ______ ____
ROOT
ATOM      1  O   UNL     1       3.388   6.902  19.171  0.00  0.00    +0.000 OA
ATOM      2  C   UNL     1       2.395   6.629  19.839  0.00  0.00    +0.000 C 
ATOM      3  N   UNL     1       2.323   5.399  20.461  0.00  0.00    +0.000 N 
ATOM      4  C   UNL     1       3.475   4.516  20.577  0.00  0.00    +0.000 C 
ATOM      5  C   UNL     1       2.965   3.086  20.403  0.00  0.00    +0.000 C 
ATOM      6  C   UNL     1       3.686   2.167  19.416  0.00  0.00    +0.000 C 
ATOM      7  N   UNL     1       3.844   2.497  17.999  0.00  0.00    +0.000 NA
ATOM      8  C   UNL     1       2.561   2.416  17.275  0.00  0.00    +0.000 C 
ATOM      9  C   UNL     1       1.440   3.317  17.813  0.00  0.00    +0.000 C 
ATOM     10  O   UNL     1       0.879   2.786  19.011  0.00  0.00    +0.000 OA
ATOM     11  C   UNL     1       1.441   3.218  20.245  0.00  0.00    +0.000 C 
ATOM     12  C   UNL     1       1.085   4.668  20.584  0.00  0.00    +0.000 C 
ENDROOT
BRANCH   2  13
ATOM     13  C   UNL     1       1.264   7.652  20.090  0.00  0.00    +0.000 C 
ATOM     14  C   UNL     1       1.333   8.469  21.414  0.00  0.00    +0.000 C 
ATOM     15  C   UNL     1       0.746   9.659  20.627  0.00  0.00    +0.000 C 
ATOM     16  F   UNL     1       1.203  10.883  20.966  0.00  0.00    +0.000 F 
ATOM     17  F   UNL     1      -0.606   9.728  20.625  0.00  0.00    +0.000 F 
ATOM     18  C   UNL     1       1.371   9.021  19.365  0.00  0.00    +0.000 C 
ENDBRANCH   2  13
BRANCH   7  19
ATOM     19  C   UNL     1       4.598   3.689  17.623  0.00  0.00    +0.000 C 
BRANCH  19  20
ATOM     20  C   UNL     1       4.740   4.098  16.184  0.00  0.00    +0.000 C 
ATOM     21  C   UNL     1       5.451   5.329  15.668  0.00  0.00    +0.000 C 
ATOM     22  C   UNL     1       5.998   3.960  15.364  0.00  0.00    +0.000 C 
ENDBRANCH  19  20
ENDBRANCH   7  19
TORSDOF 3
ENDMDL
MODEL 7
REMARK VINA RESULT:      -6.5      0.913      1.273
REMARK  Name = 
REMARK  3 active torsions:
REMARK  status: ('A' for Active; 'I' for Inactive)
REMARK    1  A    between atoms: C_2  and  C_3
REMARK    2  A    between atoms: N_13  and  C_14
REMARK    3  A    between atoms: C_14  and  C_15
REMARK                            x       y       z     vdW  Elec       q    Type
REMARK                         _______ _______ _______ _____ _____    ______ ____
ROOT
ATOM      1  O   UNL     1       3.261   5.817  17.267  0.00  0.00    +0.000 OA
ATOM      2  C   UNL     1       3.915   4.797  17.076  0.00  0.00    +0.000 C 
ATOM      3  N   UNL     1       3.327   3.570  17.306  0.00  0.00    +0.000 N 
ATOM      4  C   UNL     1       1.893   3.421  17.516  0.00  0.00    +0.000 C 
ATOM      5  C   UNL     1       1.704   2.335  18.575  0.00  0.00    +0.000 C 
ATOM      6  C   UNL     1       0.781   2.624  19.760  0.00  0.00    +0.000 C 
ATOM      7  N   UNL     1       0.987   3.754  20.666  0.00  0.00    +0.000 NA
ATOM      8  C   UNL     1       2.172   3.557  21.522  0.00  0.00    +0.000 C 
ATOM      9  C   UNL     1       3.498   3.345  20.778  0.00  0.00    +0.000 C 
ATOM     10  O   UNL     1       3.583   2.030  20.236  0.00  0.00    +0.000 OA
ATOM     11  C   UNL     1       3.123   1.840  18.902  0.00  0.00    +0.000 C 
ATOM     12  C   UNL     1       4.058   2.456  17.858  0.00  0.00    +0.000 C 
ENDROOT
BRANCH   2  13
ATOM     13  C   UNL     1       5.345   4.833  16.489  0.00  0.00    +0.000 C 
ATOM     14  C   UNL     1       5.747   3.667  15.538  0.00  0.00    +0.000 C 
ATOM     15  C   UNL     1       6.572   4.699  14.740  0.00  0.00    +0.000 C 
ATOM     16  F   UNL     1       6.601   4.533  13.401  0.00  0.00    +0.000 F 
ATOM     17  F   UNL     1       7.854   4.840  15.149  0.00  0.00    +0.000 F 
ATOM     18  C   UNL     1       5.592   5.768  15.275  0.00  0.00    +0.000 C 
ENDBRANCH   2  13
BRANCH   7  19
ATOM     19  C   UNL     1       0.927   5.114  20.137  0.00  0.00    +0.000 C 
BRANCH  19  20
ATOM     20  C   UNL     1       1.706   6.231  20.773  0.00  0.00    +0.000 C 
ATOM     21  C   UNL     1       2.164   7.502  20.094  0.00  0.00    +0.000 C 
ATOM     22  C   UNL     1       1.130   7.563  21.186  0.00  0.00    +0.000 C 
ENDBRANCH  19  20
ENDBRANCH   7  19
TORSDOF 3
ENDMDL
MODEL 8
REMARK VINA RESULT:      -6.4      3.773      5.743
REMARK  Name = 
REMARK  3 active torsions:
REMARK  status: ('A' for Active; 'I' for Inactive)
REMARK    1  A    between atoms: C_2  and  C_3
REMARK    2  A    between atoms: N_13  and  C_14
REMARK    3  A    between atoms: C_14  and  C_15
REMARK                            x       y       z     vdW  Elec       q    Type
REMARK                         _______ _______ _______ _____ _____    ______ ____
ROOT
ATOM      1  O   UNL     1       1.734   6.658  20.161  0.00  0.00    +0.000 OA
ATOM      2  C   UNL     1       2.123   7.282  19.179  0.00  0.00    +0.000 C 
ATOM      3  N   UNL     1       2.557   6.586  18.070  0.00  0.00    +0.000 N 
ATOM      4  C   UNL     1       2.333   5.155  17.912  0.00  0.00    +0.000 C 
ATOM      5  C   UNL     1       3.580   4.577  17.242  0.00  0.00    +0.000 C 
ATOM      6  C   UNL     1       4.232   3.338  17.858  0.00  0.00    +0.000 C 
ATOM      7  N   UNL     1       4.712   3.302  19.239  0.00  0.00    +0.000 NA
ATOM      8  C   UNL     1       5.915   4.136  19.420  0.00  0.00    +0.000 C 
ATOM      9  C   UNL     1       5.756   5.617  19.050  0.00  0.00    +0.000 C 
ATOM     10  O   UNL     1       5.753   5.801  17.637  0.00  0.00    +0.000 OA
ATOM     11  C   UNL     1       4.493   5.786  16.977  0.00  0.00    +0.000 C 
ATOM     12  C   UNL     1       3.659   7.039  17.257  0.00  0.00    +0.000 C 
ENDROOT
BRANCH   2  13
ATOM     13  C   UNL     1       2.051   8.825  19.103  0.00  0.00    +0.000 C 
ATOM     14  C   UNL     1       1.284   9.436  17.894  0.00  0.00    +0.000 C 
ATOM     15  C   UNL     1       0.815  10.554  18.850  0.00  0.00    +0.000 C 
ATOM     16  F   UNL     1      -0.438  11.018  18.656  0.00  0.00    +0.000 F 
ATOM     17  F   UNL     1       1.632  11.631  18.907  0.00  0.00    +0.000 F 
ATOM     18  C   UNL     1       0.996   9.532  19.995  0.00  0.00    +0.000 C 
ENDBRANCH   2  13
BRANCH   7  19
ATOM     19  C   UNL     1       3.762   3.489  20.332  0.00  0.00    +0.000 C 
BRANCH  19  20
ATOM     20  C   UNL     1       2.568   2.589  20.486  0.00  0.00    +0.000 C 
ATOM     21  C   UNL     1       1.639   2.532  21.678  0.00  0.00    +0.000 C 
ATOM     22  C   UNL     1       1.130   3.026  20.351  0.00  0.00    +0.000 C 
ENDBRANCH  19  20
ENDBRANCH   7  19
TORSDOF 3
ENDMDL
MODEL 9
REMARK VINA RESULT:      -6.4      1.057      1.241
REMARK  Name = 
REMARK  3 active torsions:
REMARK  status: ('A' for Active; 'I' for Inactive)
REMARK    1  A    between atoms: C_2  and  C_3
REMARK    2  A    between atoms: N_13  and  C_14
REMARK    3  A    between atoms: C_14  and  C_15
REMARK                            x       y       z     vdW  Elec       q    Type
REMARK                         _______ _______ _______ _____ _____    ______ ____
ROOT
ATOM      1  O   UNL     1       3.102   5.689  17.279  0.00  0.00    +0.000 OA
ATOM      2  C   UNL     1       3.742   4.661  17.079  0.00  0.00    +0.000 C 
ATOM      3  N   UNL     1       3.155   3.443  17.352  0.00  0.00    +0.000 N 
ATOM      4  C   UNL     1       1.730   3.306  17.620  0.00  0.00    +0.000 C 
ATOM      5  C   UNL     1       1.576   2.239  18.703  0.00  0.00    +0.000 C 
ATOM      6  C   UNL     1       0.702   2.552  19.918  0.00  0.00    +0.000 C 
ATOM      7  N   UNL     1       0.950   3.695  20.797  0.00  0.00    +0.000 NA
ATOM      8  C   UNL     1       2.166   3.504  21.609  0.00  0.00    +0.000 C 
ATOM      9  C   UNL     1       3.461   3.271  20.817  0.00  0.00    +0.000 C 
ATOM     10  O   UNL     1       3.516   1.947  20.294  0.00  0.00    +0.000 OA
ATOM     11  C   UNL     1       3.004   1.739  18.982  0.00  0.00    +0.000 C 
ATOM     12  C   UNL     1       3.901   2.332  17.892  0.00  0.00    +0.000 C 
ENDROOT
BRANCH   2  13
ATOM     13  C   UNL     1       5.148   4.678  16.437  0.00  0.00    +0.000 C 
ATOM     14  C   UNL     1       5.606   6.012  15.777  0.00  0.00    +0.000 C 
ATOM     15  C   UNL     1       7.032   5.680  16.267  0.00  0.00    +0.000 C 
ATOM     16  F   UNL     1       7.785   6.727  16.665  0.00  0.00    +0.000 F 
ATOM     17  F   UNL     1       7.779   4.964  15.395  0.00  0.00    +0.000 F 
ATOM     18  C   UNL     1       6.362   4.854  17.389  0.00  0.00    +0.000 C 
ENDBRANCH   2  13
BRANCH   7  19
ATOM     19  C   UNL     1       0.877   5.046  20.249  0.00  0.00    +0.000 C 
BRANCH  19  20
ATOM     20  C   UNL     1       1.719   6.159  20.808  0.00  0.00    +0.000 C 
ATOM     21  C   UNL     1       2.204   7.379  20.057  0.00  0.00    +0.000 C 
ATOM     22  C   UNL     1       1.210   7.530  21.176  0.00  0.00    +0.000 C 
ENDBRANCH  19  20
ENDBRANCH   7  19
TORSDOF 3
ENDMDL
