MODEL 1
REMARK VINA RESULT:      -7.8      0.000      0.000
REMARK  Name = 
REMARK  7 active torsions:
REMARK  status: ('A' for Active; 'I' for Inactive)
REMARK    1  A    between atoms: C_2  and  C_8
REMARK    2  A    between atoms: N_3  and  C_4
REMARK    3  A    between atoms: C_4  and  C_5
REMARK    4  A    between atoms: C_5  and  C_6
REMARK    5  A    between atoms: C_6  and  O_7
REMARK    6  A    between atoms: N_12  and  C_13
REMARK    7  A    between atoms: C_13  and  C_14
REMARK                            x       y       z     vdW  Elec       q    Type
REMARK                         _______ _______ _______ _____ _____    ______ ____
ROOT
ATOM      1  C   UNL     1       6.052   4.944  15.437  0.00  0.00    +0.000 C 
ATOM      2  O   UNL     1       4.870   5.737  15.219  0.00  0.00    +0.000 OA
ATOM      3  C   UNL     1       4.991   6.829  16.142  0.00  0.00    +0.000 C 
ATOM      4  C   UNL     1       4.300   6.483  17.486  0.00  0.00    +0.000 C 
ATOM      5  N   UNL     1       5.057   5.512  18.297  0.00  0.00    +0.000 N 
ATOM      6  C   UNL     1       6.328   5.087  17.904  0.00  0.00    +0.000 C 
ATOM      7  O   UNL     1       7.005   4.290  18.547  0.00  0.00    +0.000 OA
ATOM      8  C   UNL     1       6.798   5.645  16.555  0.00  0.00    +0.000 C 
ATOM      9  O   UNL     1       6.383   7.011  16.402  0.00  0.00    +0.000 OA
ENDROOT
BRANCH   1  11
ATOM     10  O   UNL     1       8.051   5.453  14.176  0.00  0.00    +0.000 OA
ATOM     11  C   UNL     1       6.978   4.857  14.220  0.00  0.00    +0.000 C 
ATOM     12  N   UNL     1       6.495   4.094  13.179  0.00  0.00    +0.000 N 
ATOM     13  H   UNL     1       5.623   3.595  13.333  0.00  0.00    +0.000 HD
BRANCH  12  14
ATOM     14  C   UNL     1       7.207   3.941  11.928  0.00  0.00    +0.000 C 
BRANCH  14  15
ATOM     15  C   UNL     1       7.219   2.499  11.431  0.00  0.00    +0.000 C 
BRANCH  15  16
ATOM     16  C   UNL     1       5.848   1.836  11.474  0.00  0.00    +0.000 C 
BRANCH  16  17
ATOM     17  O   UNL     1       6.002   0.425  11.367  0.00  0.00    +0.000 OA
ATOM     18  H   UNL     1       6.110   0.074  12.267  0.00  0.00    +0.000 HD
ENDBRANCH  16  17
ENDBRANCH  15  16
ENDBRANCH  14  15
ENDBRANCH  12  14
ENDBRANCH   1  11
BRANCH   5  19
ATOM     19  C   UNL     1       4.533   5.133  19.605  0.00  0.00    +0.000 C 
BRANCH  19  20
ATOM     20  C   UNL     1       3.273   4.309  19.522  0.00  0.00    +0.000 A 
ATOM     21  C   UNL     1       2.158   4.632  20.310  0.00  0.00    +0.000 A 
ATOM     22  C   UNL     1       0.978   3.894  20.211  0.00  0.00    +0.000 A 
ATOM     23  C   UNL     1       0.894   2.831  19.314  0.00  0.00    +0.000 A 
ATOM     24  C   UNL     1       1.988   2.509  18.514  0.00  0.00    +0.000 A 
ATOM     25  C   UNL     1       3.172   3.243  18.616  0.00  0.00    +0.000 A 
ENDBRANCH  19  20
ENDBRANCH   5  19
TORSDOF 7
ENDMDL
MODEL 2
REMARK VINA RESULT:      -7.8      0.621      1.178
REMARK  Name = 
REMARK  7 active torsions:
REMARK  status: ('A' for Active; 'I' for Inactive)
REMARK    1  A    between atoms: C_2  and  C_8
REMARK    2  A    between atoms: N_3  and  C_4
REMARK    3  A    between atoms: C_4  and  C_5
REMARK    4  A    between atoms: C_5  and  C_6
REMARK    5  A    between atoms: C_6  and  O_7
REMARK    6  A    between atoms: N_12  and  C_13
REMARK    7  A    between atoms: C_13  and  C_14
REMARK                            x       y       z     vdW  Elec       q    Type
REMARK                         _______ _______ _______ _____ _____    ______ ____
ROOT
ATOM      1  C   UNL     1       6.023   4.920  15.492  0.00  0.00    +0.000 C 
ATOM      2  O   UNL     1       4.839   5.715  15.292  0.00  0.00    +0.000 OA
ATOM      3  C   UNL     1       4.983   6.815  16.203  0.00  0.00    +0.000 C 
ATOM      4  C   UNL     1       4.320   6.484  17.564  0.00  0.00    +0.000 C 
ATOM      5  N   UNL     1       5.091   5.518  18.368  0.00  0.00    +0.000 N 
ATOM      6  C   UNL     1       6.352   5.084  17.951  0.00  0.00    +0.000 C 
ATOM      7  O   UNL     1       7.041   4.292  18.587  0.00  0.00    +0.000 OA
ATOM      8  C   UNL     1       6.795   5.629  16.587  0.00  0.00    +0.000 C 
ATOM      9  O   UNL     1       6.381   6.995  16.431  0.00  0.00    +0.000 OA
ENDROOT
BRANCH   1  11
ATOM     10  O   UNL     1       7.974   5.446  14.166  0.00  0.00    +0.000 OA
ATOM     11  C   UNL     1       6.922   4.819  14.256  0.00  0.00    +0.000 C 
ATOM     12  N   UNL     1       6.438   4.007  13.254  0.00  0.00    +0.000 N 
ATOM     13  H   UNL     1       5.586   3.487  13.446  0.00  0.00    +0.000 HD
BRANCH  12  14
ATOM     14  C   UNL     1       7.125   3.831  11.992  0.00  0.00    +0.000 C 
BRANCH  14  15
ATOM     15  C   UNL     1       7.017   2.408  11.456  0.00  0.00    +0.000 C 
BRANCH  15  16
ATOM     16  C   UNL     1       5.592   1.871  11.455  0.00  0.00    +0.000 C 
BRANCH  16  17
ATOM     17  O   UNL     1       4.678   2.958  11.347  0.00  0.00    +0.000 OA
ATOM     18  H   UNL     1       5.187   3.779  11.459  0.00  0.00    +0.000 HD
ENDBRANCH  16  17
ENDBRANCH  15  16
ENDBRANCH  14  15
ENDBRANCH  12  14
ENDBRANCH   1  11
BRANCH   5  19
ATOM     19  C   UNL     1       4.595   5.152  19.690  0.00  0.00    +0.000 C 
BRANCH  19  20
ATOM     20  C   UNL     1       3.289   4.399  19.645  0.00  0.00    +0.000 A 
ATOM     21  C   UNL     1       3.179   3.206  18.915  0.00  0.00    +0.000 A 
ATOM     22  C   UNL     1       1.983   2.489  18.899  0.00  0.00    +0.000 A 
ATOM     23  C   UNL     1       0.884   2.949  19.622  0.00  0.00    +0.000 A 
ATOM     24  C   UNL     1       0.983   4.124  20.363  0.00  0.00    +0.000 A 
ATOM     25  C   UNL     1       2.178   4.847  20.375  0.00  0.00    +0.000 A 
ENDBRANCH  19  20
ENDBRANCH   5  19
TORSDOF 7
ENDMDL
MODEL 3
REMARK VINA RESULT:      -7.6      1.927      3.017
REMARK  Name = 
REMARK  7 active torsions:
REMARK  status: ('A' for Active; 'I' for Inactive)
REMARK    1  A    between atoms: C_2  and  C_8
REMARK    2  A    between atoms: N_3  and  C_4
REMARK    3  A    between atoms: C_4  and  C_5
REMARK    4  A    between atoms: C_5  and  C_6
REMARK    5  A    between atoms: C_6  and  O_7
REMARK    6  A    between atoms: N_12  and  C_13
REMARK    7  A    between atoms: C_13  and  C_14
REMARK                            x       y       z     vdW  Elec       q    Type
REMARK                         _______ _______ _______ _____ _____    ______ ____
ROOT
ATOM      1  C   UNL     1       5.978   5.385  15.621  0.00  0.00    +0.000 C 
ATOM      2  O   UNL     1       6.745   6.348  16.368  0.00  0.00    +0.000 OA
ATOM      3  C   UNL     1       7.035   5.694  17.612  0.00  0.00    +0.000 C 
ATOM      4  C   UNL     1       5.939   6.012  18.661  0.00  0.00    +0.000 C 
ATOM      5  N   UNL     1       4.669   5.306  18.409  0.00  0.00    +0.000 N 
ATOM      6  C   UNL     1       4.568   4.356  17.391  0.00  0.00    +0.000 C 
ATOM      7  O   UNL     1       3.540   3.731  17.146  0.00  0.00    +0.000 OA
ATOM      8  C   UNL     1       5.835   4.191  16.543  0.00  0.00    +0.000 C 
ATOM      9  O   UNL     1       7.008   4.288  17.367  0.00  0.00    +0.000 OA
ENDROOT
BRANCH   1  11
ATOM     10  O   UNL     1       7.744   5.356  13.970  0.00  0.00    +0.000 OA
ATOM     11  C   UNL     1       6.654   4.918  14.327  0.00  0.00    +0.000 C 
ATOM     12  N   UNL     1       5.928   4.006  13.593  0.00  0.00    +0.000 N 
ATOM     13  H   UNL     1       5.062   3.663  14.000  0.00  0.00    +0.000 HD
BRANCH  12  14
ATOM     14  C   UNL     1       6.383   3.492  12.318  0.00  0.00    +0.000 C 
BRANCH  14  15
ATOM     15  C   UNL     1       5.390   2.521  11.687  0.00  0.00    +0.000 C 
BRANCH  15  16
ATOM     16  C   UNL     1       6.046   1.254  11.153  0.00  0.00    +0.000 C 
BRANCH  16  17
ATOM     17  O   UNL     1       7.460   1.368  11.270  0.00  0.00    +0.000 OA
ATOM     18  H   UNL     1       7.748   0.743  11.957  0.00  0.00    +0.000 HD
ENDBRANCH  16  17
ENDBRANCH  15  16
ENDBRANCH  14  15
ENDBRANCH  12  14
ENDBRANCH   1  11
BRANCH   5  19
ATOM     19  C   UNL     1       3.568   5.489  19.348  0.00  0.00    +0.000 C 
BRANCH  19  20
ATOM     20  C   UNL     1       2.851   6.804  19.171  0.00  0.00    +0.000 A 
ATOM     21  C   UNL     1       2.906   7.486  17.946  0.00  0.00    +0.000 A 
ATOM     22  C   UNL     1       2.215   8.685  17.767  0.00  0.00    +0.000 A 
ATOM     23  C   UNL     1       1.451   9.211  18.807  0.00  0.00    +0.000 A 
ATOM     24  C   UNL     1       1.374   8.536  20.023  0.00  0.00    +0.000 A 
ATOM     25  C   UNL     1       2.070   7.339  20.206  0.00  0.00    +0.000 A 
ENDBRANCH  19  20
ENDBRANCH   5  19
TORSDOF 7
ENDMDL
MODEL 4
REMARK VINA RESULT:      -7.5      2.026      3.005
REMARK  Name = 
REMARK  7 active torsions:
REMARK  status: ('A' for Active; 'I' for Inactive)
REMARK    1  A    between atoms: C_2  and  C_8
REMARK    2  A    between atoms: N_3  and  C_4
REMARK    3  A    between atoms: C_4  and  C_5
REMARK    4  A    between atoms: C_5  and  C_6
REMARK    5  A    between atoms: C_6  and  O_7
REMARK    6  A    between atoms: N_12  and  C_13
REMARK    7  A    between atoms: C_13  and  C_14
REMARK                            x       y       z     vdW  Elec       q    Type
REMARK                         _______ _______ _______ _____ _____    ______ ____
ROOT
ATOM      1  C   UNL     1       5.913   5.399  16.065  0.00  0.00    +0.000 C 
ATOM      2  O   UNL     1       6.739   6.169  16.958  0.00  0.00    +0.000 OA
ATOM      3  C   UNL     1       6.838   5.367  18.143  0.00  0.00    +0.000 C 
ATOM      4  C   UNL     1       5.713   5.735  19.144  0.00  0.00    +0.000 C 
ATOM      5  N   UNL     1       4.385   5.242  18.736  0.00  0.00    +0.000 N 
ATOM      6  C   UNL     1       4.240   4.415  17.619  0.00  0.00    +0.000 C 
ATOM      7  O   UNL     1       3.162   3.967  17.243  0.00  0.00    +0.000 OA
ATOM      8  C   UNL     1       5.539   4.155  16.846  0.00  0.00    +0.000 C 
ATOM      9  O   UNL     1       6.644   4.007  17.751  0.00  0.00    +0.000 OA
ENDROOT
BRANCH   1  11
ATOM     10  O   UNL     1       7.740   5.380  14.481  0.00  0.00    +0.000 OA
ATOM     11  C   UNL     1       6.622   4.965  14.778  0.00  0.00    +0.000 C 
ATOM     12  N   UNL     1       5.895   4.112  13.976  0.00  0.00    +0.000 N 
ATOM     13  H   UNL     1       5.004   3.782  14.336  0.00  0.00    +0.000 HD
BRANCH  12  14
ATOM     14  C   UNL     1       6.382   3.639  12.697  0.00  0.00    +0.000 C 
BRANCH  14  15
ATOM     15  C   UNL     1       5.314   2.898  11.899  0.00  0.00    +0.000 C 
BRANCH  15  16
ATOM     16  C   UNL     1       5.826   1.616  11.256  0.00  0.00    +0.000 C 
BRANCH  16  17
ATOM     17  O   UNL     1       7.239   1.539  11.414  0.00  0.00    +0.000 OA
ATOM     18  H   UNL     1       7.420   0.890  12.115  0.00  0.00    +0.000 HD
ENDBRANCH  16  17
ENDBRANCH  15  16
ENDBRANCH  14  15
ENDBRANCH  12  14
ENDBRANCH   1  11
BRANCH   5  19
ATOM     19  C   UNL     1       3.246   5.489  19.614  0.00  0.00    +0.000 C 
BRANCH  19  20
ATOM     20  C   UNL     1       2.567   6.808  19.346  0.00  0.00    +0.000 A 
ATOM     21  C   UNL     1       1.861   7.465  20.365  0.00  0.00    +0.000 A 
ATOM     22  C   UNL     1       1.261   8.703  20.132  0.00  0.00    +0.000 A 
ATOM     23  C   UNL     1       1.369   9.305  18.880  0.00  0.00    +0.000 A 
ATOM     24  C   UNL     1       2.080   8.671  17.863  0.00  0.00    +0.000 A 
ATOM     25  C   UNL     1       2.676   7.429  18.094  0.00  0.00    +0.000 A 
ENDBRANCH  19  20
ENDBRANCH   5  19
TORSDOF 7
ENDMDL
MODEL 5
REMARK VINA RESULT:      -7.4      1.329      1.988
REMARK  Name = 
REMARK  7 active torsions:
REMARK  status: ('A' for Active; 'I' for Inactive)
REMARK    1  A    between atoms: C_2  and  C_8
REMARK    2  A    between atoms: N_3  and  C_4
REMARK    3  A    between atoms: C_4  and  C_5
REMARK    4  A    between atoms: C_5  and  C_6
REMARK    5  A    between atoms: C_6  and  O_7
REMARK    6  A    between atoms: N_12  and  C_13
REMARK    7  A    between atoms: C_13  and  C_14
REMARK                            x       y       z     vdW  Elec       q    Type
REMARK                         _______ _______ _______ _____ _____    ______ ____
ROOT
ATOM      1  C   UNL     1       6.088   5.509  15.695  0.00  0.00    +0.000 C 
ATOM      2  O   UNL     1       6.976   6.251  16.553  0.00  0.00    +0.000 OA
ATOM      3  C   UNL     1       7.036   5.482  17.763  0.00  0.00    +0.000 C 
ATOM      4  C   UNL     1       5.951   5.958  18.763  0.00  0.00    +0.000 C 
ATOM      5  N   UNL     1       4.588   5.542  18.386  0.00  0.00    +0.000 N 
ATOM      6  C   UNL     1       4.374   4.691  17.299  0.00  0.00    +0.000 C 
ATOM      7  O   UNL     1       3.263   4.305  16.949  0.00  0.00    +0.000 OA
ATOM      8  C   UNL     1       5.642   4.319  16.521  0.00  0.00    +0.000 C 
ATOM      9  O   UNL     1       6.746   4.127  17.419  0.00  0.00    +0.000 OA
ENDROOT
BRANCH   1  11
ATOM     10  O   UNL     1       7.844   5.398  14.036  0.00  0.00    +0.000 OA
ATOM     11  C   UNL     1       6.751   4.987  14.415  0.00  0.00    +0.000 C 
ATOM     12  N   UNL     1       6.009   4.058  13.718  0.00  0.00    +0.000 N 
ATOM     13  H   UNL     1       5.142   3.741  14.143  0.00  0.00    +0.000 HD
BRANCH  12  14
ATOM     14  C   UNL     1       6.450   3.493  12.460  0.00  0.00    +0.000 C 
BRANCH  14  15
ATOM     15  C   UNL     1       5.377   2.642  11.789  0.00  0.00    +0.000 C 
BRANCH  15  16
ATOM     16  C   UNL     1       5.922   1.355  11.183  0.00  0.00    +0.000 C 
BRANCH  16  17
ATOM     17  O   UNL     1       7.344   1.371  11.241  0.00  0.00    +0.000 OA
ATOM     18  H   UNL     1       7.630   2.296  11.154  0.00  0.00    +0.000 HD
ENDBRANCH  16  17
ENDBRANCH  15  16
ENDBRANCH  14  15
ENDBRANCH  12  14
ENDBRANCH   1  11
BRANCH   5  19
ATOM     19  C   UNL     1       3.479   5.893  19.266  0.00  0.00    +0.000 C 
BRANCH  19  20
ATOM     20  C   UNL     1       2.822   4.693  19.899  0.00  0.00    +0.000 A 
ATOM     21  C   UNL     1       3.596   3.706  20.529  0.00  0.00    +0.000 A 
ATOM     22  C   UNL     1       2.990   2.612  21.146  0.00  0.00    +0.000 A 
ATOM     23  C   UNL     1       1.602   2.495  21.152  0.00  0.00    +0.000 A 
ATOM     24  C   UNL     1       0.820   3.475  20.544  0.00  0.00    +0.000 A 
ATOM     25  C   UNL     1       1.426   4.569  19.920  0.00  0.00    +0.000 A 
ENDBRANCH  19  20
ENDBRANCH   5  19
TORSDOF 7
ENDMDL
MODEL 6
REMARK VINA RESULT:      -7.3      2.184      2.997
REMARK  Name = 
REMARK  7 active torsions:
REMARK  status: ('A' for Active; 'I' for Inactive)
REMARK    1  A    between atoms: C_2  and  C_8
REMARK    2  A    between atoms: N_3  and  C_4
REMARK    3  A    between atoms: C_4  and  C_5
REMARK    4  A    between atoms: C_5  and  C_6
REMARK    5  A    between atoms: C_6  and  O_7
REMARK    6  A    between atoms: N_12  and  C_13
REMARK    7  A    between atoms: C_13  and  C_14
REMARK                            x       y       z     vdW  Elec       q    Type
REMARK                         _______ _______ _______ _____ _____    ______ ____
ROOT
ATOM      1  C   UNL     1       5.814   5.347  15.664  0.00  0.00    +0.000 C 
ATOM      2  O   UNL     1       6.467   6.407  16.389  0.00  0.00    +0.000 OA
ATOM      3  C   UNL     1       6.780   5.833  17.666  0.00  0.00    +0.000 C 
ATOM      4  C   UNL     1       5.629   6.089  18.673  0.00  0.00    +0.000 C 
ATOM      5  N   UNL     1       4.438   5.259  18.420  0.00  0.00    +0.000 N 
ATOM      6  C   UNL     1       4.454   4.263  17.441  0.00  0.00    +0.000 C 
ATOM      7  O   UNL     1       3.495   3.536  17.197  0.00  0.00    +0.000 OA
ATOM      8  C   UNL     1       5.755   4.183  16.633  0.00  0.00    +0.000 C 
ATOM      9  O   UNL     1       6.890   4.422  17.481  0.00  0.00    +0.000 OA
ENDROOT
BRANCH   1  11
ATOM     10  O   UNL     1       7.673   5.342  14.118  0.00  0.00    +0.000 OA
ATOM     11  C   UNL     1       6.567   4.893  14.410  0.00  0.00    +0.000 C 
ATOM     12  N   UNL     1       5.892   3.980  13.629  0.00  0.00    +0.000 N 
ATOM     13  H   UNL     1       5.007   3.628  13.984  0.00  0.00    +0.000 HD
BRANCH  12  14
ATOM     14  C   UNL     1       6.424   3.478  12.380  0.00  0.00    +0.000 C 
BRANCH  14  15
ATOM     15  C   UNL     1       5.393   2.695  11.574  0.00  0.00    +0.000 C 
BRANCH  15  16
ATOM     16  C   UNL     1       4.000   3.308  11.622  0.00  0.00    +0.000 C 
BRANCH  16  17
ATOM     17  O   UNL     1       3.424   3.277  10.321  0.00  0.00    +0.000 OA
ATOM     18  H   UNL     1       2.867   2.481  10.266  0.00  0.00    +0.000 HD
ENDBRANCH  16  17
ENDBRANCH  15  16
ENDBRANCH  14  15
ENDBRANCH  12  14
ENDBRANCH   1  11
BRANCH   5  19
ATOM     19  C   UNL     1       3.298   5.376  19.322  0.00  0.00    +0.000 C 
BRANCH  19  20
ATOM     20  C   UNL     1       2.597   6.707  19.222  0.00  0.00    +0.000 A 
ATOM     21  C   UNL     1       2.037   7.305  20.361  0.00  0.00    +0.000 A 
ATOM     22  C   UNL     1       1.418   8.553  20.279  0.00  0.00    +0.000 A 
ATOM     23  C   UNL     1       1.362   9.225  19.059  0.00  0.00    +0.000 A 
ATOM     24  C   UNL     1       1.927   8.650  17.923  0.00  0.00    +0.000 A 
ATOM     25  C   UNL     1       2.542   7.398  18.002  0.00  0.00    +0.000 A 
ENDBRANCH  19  20
ENDBRANCH   5  19
TORSDOF 7
ENDMDL
MODEL 7
REMARK VINA RESULT:      -7.3      1.229      1.559
REMARK  Name = 
REMARK  7 active torsions:
REMARK  status: ('A' for Active; 'I' for Inactive)
REMARK    1  A    between atoms: C_2  and  C_8
REMARK    2  A    between atoms: N_3  and  C_4
REMARK    3  A    between atoms: C_4  and  C_5
REMARK    4  A    between atoms: C_5  and  C_6
REMARK    5  A    between atoms: C_6  and  O_7
REMARK    6  A    between atoms: N_12  and  C_13
REMARK    7  A    between atoms: C_13  and  C_14
REMARK                            x       y       z     vdW  Elec       q    Type
REMARK                         _______ _______ _______ _____ _____    ______ ____
ROOT
ATOM      1  C   UNL     1       5.649   5.171  16.376  0.00  0.00    +0.000 C 
ATOM      2  O   UNL     1       4.743   6.138  15.811  0.00  0.00    +0.000 OA
ATOM      3  C   UNL     1       4.802   7.257  16.708  0.00  0.00    +0.000 C 
ATOM      4  C   UNL     1       3.713   7.133  17.804  0.00  0.00    +0.000 C 
ATOM      5  N   UNL     1       4.020   6.108  18.818  0.00  0.00    +0.000 N 
ATOM      6  C   UNL     1       5.249   5.443  18.814  0.00  0.00    +0.000 C 
ATOM      7  O   UNL     1       5.560   4.591  19.641  0.00  0.00    +0.000 OA
ATOM      8  C   UNL     1       6.171   5.812  17.646  0.00  0.00    +0.000 C 
ATOM      9  O   UNL     1       6.075   7.215  17.353  0.00  0.00    +0.000 OA
ENDROOT
BRANCH   1  11
ATOM     10  O   UNL     1       7.905   4.422  15.935  0.00  0.00    +0.000 OA
ATOM     11  C   UNL     1       6.844   4.838  15.477  0.00  0.00    +0.000 C 
ATOM     12  N   UNL     1       6.643   5.078  14.135  0.00  0.00    +0.000 N 
ATOM     13  H   UNL     1       5.712   5.368  13.848  0.00  0.00    +0.000 HD
BRANCH  12  14
ATOM     14  C   UNL     1       7.676   4.873  13.142  0.00  0.00    +0.000 C 
BRANCH  14  15
ATOM     15  C   UNL     1       7.195   4.050  11.952  0.00  0.00    +0.000 C 
BRANCH  15  16
ATOM     16  C   UNL     1       5.910   3.280  12.234  0.00  0.00    +0.000 C 
BRANCH  16  17
ATOM     17  O   UNL     1       6.048   1.944  11.765  0.00  0.00    +0.000 OA
ATOM     18  H   UNL     1       6.823   1.918  11.178  0.00  0.00    +0.000 HD
ENDBRANCH  16  17
ENDBRANCH  15  16
ENDBRANCH  14  15
ENDBRANCH  12  14
ENDBRANCH   1  11
BRANCH   5  19
ATOM     19  C   UNL     1       3.092   5.920  19.927  0.00  0.00    +0.000 C 
BRANCH  19  20
ATOM     20  C   UNL     1       2.260   4.669  19.798  0.00  0.00    +0.000 A 
ATOM     21  C   UNL     1       1.839   4.221  18.537  0.00  0.00    +0.000 A 
ATOM     22  C   UNL     1       1.099   3.045  18.411  0.00  0.00    +0.000 A 
ATOM     23  C   UNL     1       0.780   2.296  19.541  0.00  0.00    +0.000 A 
ATOM     24  C   UNL     1       1.204   2.722  20.798  0.00  0.00    +0.000 A 
ATOM     25  C   UNL     1       1.940   3.902  20.928  0.00  0.00    +0.000 A 
ENDBRANCH  19  20
ENDBRANCH   5  19
TORSDOF 7
ENDMDL
MODEL 8
REMARK VINA RESULT:      -7.2      2.215      3.264
REMARK  Name = 
REMARK  7 active torsions:
REMARK  status: ('A' for Active; 'I' for Inactive)
REMARK    1  A    between atoms: C_2  and  C_8
REMARK    2  A    between atoms: N_3  and  C_4
REMARK    3  A    between atoms: C_4  and  C_5
REMARK    4  A    between atoms: C_5  and  C_6
REMARK    5  A    between atoms: C_6  and  O_7
REMARK    6  A    between atoms: N_12  and  C_13
REMARK    7  A    between atoms: C_13  and  C_14
REMARK                            x       y       z     vdW  Elec       q    Type
REMARK                         _______ _______ _______ _____ _____    ______ ____
ROOT
ATOM      1  C   UNL     1       5.891   5.398  16.092  0.00  0.00    +0.000 C 
ATOM      2  O   UNL     1       6.664   6.201  17.006  0.00  0.00    +0.000 OA
ATOM      3  C   UNL     1       6.731   5.419  18.208  0.00  0.00    +0.000 C 
ATOM      4  C   UNL     1       5.558   5.779  19.155  0.00  0.00    +0.000 C 
ATOM      5  N   UNL     1       4.259   5.252  18.702  0.00  0.00    +0.000 N 
ATOM      6  C   UNL     1       4.177   4.404  17.594  0.00  0.00    +0.000 C 
ATOM      7  O   UNL     1       3.124   3.928  17.181  0.00  0.00    +0.000 OA
ATOM      8  C   UNL     1       5.511   4.159  16.879  0.00  0.00    +0.000 C 
ATOM      9  O   UNL     1       6.581   4.050  17.831  0.00  0.00    +0.000 OA
ENDROOT
BRANCH   1  11
ATOM     10  O   UNL     1       7.804   5.349  14.614  0.00  0.00    +0.000 OA
ATOM     11  C   UNL     1       6.662   4.959  14.843  0.00  0.00    +0.000 C 
ATOM     12  N   UNL     1       5.961   4.133  13.992  0.00  0.00    +0.000 N 
ATOM     13  H   UNL     1       5.042   3.822  14.297  0.00  0.00    +0.000 HD
BRANCH  12  14
ATOM     14  C   UNL     1       6.507   3.660  12.738  0.00  0.00    +0.000 C 
BRANCH  14  15
ATOM     15  C   UNL     1       5.513   2.820  11.942  0.00  0.00    +0.000 C 
BRANCH  15  16
ATOM     16  C   UNL     1       4.224   3.563  11.616  0.00  0.00    +0.000 C 
BRANCH  16  17
ATOM     17  O   UNL     1       3.519   2.860  10.599  0.00  0.00    +0.000 OA
ATOM     18  H   UNL     1       3.549   3.404   9.793  0.00  0.00    +0.000 HD
ENDBRANCH  16  17
ENDBRANCH  15  16
ENDBRANCH  14  15
ENDBRANCH  12  14
ENDBRANCH   1  11
BRANCH   5  19
ATOM     19  C   UNL     1       3.080   5.488  19.528  0.00  0.00    +0.000 C 
BRANCH  19  20
ATOM     20  C   UNL     1       2.481   6.857  19.328  0.00  0.00    +0.000 A 
ATOM     21  C   UNL     1       2.496   7.463  18.062  0.00  0.00    +0.000 A 
ATOM     22  C   UNL     1       1.912   8.715  17.865  0.00  0.00    +0.000 A 
ATOM     23  C   UNL     1       1.295   9.371  18.928  0.00  0.00    +0.000 A 
ATOM     24  C   UNL     1       1.258   8.774  20.186  0.00  0.00    +0.000 A 
ATOM     25  C   UNL     1       1.848   7.524  20.387  0.00  0.00    +0.000 A 
ENDBRANCH  19  20
ENDBRANCH   5  19
TORSDOF 7
ENDMDL
MODEL 9
REMARK VINA RESULT:      -7.2      1.507      2.168
REMARK  Name = 
REMARK  7 active torsions:
REMARK  status: ('A' for Active; 'I' for Inactive)
REMARK    1  A    between atoms: C_2  and  C_8
REMARK    2  A    between atoms: N_3  and  C_4
REMARK    3  A    between atoms: C_4  and  C_5
REMARK    4  A    between atoms: C_5  and  C_6
REMARK    5  A    between atoms: C_6  and  O_7
REMARK    6  A    between atoms: N_12  and  C_13
REMARK    7  A    between atoms: C_13  and  C_14
REMARK                            x       y       z     vdW  Elec       q    Type
REMARK                         _______ _______ _______ _____ _____    ______ ____
ROOT
ATOM      1  C   UNL     1       6.310   5.407  15.538  0.00  0.00    +0.000 C 
ATOM      2  O   UNL     1       7.269   6.051  16.398  0.00  0.00    +0.000 OA
ATOM      3  C   UNL     1       7.294   5.242  17.583  0.00  0.00    +0.000 C 
ATOM      4  C   UNL     1       6.269   5.767  18.621  0.00  0.00    +0.000 C 
ATOM      5  N   UNL     1       4.871   5.469  18.262  0.00  0.00    +0.000 N 
ATOM      6  C   UNL     1       4.570   4.671  17.155  0.00  0.00    +0.000 C 
ATOM      7  O   UNL     1       3.426   4.382  16.818  0.00  0.00    +0.000 OA
ATOM      8  C   UNL     1       5.791   4.229  16.338  0.00  0.00    +0.000 C 
ATOM      9  O   UNL     1       6.895   3.925  17.205  0.00  0.00    +0.000 OA
ENDROOT
BRANCH   1  11
ATOM     10  O   UNL     1       7.899   5.384  13.715  0.00  0.00    +0.000 OA
ATOM     11  C   UNL     1       6.905   4.877  14.229  0.00  0.00    +0.000 C 
ATOM     12  N   UNL     1       6.218   3.823  13.667  0.00  0.00    +0.000 N 
ATOM     13  H   UNL     1       5.440   3.438  14.197  0.00  0.00    +0.000 HD
BRANCH  12  14
ATOM     14  C   UNL     1       6.601   3.226  12.405  0.00  0.00    +0.000 C 
BRANCH  14  15
ATOM     15  C   UNL     1       5.427   2.575  11.682  0.00  0.00    +0.000 C 
BRANCH  15  16
ATOM     16  C   UNL     1       4.237   3.509  11.505  0.00  0.00    +0.000 C 
BRANCH  16  17
ATOM     17  O   UNL     1       3.289   2.906  10.631  0.00  0.00    +0.000 OA
ATOM     18  H   UNL     1       2.542   3.522  10.539  0.00  0.00    +0.000 HD
ENDBRANCH  16  17
ENDBRANCH  15  16
ENDBRANCH  14  15
ENDBRANCH  12  14
ENDBRANCH   1  11
BRANCH   5  19
ATOM     19  C   UNL     1       3.811   5.875  19.177  0.00  0.00    +0.000 C 
BRANCH  19  20
ATOM     20  C   UNL     1       3.063   4.709  19.773  0.00  0.00    +0.000 A 
ATOM     21  C   UNL     1       3.759   3.609  20.297  0.00  0.00    +0.000 A 
ATOM     22  C   UNL     1       3.071   2.544  20.880  0.00  0.00    +0.000 A 
ATOM     23  C   UNL     1       1.680   2.569  20.957  0.00  0.00    +0.000 A 
ATOM     24  C   UNL     1       0.977   3.662  20.454  0.00  0.00    +0.000 A 
ATOM     25  C   UNL     1       1.663   4.727  19.864  0.00  0.00    +0.000 A 
ENDBRANCH  19  20
ENDBRANCH   5  19
TORSDOF 7
ENDMDL
