MODEL 1
REMARK VINA RESULT:      -7.9      0.000      0.000
REMARK  Name = 
REMARK  6 active torsions:
REMARK  status: ('A' for Active; 'I' for Inactive)
REMARK    1  A    between atoms: C_2  and  C_3
REMARK    2  A    between atoms: C_3  and  N_4
REMARK    3  A    between atoms: N_7  and  C_8
REMARK    4  A    between atoms: N_19  and  C_20
REMARK    5  A    between atoms: C_23  and  O_24
REMARK    6  A    between atoms: O_24  and  C_25
REMARK                            x       y       z     vdW  Elec       q    Type
REMARK                         _______ _______ _______ _____ _____    ______ ____
ROOT
ATOM      1  C   UNL     1       2.604   6.882  19.678  0.00  0.00    +0.000 C 
ENDROOT
BRANCH   1   2
ATOM      2  N   UNL     1       1.886   8.089  19.306  0.00  0.00    +0.000 N 
ATOM      3  C   UNL     1       2.133   8.868  18.112  0.00  0.00    +0.000 C 
ATOM      4  C   UNL     1       0.931   9.806  18.082  0.00  0.00    +0.000 C 
ATOM      5  N   UNL     1       0.584   9.926  19.480  0.00  0.00    +0.000 N 
ATOM      6  C   UNL     1       1.079   8.807  20.186  0.00  0.00    +0.000 C 
ATOM      7  O   UNL     1       0.859   8.473  21.343  0.00  0.00    +0.000 OA
BRANCH   5   8
ATOM      8  C   UNL     1      -0.249  10.930  20.014  0.00  0.00    +0.000 A 
ATOM      9  C   UNL     1      -1.459  11.253  19.357  0.00  0.00    +0.000 A 
ATOM     10  C   UNL     1      -2.316  12.243  19.844  0.00  0.00    +0.000 A 
ATOM     11  C   UNL     1      -1.929  12.915  20.976  0.00  0.00    +0.000 A 
ATOM     12  C   UNL     1      -0.760  12.609  21.633  0.00  0.00    +0.000 A 
ATOM     13  C   UNL     1       0.088  11.607  21.194  0.00  0.00    +0.000 A 
ATOM     14  O   UNL     1      -0.557  13.409  22.716  0.00  0.00    +0.000 OA
ATOM     15  C   UNL     1      -1.691  14.299  22.612  0.00  0.00    +0.000 C 
ATOM     16  O   UNL     1      -2.611  13.931  21.567  0.00  0.00    +0.000 OA
ENDBRANCH   5   8
ENDBRANCH   1   2
BRANCH   1  18
ATOM     17  O   UNL     1       2.052   5.445  17.822  0.00  0.00    +0.000 OA
ATOM     18  C   UNL     1       2.936   6.004  18.466  0.00  0.00    +0.000 C 
ATOM     19  N   UNL     1       4.288   5.956  18.158  0.00  0.00    +0.000 N 
ATOM     20  H   UNL     1       4.941   6.284  18.858  0.00  0.00    +0.000 HD
BRANCH  19  21
ATOM     21  C   UNL     1       4.842   5.349  17.008  0.00  0.00    +0.000 A 
ATOM     22  C   UNL     1       5.263   6.072  15.890  0.00  0.00    +0.000 A 
ATOM     23  C   UNL     1       5.847   5.423  14.800  0.00  0.00    +0.000 A 
ATOM     24  C   UNL     1       6.031   4.042  14.811  0.00  0.00    +0.000 A 
ATOM     25  C   UNL     1       5.559   3.307  15.897  0.00  0.00    +0.000 A 
ATOM     26  C   UNL     1       4.995   3.960  17.002  0.00  0.00    +0.000 A 
BRANCH  24  27
ATOM     27  O   UNL     1       6.611   3.531  13.693  0.00  0.00    +0.000 OA
BRANCH  27  28
ATOM     28  C   UNL     1       5.863   3.471  12.487  0.00  0.00    +0.000 C 
ATOM     29  F   UNL     1       4.569   3.834  12.611  0.00  0.00    +0.000 F 
ATOM     30  F   UNL     1       6.447   4.271  11.570  0.00  0.00    +0.000 F 
ATOM     31  F   UNL     1       5.894   2.204  12.020  0.00  0.00    +0.000 F 
ENDBRANCH  27  28
ENDBRANCH  24  27
ENDBRANCH  19  21
ENDBRANCH   1  18
TORSDOF 6
ENDMDL
MODEL 2
REMARK VINA RESULT:      -7.6      4.346      6.443
REMARK  Name = 
REMARK  6 active torsions:
REMARK  status: ('A' for Active; 'I' for Inactive)
REMARK    1  A    between atoms: C_2  and  C_3
REMARK    2  A    between atoms: C_3  and  N_4
REMARK    3  A    between atoms: N_7  and  C_8
REMARK    4  A    between atoms: N_19  and  C_20
REMARK    5  A    between atoms: C_23  and  O_24
REMARK    6  A    between atoms: O_24  and  C_25
REMARK                            x       y       z     vdW  Elec       q    Type
REMARK                         _______ _______ _______ _____ _____    ______ ____
ROOT
ATOM      1  C   UNL     1       0.012  13.471  18.358  0.00  0.00    +0.000 C 
ENDROOT
BRANCH   1   2
ATOM      2  N   UNL     1      -0.731  13.885  19.537  0.00  0.00    +0.000 N 
ATOM      3  C   UNL     1      -0.295  14.886  20.485  0.00  0.00    +0.000 C 
ATOM      4  C   UNL     1      -1.554  15.124  21.310  0.00  0.00    +0.000 C 
ATOM      5  N   UNL     1      -2.242  13.856  21.214  0.00  0.00    +0.000 N 
ATOM      6  C   UNL     1      -1.806  13.169  20.060  0.00  0.00    +0.000 C 
ATOM      7  O   UNL     1      -2.259  12.148  19.559  0.00  0.00    +0.000 OA
BRANCH   5   8
ATOM      8  C   UNL     1      -3.292  13.450  22.063  0.00  0.00    +0.000 A 
ATOM      9  C   UNL     1      -2.995  12.987  23.366  0.00  0.00    +0.000 A 
ATOM     10  C   UNL     1      -4.000  12.571  24.243  0.00  0.00    +0.000 A 
ATOM     11  C   UNL     1      -5.293  12.600  23.784  0.00  0.00    +0.000 A 
ATOM     12  C   UNL     1      -5.601  13.054  22.523  0.00  0.00    +0.000 A 
ATOM     13  C   UNL     1      -4.630  13.509  21.649  0.00  0.00    +0.000 A 
ATOM     14  O   UNL     1      -6.936  12.978  22.263  0.00  0.00    +0.000 OA
ATOM     15  C   UNL     1      -7.412  12.351  23.475  0.00  0.00    +0.000 C 
ATOM     16  O   UNL     1      -6.389  12.196  24.478  0.00  0.00    +0.000 OA
ENDBRANCH   5   8
ENDBRANCH   1   2
BRANCH   1  18
ATOM     17  O   UNL     1       2.128  12.556  19.067  0.00  0.00    +0.000 OA
ATOM     18  C   UNL     1       0.991  12.330  18.657  0.00  0.00    +0.000 C 
ATOM     19  N   UNL     1       0.456  11.064  18.471  0.00  0.00    +0.000 N 
ATOM     20  H   UNL     1      -0.409  10.992  17.950  0.00  0.00    +0.000 HD
BRANCH  19  21
ATOM     21  C   UNL     1       1.091   9.850  18.820  0.00  0.00    +0.000 A 
ATOM     22  C   UNL     1       1.002   9.279  20.090  0.00  0.00    +0.000 A 
ATOM     23  C   UNL     1       1.612   8.053  20.364  0.00  0.00    +0.000 A 
ATOM     24  C   UNL     1       2.312   7.371  19.371  0.00  0.00    +0.000 A 
ATOM     25  C   UNL     1       2.456   7.963  18.118  0.00  0.00    +0.000 A 
ATOM     26  C   UNL     1       1.824   9.182  17.835  0.00  0.00    +0.000 A 
BRANCH  24  27
ATOM     27  O   UNL     1       2.857   6.189  19.763  0.00  0.00    +0.000 OA
BRANCH  27  28
ATOM     28  C   UNL     1       2.087   4.999  19.658  0.00  0.00    +0.000 C 
ATOM     29  F   UNL     1       1.034   4.936  20.499  0.00  0.00    +0.000 F 
ATOM     30  F   UNL     1       1.633   4.883  18.391  0.00  0.00    +0.000 F 
ATOM     31  F   UNL     1       2.887   3.940  19.916  0.00  0.00    +0.000 F 
ENDBRANCH  27  28
ENDBRANCH  24  27
ENDBRANCH  19  21
ENDBRANCH   1  18
TORSDOF 6
ENDMDL
MODEL 3
REMARK VINA RESULT:      -7.6      3.626      5.297
REMARK  Name = 
REMARK  6 active torsions:
REMARK  status: ('A' for Active; 'I' for Inactive)
REMARK    1  A    between atoms: C_2  and  C_3
REMARK    2  A    between atoms: C_3  and  N_4
REMARK    3  A    between atoms: N_7  and  C_8
REMARK    4  A    between atoms: N_19  and  C_20
REMARK    5  A    between atoms: C_23  and  O_24
REMARK    6  A    between atoms: O_24  and  C_25
REMARK                            x       y       z     vdW  Elec       q    Type
REMARK                         _______ _______ _______ _____ _____    ______ ____
ROOT
ATOM      1  C   UNL     1       1.196  10.423  21.541  0.00  0.00    +0.000 C 
ENDROOT
BRANCH   1   2
ATOM      2  N   UNL     1       0.043  11.304  21.472  0.00  0.00    +0.000 N 
ATOM      3  C   UNL     1       0.010  12.578  20.788  0.00  0.00    +0.000 C 
ATOM      4  C   UNL     1      -1.478  12.906  20.781  0.00  0.00    +0.000 C 
ATOM      5  N   UNL     1      -1.961  12.222  21.960  0.00  0.00    +0.000 N 
ATOM      6  C   UNL     1      -1.075  11.175  22.294  0.00  0.00    +0.000 C 
ATOM      7  O   UNL     1      -1.218  10.285  23.123  0.00  0.00    +0.000 OA
BRANCH   5   8
ATOM      8  C   UNL     1      -3.203  12.475  22.578  0.00  0.00    +0.000 A 
ATOM      9  C   UNL     1      -3.273  12.569  23.987  0.00  0.00    +0.000 A 
ATOM     10  C   UNL     1      -4.481  12.814  24.646  0.00  0.00    +0.000 A 
ATOM     11  C   UNL     1      -5.610  12.935  23.875  0.00  0.00    +0.000 A 
ATOM     12  C   UNL     1      -5.559  12.855  22.503  0.00  0.00    +0.000 A 
ATOM     13  C   UNL     1      -4.371  12.652  21.824  0.00  0.00    +0.000 A 
ATOM     14  O   UNL     1      -6.792  12.979  21.937  0.00  0.00    +0.000 OA
ATOM     15  C   UNL     1      -7.623  13.066  23.116  0.00  0.00    +0.000 C 
ATOM     16  O   UNL     1      -6.871  13.133  24.343  0.00  0.00    +0.000 OA
ENDBRANCH   5   8
ENDBRANCH   1   2
BRANCH   1  18
ATOM     17  O   UNL     1       0.452   9.319  19.530  0.00  0.00    +0.000 OA
ATOM     18  C   UNL     1       1.077   9.231  20.585  0.00  0.00    +0.000 C 
ATOM     19  N   UNL     1       1.770   8.103  20.999  0.00  0.00    +0.000 N 
ATOM     20  H   UNL     1       2.082   8.071  21.962  0.00  0.00    +0.000 HD
BRANCH  19  21
ATOM     21  C   UNL     1       1.950   6.928  20.235  0.00  0.00    +0.000 A 
ATOM     22  C   UNL     1       2.580   6.916  18.989  0.00  0.00    +0.000 A 
ATOM     23  C   UNL     1       2.772   5.717  18.299  0.00  0.00    +0.000 A 
ATOM     24  C   UNL     1       2.349   4.508  18.846  0.00  0.00    +0.000 A 
ATOM     25  C   UNL     1       1.667   4.519  20.062  0.00  0.00    +0.000 A 
ATOM     26  C   UNL     1       1.494   5.718  20.766  0.00  0.00    +0.000 A 
BRANCH  24  27
ATOM     27  O   UNL     1       2.595   3.413  18.079  0.00  0.00    +0.000 OA
BRANCH  27  28
ATOM     28  C   UNL     1       3.077   2.227  18.695  0.00  0.00    +0.000 C 
ATOM     29  F   UNL     1       4.013   2.428  19.647  0.00  0.00    +0.000 F 
ATOM     30  F   UNL     1       2.037   1.568  19.248  0.00  0.00    +0.000 F 
ATOM     31  F   UNL     1       3.619   1.434  17.744  0.00  0.00    +0.000 F 
ENDBRANCH  27  28
ENDBRANCH  24  27
ENDBRANCH  19  21
ENDBRANCH   1  18
TORSDOF 6
ENDMDL
MODEL 4
REMARK VINA RESULT:      -7.6      1.162      1.625
REMARK  Name = 
REMARK  6 active torsions:
REMARK  status: ('A' for Active; 'I' for Inactive)
REMARK    1  A    between atoms: C_2  and  C_3
REMARK    2  A    between atoms: C_3  and  N_4
REMARK    3  A    between atoms: N_7  and  C_8
REMARK    4  A    between atoms: N_19  and  C_20
REMARK    5  A    between atoms: C_23  and  O_24
REMARK    6  A    between atoms: O_24  and  C_25
REMARK                            x       y       z     vdW  Elec       q    Type
REMARK                         _______ _______ _______ _____ _____    ______ ____
ROOT
ATOM      1  C   UNL     1       2.467   6.753  19.748  0.00  0.00    +0.000 C 
ENDROOT
BRANCH   1   2
ATOM      2  N   UNL     1       1.922   7.996  19.228  0.00  0.00    +0.000 N 
ATOM      3  C   UNL     1       2.195   8.537  17.915  0.00  0.00    +0.000 C 
ATOM      4  C   UNL     1       1.159   9.650  17.800  0.00  0.00    +0.000 C 
ATOM      5  N   UNL     1       0.947  10.031  19.178  0.00  0.00    +0.000 N 
ATOM      6  C   UNL     1       1.312   8.962  20.025  0.00  0.00    +0.000 C 
ATOM      7  O   UNL     1       1.134   8.845  21.230  0.00  0.00    +0.000 OA
BRANCH   5   8
ATOM      8  C   UNL     1       0.328  11.230  19.589  0.00  0.00    +0.000 A 
ATOM      9  C   UNL     1      -0.916  11.178  20.257  0.00  0.00    +0.000 A 
ATOM     10  C   UNL     1      -1.571  12.337  20.681  0.00  0.00    +0.000 A 
ATOM     11  C   UNL     1      -0.972  13.540  20.400  0.00  0.00    +0.000 A 
ATOM     12  C   UNL     1       0.242  13.610  19.758  0.00  0.00    +0.000 A 
ATOM     13  C   UNL     1       0.929  12.476  19.363  0.00  0.00    +0.000 A 
ATOM     14  O   UNL     1       0.643  14.897  19.560  0.00  0.00    +0.000 OA
ATOM     15  C   UNL     1      -0.497  15.618  20.079  0.00  0.00    +0.000 C 
ATOM     16  O   UNL     1      -1.479  14.766  20.697  0.00  0.00    +0.000 OA
ENDBRANCH   5   8
ENDBRANCH   1   2
BRANCH   1  18
ATOM     17  O   UNL     1       2.135   4.995  18.131  0.00  0.00    +0.000 OA
ATOM     18  C   UNL     1       2.915   5.801  18.634  0.00  0.00    +0.000 C 
ATOM     19  N   UNL     1       4.231   5.979  18.234  0.00  0.00    +0.000 N 
ATOM     20  H   UNL     1       4.835   6.523  18.838  0.00  0.00    +0.000 HD
BRANCH  19  21
ATOM     21  C   UNL     1       4.843   5.342  17.131  0.00  0.00    +0.000 A 
ATOM     22  C   UNL     1       5.089   3.969  17.081  0.00  0.00    +0.000 A 
ATOM     23  C   UNL     1       5.655   3.388  15.944  0.00  0.00    +0.000 A 
ATOM     24  C   UNL     1       5.975   4.165  14.833  0.00  0.00    +0.000 A 
ATOM     25  C   UNL     1       5.788   5.545  14.899  0.00  0.00    +0.000 A 
ATOM     26  C   UNL     1       5.198   6.126  16.029  0.00  0.00    +0.000 A 
BRANCH  24  27
ATOM     27  O   UNL     1       6.517   3.482  13.791  0.00  0.00    +0.000 OA
BRANCH  27  28
ATOM     28  C   UNL     1       5.868   3.512  12.527  0.00  0.00    +0.000 C 
ATOM     29  F   UNL     1       6.391   4.391  11.648  0.00  0.00    +0.000 F 
ATOM     30  F   UNL     1       5.917   2.278  11.981  0.00  0.00    +0.000 F 
ATOM     31  F   UNL     1       4.569   3.837  12.715  0.00  0.00    +0.000 F 
ENDBRANCH  27  28
ENDBRANCH  24  27
ENDBRANCH  19  21
ENDBRANCH   1  18
TORSDOF 6
ENDMDL
MODEL 5
REMARK VINA RESULT:      -7.6      2.113      3.106
REMARK  Name = 
REMARK  6 active torsions:
REMARK  status: ('A' for Active; 'I' for Inactive)
REMARK    1  A    between atoms: C_2  and  C_3
REMARK    2  A    between atoms: C_3  and  N_4
REMARK    3  A    between atoms: N_7  and  C_8
REMARK    4  A    between atoms: N_19  and  C_20
REMARK    5  A    between atoms: C_23  and  O_24
REMARK    6  A    between atoms: O_24  and  C_25
REMARK                            x       y       z     vdW  Elec       q    Type
REMARK                         _______ _______ _______ _____ _____    ______ ____
ROOT
ATOM      1  C   UNL     1       1.344   8.109  21.585  0.00  0.00    +0.000 C 
ENDROOT
BRANCH   1   2
ATOM      2  N   UNL     1       0.533   9.298  21.386  0.00  0.00    +0.000 N 
ATOM      3  C   UNL     1       0.401  10.014  20.136  0.00  0.00    +0.000 C 
ATOM      4  C   UNL     1      -0.765  10.953  20.421  0.00  0.00    +0.000 C 
ATOM      5  N   UNL     1      -0.678  11.145  21.851  0.00  0.00    +0.000 N 
ATOM      6  C   UNL     1       0.019  10.063  22.431  0.00  0.00    +0.000 C 
ATOM      7  O   UNL     1       0.160   9.789  23.616  0.00  0.00    +0.000 OA
BRANCH   5   8
ATOM      8  C   UNL     1      -1.325  12.179  22.560  0.00  0.00    +0.000 A 
ATOM      9  C   UNL     1      -2.609  11.951  23.106  0.00  0.00    +0.000 A 
ATOM     10  C   UNL     1      -3.292  12.943  23.813  0.00  0.00    +0.000 A 
ATOM     11  C   UNL     1      -2.681  14.166  23.937  0.00  0.00    +0.000 A 
ATOM     12  C   UNL     1      -1.430  14.404  23.420  0.00  0.00    +0.000 A 
ATOM     13  C   UNL     1      -0.715  13.427  22.750  0.00  0.00    +0.000 A 
ATOM     14  O   UNL     1      -1.021  15.685  23.635  0.00  0.00    +0.000 OA
ATOM     15  C   UNL     1      -2.193  16.238  24.274  0.00  0.00    +0.000 C 
ATOM     16  O   UNL     1      -3.210  15.257  24.552  0.00  0.00    +0.000 OA
ENDBRANCH   5   8
ENDBRANCH   1   2
BRANCH   1  18
ATOM     17  O   UNL     1       2.021   8.274  19.276  0.00  0.00    +0.000 OA
ATOM     18  C   UNL     1       1.905   7.559  20.268  0.00  0.00    +0.000 C 
ATOM     19  N   UNL     1       2.299   6.231  20.334  0.00  0.00    +0.000 N 
ATOM     20  H   UNL     1       1.981   5.685  21.126  0.00  0.00    +0.000 HD
BRANCH  19  21
ATOM     21  C   UNL     1       2.985   5.531  19.315  0.00  0.00    +0.000 A 
ATOM     22  C   UNL     1       2.335   4.864  18.275  0.00  0.00    +0.000 A 
ATOM     23  C   UNL     1       3.065   4.228  17.269  0.00  0.00    +0.000 A 
ATOM     24  C   UNL     1       4.458   4.256  17.279  0.00  0.00    +0.000 A 
ATOM     25  C   UNL     1       5.115   4.867  18.345  0.00  0.00    +0.000 A 
ATOM     26  C   UNL     1       4.382   5.527  19.342  0.00  0.00    +0.000 A 
BRANCH  24  27
ATOM     27  O   UNL     1       5.052   3.602  16.245  0.00  0.00    +0.000 OA
BRANCH  27  28
ATOM     28  C   UNL     1       5.816   4.342  15.302  0.00  0.00    +0.000 C 
ATOM     29  F   UNL     1       5.334   5.573  15.032  0.00  0.00    +0.000 F 
ATOM     30  F   UNL     1       7.078   4.467  15.763  0.00  0.00    +0.000 F 
ATOM     31  F   UNL     1       5.858   3.651  14.141  0.00  0.00    +0.000 F 
ENDBRANCH  27  28
ENDBRANCH  24  27
ENDBRANCH  19  21
ENDBRANCH   1  18
TORSDOF 6
ENDMDL
MODEL 6
REMARK VINA RESULT:      -7.5      1.954      2.835
REMARK  Name = 
REMARK  6 active torsions:
REMARK  status: ('A' for Active; 'I' for Inactive)
REMARK    1  A    between atoms: C_2  and  C_3
REMARK    2  A    between atoms: C_3  and  N_4
REMARK    3  A    between atoms: N_7  and  C_8
REMARK    4  A    between atoms: N_19  and  C_20
REMARK    5  A    between atoms: C_23  and  O_24
REMARK    6  A    between atoms: O_24  and  C_25
REMARK                            x       y       z     vdW  Elec       q    Type
REMARK                         _______ _______ _______ _____ _____    ______ ____
ROOT
ATOM      1  C   UNL     1       1.383   7.894  21.214  0.00  0.00    +0.000 C 
ENDROOT
BRANCH   1   2
ATOM      2  N   UNL     1       0.627   9.120  21.025  0.00  0.00    +0.000 N 
ATOM      3  C   UNL     1       0.359   9.743  19.747  0.00  0.00    +0.000 C 
ATOM      4  C   UNL     1      -0.693  10.785  20.107  0.00  0.00    +0.000 C 
ATOM      5  N   UNL     1      -0.387  11.083  21.488  0.00  0.00    +0.000 N 
ATOM      6  C   UNL     1       0.319  10.002  22.059  0.00  0.00    +0.000 C 
ATOM      7  O   UNL     1       0.613   9.813  23.232  0.00  0.00    +0.000 OA
BRANCH   5   8
ATOM      8  C   UNL     1      -0.859  12.215  22.185  0.00  0.00    +0.000 A 
ATOM      9  C   UNL     1      -0.140  13.430  22.110  0.00  0.00    +0.000 A 
ATOM     10  C   UNL     1      -0.565  14.576  22.785  0.00  0.00    +0.000 A 
ATOM     11  C   UNL     1      -1.699  14.476  23.552  0.00  0.00    +0.000 A 
ATOM     12  C   UNL     1      -2.416  13.305  23.630  0.00  0.00    +0.000 A 
ATOM     13  C   UNL     1      -2.039  12.167  22.941  0.00  0.00    +0.000 A 
ATOM     14  O   UNL     1      -3.490  13.418  24.460  0.00  0.00    +0.000 OA
ATOM     15  C   UNL     1      -3.314  14.766  24.950  0.00  0.00    +0.000 C 
ATOM     16  O   UNL     1      -2.235  15.471  24.307  0.00  0.00    +0.000 OA
ENDBRANCH   5   8
ENDBRANCH   1   2
BRANCH   1  18
ATOM     17  O   UNL     1       2.274   8.219  18.997  0.00  0.00    +0.000 OA
ATOM     18  C   UNL     1       2.092   7.443  19.932  0.00  0.00    +0.000 C 
ATOM     19  N   UNL     1       2.534   6.128  19.964  0.00  0.00    +0.000 N 
ATOM     20  H   UNL     1       2.163   5.526  20.689  0.00  0.00    +0.000 HD
BRANCH  19  21
ATOM     21  C   UNL     1       3.344   5.515  18.982  0.00  0.00    +0.000 A 
ATOM     22  C   UNL     1       4.737   5.605  18.976  0.00  0.00    +0.000 A 
ATOM     23  C   UNL     1       5.490   4.939  18.007  0.00  0.00    +0.000 A 
ATOM     24  C   UNL     1       4.866   4.162  17.033  0.00  0.00    +0.000 A 
ATOM     25  C   UNL     1       3.473   4.116  16.997  0.00  0.00    +0.000 A 
ATOM     26  C   UNL     1       2.718   4.764  17.983  0.00  0.00    +0.000 A 
BRANCH  24  27
ATOM     27  O   UNL     1       5.707   3.564  16.149  0.00  0.00    +0.000 OA
BRANCH  27  28
ATOM     28  C   UNL     1       6.115   4.274  14.988  0.00  0.00    +0.000 C 
ATOM     29  F   UNL     1       5.440   5.420  14.765  0.00  0.00    +0.000 F 
ATOM     30  F   UNL     1       7.430   4.563  15.092  0.00  0.00    +0.000 F 
ATOM     31  F   UNL     1       5.945   3.477  13.910  0.00  0.00    +0.000 F 
ENDBRANCH  27  28
ENDBRANCH  24  27
ENDBRANCH  19  21
ENDBRANCH   1  18
TORSDOF 6
ENDMDL
MODEL 7
REMARK VINA RESULT:      -7.5      3.279      4.846
REMARK  Name = 
REMARK  6 active torsions:
REMARK  status: ('A' for Active; 'I' for Inactive)
REMARK    1  A    between atoms: C_2  and  C_3
REMARK    2  A    between atoms: C_3  and  N_4
REMARK    3  A    between atoms: N_7  and  C_8
REMARK    4  A    between atoms: N_19  and  C_20
REMARK    5  A    between atoms: C_23  and  O_24
REMARK    6  A    between atoms: O_24  and  C_25
REMARK                            x       y       z     vdW  Elec       q    Type
REMARK                         _______ _______ _______ _____ _____    ______ ____
ROOT
ATOM      1  C   UNL     1       0.969  10.065  21.664  0.00  0.00    +0.000 C 
ENDROOT
BRANCH   1   2
ATOM      2  N   UNL     1      -0.152  10.917  21.305  0.00  0.00    +0.000 N 
ATOM      3  C   UNL     1      -0.317  11.580  20.030  0.00  0.00    +0.000 C 
ATOM      4  C   UNL     1      -1.760  12.065  20.099  0.00  0.00    +0.000 C 
ATOM      5  N   UNL     1      -1.971  12.237  21.519  0.00  0.00    +0.000 N 
ATOM      6  C   UNL     1      -1.052  11.437  22.233  0.00  0.00    +0.000 C 
ATOM      7  O   UNL     1      -1.017  11.196  23.432  0.00  0.00    +0.000 OA
BRANCH   5   8
ATOM      8  C   UNL     1      -3.031  12.974  22.087  0.00  0.00    +0.000 A 
ATOM      9  C   UNL     1      -4.366  12.601  21.808  0.00  0.00    +0.000 A 
ATOM     10  C   UNL     1      -5.450  13.301  22.342  0.00  0.00    +0.000 A 
ATOM     11  C   UNL     1      -5.173  14.389  23.133  0.00  0.00    +0.000 A 
ATOM     12  C   UNL     1      -3.882  14.762  23.421  0.00  0.00    +0.000 A 
ATOM     13  C   UNL     1      -2.791  14.063  22.937  0.00  0.00    +0.000 A 
ATOM     14  O   UNL     1      -3.833  15.877  24.201  0.00  0.00    +0.000 OA
ATOM     15  C   UNL     1      -5.238  16.201  24.298  0.00  0.00    +0.000 C 
ATOM     16  O   UNL     1      -6.095  15.210  23.702  0.00  0.00    +0.000 OA
ENDBRANCH   5   8
ENDBRANCH   1   2
BRANCH   1  18
ATOM     17  O   UNL     1      -0.332   8.090  21.191  0.00  0.00    +0.000 OA
ATOM     18  C   UNL     1       0.778   8.620  21.190  0.00  0.00    +0.000 C 
ATOM     19  N   UNL     1       1.939   8.018  20.730  0.00  0.00    +0.000 N 
ATOM     20  H   UNL     1       2.820   8.464  20.955  0.00  0.00    +0.000 HD
BRANCH  19  21
ATOM     21  C   UNL     1       2.011   6.755  20.101  0.00  0.00    +0.000 A 
ATOM     22  C   UNL     1       2.428   6.582  18.780  0.00  0.00    +0.000 A 
ATOM     23  C   UNL     1       2.524   5.304  18.224  0.00  0.00    +0.000 A 
ATOM     24  C   UNL     1       2.214   4.176  18.981  0.00  0.00    +0.000 A 
ATOM     25  C   UNL     1       1.740   4.344  20.281  0.00  0.00    +0.000 A 
ATOM     26  C   UNL     1       1.666   5.624  20.847  0.00  0.00    +0.000 A 
BRANCH  24  27
ATOM     27  O   UNL     1       2.349   2.992  18.327  0.00  0.00    +0.000 OA
BRANCH  27  28
ATOM     28  C   UNL     1       3.625   2.368  18.274  0.00  0.00    +0.000 C 
ATOM     29  F   UNL     1       4.455   2.702  19.284  0.00  0.00    +0.000 F 
ATOM     30  F   UNL     1       3.457   1.028  18.281  0.00  0.00    +0.000 F 
ATOM     31  F   UNL     1       4.227   2.711  17.114  0.00  0.00    +0.000 F 
ENDBRANCH  27  28
ENDBRANCH  24  27
ENDBRANCH  19  21
ENDBRANCH   1  18
TORSDOF 6
ENDMDL
MODEL 8
REMARK VINA RESULT:      -7.5      4.624     10.297
REMARK  Name = 
REMARK  6 active torsions:
REMARK  status: ('A' for Active; 'I' for Inactive)
REMARK    1  A    between atoms: C_2  and  C_3
REMARK    2  A    between atoms: C_3  and  N_4
REMARK    3  A    between atoms: N_7  and  C_8
REMARK    4  A    between atoms: N_19  and  C_20
REMARK    5  A    between atoms: C_23  and  O_24
REMARK    6  A    between atoms: O_24  and  C_25
REMARK                            x       y       z     vdW  Elec       q    Type
REMARK                         _______ _______ _______ _____ _____    ______ ____
ROOT
ATOM      1  C   UNL     1       2.751   4.225  20.823  0.00  0.00    +0.000 C 
ENDROOT
BRANCH   1   2
ATOM      2  N   UNL     1       3.334   3.772  19.572  0.00  0.00    +0.000 N 
ATOM      3  C   UNL     1       3.360   2.399  19.117  0.00  0.00    +0.000 C 
ATOM      4  C   UNL     1       3.798   2.546  17.665  0.00  0.00    +0.000 C 
ATOM      5  N   UNL     1       4.578   3.763  17.688  0.00  0.00    +0.000 N 
ATOM      6  C   UNL     1       4.195   4.548  18.798  0.00  0.00    +0.000 C 
ATOM      7  O   UNL     1       4.510   5.699  19.068  0.00  0.00    +0.000 OA
BRANCH   5   8
ATOM      8  C   UNL     1       5.469   4.162  16.671  0.00  0.00    +0.000 A 
ATOM      9  C   UNL     1       6.493   5.092  16.966  0.00  0.00    +0.000 A 
ATOM     10  C   UNL     1       7.398   5.520  15.991  0.00  0.00    +0.000 A 
ATOM     11  C   UNL     1       7.242   5.023  14.721  0.00  0.00    +0.000 A 
ATOM     12  C   UNL     1       6.258   4.112  14.418  0.00  0.00    +0.000 A 
ATOM     13  C   UNL     1       5.374   3.642  15.372  0.00  0.00    +0.000 A 
ATOM     14  O   UNL     1       6.267   3.769  13.099  0.00  0.00    +0.000 OA
ATOM     15  C   UNL     1       7.316   4.630  12.603  0.00  0.00    +0.000 C 
ATOM     16  O   UNL     1       7.999   5.357  13.642  0.00  0.00    +0.000 OA
ENDBRANCH   5   8
ENDBRANCH   1   2
BRANCH   1  18
ATOM     17  O   UNL     1       0.536   5.135  20.531  0.00  0.00    +0.000 OA
ATOM     18  C   UNL     1       1.742   5.361  20.618  0.00  0.00    +0.000 C 
ATOM     19  N   UNL     1       2.311   6.625  20.595  0.00  0.00    +0.000 N 
ATOM     20  H   UNL     1       3.315   6.686  20.477  0.00  0.00    +0.000 HD
BRANCH  19  21
ATOM     21  C   UNL     1       1.596   7.843  20.574  0.00  0.00    +0.000 A 
ATOM     22  C   UNL     1       0.950   8.370  21.695  0.00  0.00    +0.000 A 
ATOM     23  C   UNL     1       0.297   9.602  21.627  0.00  0.00    +0.000 A 
ATOM     24  C   UNL     1       0.285  10.336  20.443  0.00  0.00    +0.000 A 
ATOM     25  C   UNL     1       0.876   9.789  19.305  0.00  0.00    +0.000 A 
ATOM     26  C   UNL     1       1.552   8.564  19.377  0.00  0.00    +0.000 A 
BRANCH  24  27
ATOM     27  O   UNL     1      -0.381  11.519  20.506  0.00  0.00    +0.000 OA
BRANCH  27  28
ATOM     28  C   UNL     1       0.347  12.734  20.401  0.00  0.00    +0.000 C 
ATOM     29  F   UNL     1       0.510  13.183  19.139  0.00  0.00    +0.000 F 
ATOM     30  F   UNL     1      -0.286  13.687  21.117  0.00  0.00    +0.000 F 
ATOM     31  F   UNL     1       1.575  12.552  20.936  0.00  0.00    +0.000 F 
ENDBRANCH  27  28
ENDBRANCH  24  27
ENDBRANCH  19  21
ENDBRANCH   1  18
TORSDOF 6
ENDMDL
MODEL 9
REMARK VINA RESULT:      -7.4      1.119      1.481
REMARK  Name = 
REMARK  6 active torsions:
REMARK  status: ('A' for Active; 'I' for Inactive)
REMARK    1  A    between atoms: C_2  and  C_3
REMARK    2  A    between atoms: C_3  and  N_4
REMARK    3  A    between atoms: N_7  and  C_8
REMARK    4  A    between atoms: N_19  and  C_20
REMARK    5  A    between atoms: C_23  and  O_24
REMARK    6  A    between atoms: O_24  and  C_25
REMARK                            x       y       z     vdW  Elec       q    Type
REMARK                         _______ _______ _______ _____ _____    ______ ____
ROOT
ATOM      1  C   UNL     1       2.616   6.165  19.755  0.00  0.00    +0.000 C 
ENDROOT
BRANCH   1   2
ATOM      2  N   UNL     1       2.114   7.495  19.455  0.00  0.00    +0.000 N 
ATOM      3  C   UNL     1       2.445   8.261  18.273  0.00  0.00    +0.000 C 
ATOM      4  C   UNL     1       1.435   9.401  18.330  0.00  0.00    +0.000 C 
ATOM      5  N   UNL     1       1.179   9.529  19.747  0.00  0.00    +0.000 N 
ATOM      6  C   UNL     1       1.493   8.314  20.395  0.00  0.00    +0.000 C 
ATOM      7  O   UNL     1       1.268   7.982  21.552  0.00  0.00    +0.000 OA
BRANCH   5   8
ATOM      8  C   UNL     1       0.567  10.647  20.351  0.00  0.00    +0.000 A 
ATOM      9  C   UNL     1      -0.834  10.658  20.538  0.00  0.00    +0.000 A 
ATOM     10  C   UNL     1      -1.487  11.743  21.127  0.00  0.00    +0.000 A 
ATOM     11  C   UNL     1      -0.719  12.819  21.498  0.00  0.00    +0.000 A 
ATOM     12  C   UNL     1       0.646  12.823  21.331  0.00  0.00    +0.000 A 
ATOM     13  C   UNL     1       1.322  11.745  20.786  0.00  0.00    +0.000 A 
ATOM     14  O   UNL     1       1.209  13.993  21.743  0.00  0.00    +0.000 OA
ATOM     15  C   UNL     1       0.031  14.745  22.110  0.00  0.00    +0.000 C 
ATOM     16  O   UNL     1      -1.183  13.973  22.045  0.00  0.00    +0.000 OA
ENDBRANCH   5   8
ENDBRANCH   1   2
BRANCH   1  18
ATOM     17  O   UNL     1       4.946   5.633  19.432  0.00  0.00    +0.000 OA
ATOM     18  C   UNL     1       3.845   5.802  18.913  0.00  0.00    +0.000 C 
ATOM     19  N   UNL     1       3.575   5.638  17.563  0.00  0.00    +0.000 N 
ATOM     20  H   UNL     1       2.691   5.989  17.214  0.00  0.00    +0.000 HD
BRANCH  19  21
ATOM     21  C   UNL     1       4.490   5.156  16.599  0.00  0.00    +0.000 A 
ATOM     22  C   UNL     1       4.787   3.802  16.437  0.00  0.00    +0.000 A 
ATOM     23  C   UNL     1       5.665   3.379  15.437  0.00  0.00    +0.000 A 
ATOM     24  C   UNL     1       6.254   4.301  14.574  0.00  0.00    +0.000 A 
ATOM     25  C   UNL     1       6.010   5.659  14.767  0.00  0.00    +0.000 A 
ATOM     26  C   UNL     1       5.110   6.082  15.756  0.00  0.00    +0.000 A 
BRANCH  24  27
ATOM     27  O   UNL     1       7.086   3.764  13.643  0.00  0.00    +0.000 OA
BRANCH  27  28
ATOM     28  C   UNL     1       6.647   3.659  12.296  0.00  0.00    +0.000 C 
ATOM     29  F   UNL     1       5.307   3.604  12.145  0.00  0.00    +0.000 F 
ATOM     30  F   UNL     1       7.115   4.716  11.599  0.00  0.00    +0.000 F 
ATOM     31  F   UNL     1       7.170   2.535  11.756  0.00  0.00    +0.000 F 
ENDBRANCH  27  28
ENDBRANCH  24  27
ENDBRANCH  19  21
ENDBRANCH   1  18
TORSDOF 6
ENDMDL
