MODEL 1
REMARK VINA RESULT:      -7.9      0.000      0.000
REMARK  Name = 
REMARK  14 active torsions:
REMARK  status: ('A' for Active; 'I' for Inactive)
REMARK    1  A    between atoms: C_1  and  C_2
REMARK    2  A    between atoms: C_2  and  C_4
REMARK    3  A    between atoms: C_4  and  O_5
REMARK    4  A    between atoms: C_4  and  C_6
REMARK    5  A    between atoms: C_6  and  C_7
REMARK    6  A    between atoms: C_6  and  C_8
REMARK    7  A    between atoms: C_8  and  C_9
REMARK    8  A    between atoms: C_10  and  C_11
REMARK    9  A    between atoms: C_12  and  O_13
REMARK   10  A    between atoms: C_14  and  C_15
REMARK   11  A    between atoms: C_16  and  C_17
REMARK   12  A    between atoms: C_19  and  C_20
REMARK   13  A    between atoms: C_20  and  C_21
REMARK   14  A    between atoms: C_30  and  O_31
REMARK                            x       y       z     vdW  Elec       q    Type
REMARK                         _______ _______ _______ _____ _____    ______ ____
ROOT
ATOM      1  C   UNL     1       2.926   6.280  19.264  0.00  0.00    +0.000 C 
ATOM      2  C   UNL     1       2.188   5.080  19.918  0.00  0.00    +0.000 C 
ATOM      3  C   UNL     1       2.035   3.845  19.076  0.00  0.00    +0.000 C 
ATOM      4  C   UNL     1       0.946   2.908  19.546  0.00  0.00    +0.000 C 
ATOM      5  C   UNL     1       2.851   3.567  18.037  0.00  0.00    +0.000 C 
ATOM      6  C   UNL     1       2.673   2.340  17.177  0.00  0.00    +0.000 C 
ATOM      7  C   UNL     1       4.106   4.399  17.801  0.00  0.00    +0.000 C 
ATOM      8  C   UNL     1       4.573   4.542  16.327  0.00  0.00    +0.000 C 
ATOM      9  N   UNL     1       4.885   5.937  16.152  0.00  0.00    +0.000 N 
ATOM     10  C   UNL     1       4.468   6.726  17.188  0.00  0.00    +0.000 C 
ATOM     11  O   UNL     1       4.513   7.951  17.178  0.00  0.00    +0.000 OA
ATOM     12  C   UNL     1       4.120   5.841  18.385  0.00  0.00    +0.000 C 
ATOM     13  H   UNL     1       5.149   6.348  15.263  0.00  0.00    +0.000 HD
ENDROOT
BRANCH   1  15
ATOM     14  C   UNL     1       1.964   8.549  19.050  0.00  0.00    +0.000 C 
ATOM     15  C   UNL     1       1.911   7.256  18.682  0.00  0.00    +0.000 C 
BRANCH  14  16
ATOM     16  C   UNL     1       1.058   9.654  18.614  0.00  0.00    +0.000 C 
BRANCH  16  17
ATOM     17  C   UNL     1      -0.010  10.026  19.675  0.00  0.00    +0.000 C 
ATOM     18  C   UNL     1      -0.631  11.408  19.394  0.00  0.00    +0.000 C 
BRANCH  17  19
ATOM     19  C   UNL     1       0.643   9.965  21.070  0.00  0.00    +0.000 C 
BRANCH  19  21
ATOM     20  C   UNL     1      -0.247   9.623  23.482  0.00  0.00    +0.000 C 
ATOM     21  C   UNL     1      -0.154   9.121  22.068  0.00  0.00    +0.000 C 
ATOM     22  O   UNL     1      -0.707   8.077  21.714  0.00  0.00    +0.000 OA
ENDBRANCH  19  21
BRANCH  19  23
ATOM     23  O   UNL     1       0.799  11.282  21.597  0.00  0.00    +0.000 OA
ATOM     24  H   UNL     1      -0.106  11.627  21.740  0.00  0.00    +0.000 HD
ENDBRANCH  19  23
ENDBRANCH  17  19
ENDBRANCH  16  17
ENDBRANCH  14  16
ENDBRANCH   1  15
BRANCH   2  25
ATOM     25  O   UNL     1       2.810   4.709  21.142  0.00  0.00    +0.000 OA
ATOM     26  H   UNL     1       3.715   5.076  21.125  0.00  0.00    +0.000 HD
ENDBRANCH   2  25
BRANCH  12  27
ATOM     27  O   UNL     1       5.314   5.944  19.218  0.00  0.00    +0.000 OA
ATOM     28  H   UNL     1       5.329   5.127  19.761  0.00  0.00    +0.000 HD
ENDBRANCH  12  27
BRANCH   8  29
ATOM     29  C   UNL     1       5.763   3.606  16.004  0.00  0.00    +0.000 C 
BRANCH  29  30
ATOM     30  C   UNL     1       6.354   3.879  14.641  0.00  0.00    +0.000 A 
ATOM     31  C   UNL     1       7.397   4.805  14.501  0.00  0.00    +0.000 A 
ATOM     32  C   UNL     1       7.834   5.188  13.233  0.00  0.00    +0.000 A 
ATOM     33  C   UNL     1       7.251   4.632  12.098  0.00  0.00    +0.000 A 
ATOM     34  C   UNL     1       6.258   3.662  12.228  0.00  0.00    +0.000 A 
ATOM     35  C   UNL     1       5.813   3.282  13.495  0.00  0.00    +0.000 A 
ENDBRANCH  29  30
ENDBRANCH   8  29
TORSDOF 10
ENDMDL
MODEL 2
REMARK VINA RESULT:      -7.8      3.548     10.555
REMARK  Name = 
REMARK  14 active torsions:
REMARK  status: ('A' for Active; 'I' for Inactive)
REMARK    1  A    between atoms: C_1  and  C_2
REMARK    2  A    between atoms: C_2  and  C_4
REMARK    3  A    between atoms: C_4  and  O_5
REMARK    4  A    between atoms: C_4  and  C_6
REMARK    5  A    between atoms: C_6  and  C_7
REMARK    6  A    between atoms: C_6  and  C_8
REMARK    7  A    between atoms: C_8  and  C_9
REMARK    8  A    between atoms: C_10  and  C_11
REMARK    9  A    between atoms: C_12  and  O_13
REMARK   10  A    between atoms: C_14  and  C_15
REMARK   11  A    between atoms: C_16  and  C_17
REMARK   12  A    between atoms: C_19  and  C_20
REMARK   13  A    between atoms: C_20  and  C_21
REMARK   14  A    between atoms: C_30  and  O_31
REMARK                            x       y       z     vdW  Elec       q    Type
REMARK                         _______ _______ _______ _____ _____    ______ ____
ROOT
ATOM      1  C   UNL     1       1.022   9.745  20.222  0.00  0.00    +0.000 C 
ATOM      2  C   UNL     1       0.586   9.949  18.745  0.00  0.00    +0.000 C 
ATOM      3  C   UNL     1      -0.833  10.387  18.517  0.00  0.00    +0.000 C 
ATOM      4  C   UNL     1      -1.342  10.128  17.118  0.00  0.00    +0.000 C 
ATOM      5  C   UNL     1      -1.558  11.023  19.461  0.00  0.00    +0.000 C 
ATOM      6  C   UNL     1      -2.992  11.434  19.236  0.00  0.00    +0.000 C 
ATOM      7  C   UNL     1      -0.892  11.517  20.741  0.00  0.00    +0.000 C 
ATOM      8  C   UNL     1      -1.783  11.558  22.012  0.00  0.00    +0.000 C 
ATOM      9  N   UNL     1      -0.986  10.982  23.064  0.00  0.00    +0.000 N 
ATOM     10  C   UNL     1       0.155  10.374  22.617  0.00  0.00    +0.000 C 
ATOM     11  O   UNL     1       0.900   9.709  23.328  0.00  0.00    +0.000 OA
ATOM     12  C   UNL     1       0.421  10.804  21.175  0.00  0.00    +0.000 C 
ATOM     13  H   UNL     1      -1.331  10.807  24.001  0.00  0.00    +0.000 HD
ENDROOT
BRANCH   1  15
ATOM     14  C   UNL     1       1.839   7.411  20.162  0.00  0.00    +0.000 C 
ATOM     15  C   UNL     1       0.902   8.273  20.597  0.00  0.00    +0.000 C 
BRANCH  14  16
ATOM     16  C   UNL     1       1.895   5.936  20.401  0.00  0.00    +0.000 C 
BRANCH  16  17
ATOM     17  C   UNL     1       2.506   5.146  19.215  0.00  0.00    +0.000 C 
ATOM     18  C   UNL     1       1.518   4.101  18.661  0.00  0.00    +0.000 C 
BRANCH  17  19
ATOM     19  C   UNL     1       3.822   4.497  19.685  0.00  0.00    +0.000 C 
BRANCH  19  21
ATOM     20  C   UNL     1       4.892   6.066  17.919  0.00  0.00    +0.000 C 
ATOM     21  C   UNL     1       5.066   5.199  19.134  0.00  0.00    +0.000 C 
ATOM     22  O   UNL     1       6.164   5.062  19.680  0.00  0.00    +0.000 OA
ENDBRANCH  19  21
BRANCH  19  23
ATOM     23  O   UNL     1       3.856   3.123  19.300  0.00  0.00    +0.000 OA
ATOM     24  H   UNL     1       3.378   3.066  18.448  0.00  0.00    +0.000 HD
ENDBRANCH  19  23
ENDBRANCH  17  19
ENDBRANCH  16  17
ENDBRANCH  14  16
ENDBRANCH   1  15
BRANCH   2  25
ATOM     25  O   UNL     1       1.447  10.869  18.086  0.00  0.00    +0.000 OA
ATOM     26  H   UNL     1       2.315  10.433  17.995  0.00  0.00    +0.000 HD
ENDBRANCH   2  25
BRANCH  12  27
ATOM     27  O   UNL     1       1.431  11.846  21.332  0.00  0.00    +0.000 OA
ATOM     28  H   UNL     1       2.285  11.375  21.430  0.00  0.00    +0.000 HD
ENDBRANCH  12  27
BRANCH   8  29
ATOM     29  C   UNL     1      -2.269  12.992  22.331  0.00  0.00    +0.000 C 
BRANCH  29  30
ATOM     30  C   UNL     1      -3.688  13.016  22.847  0.00  0.00    +0.000 A 
ATOM     31  C   UNL     1      -3.958  12.647  24.173  0.00  0.00    +0.000 A 
ATOM     32  C   UNL     1      -5.275  12.504  24.610  0.00  0.00    +0.000 A 
ATOM     33  C   UNL     1      -6.330  12.750  23.735  0.00  0.00    +0.000 A 
ATOM     34  C   UNL     1      -6.071  13.180  22.435  0.00  0.00    +0.000 A 
ATOM     35  C   UNL     1      -4.756  13.318  21.991  0.00  0.00    +0.000 A 
ENDBRANCH  29  30
ENDBRANCH   8  29
TORSDOF 10
ENDMDL
MODEL 3
REMARK VINA RESULT:      -7.8      3.882     10.660
REMARK  Name = 
REMARK  14 active torsions:
REMARK  status: ('A' for Active; 'I' for Inactive)
REMARK    1  A    between atoms: C_1  and  C_2
REMARK    2  A    between atoms: C_2  and  C_4
REMARK    3  A    between atoms: C_4  and  O_5
REMARK    4  A    between atoms: C_4  and  C_6
REMARK    5  A    between atoms: C_6  and  C_7
REMARK    6  A    between atoms: C_6  and  C_8
REMARK    7  A    between atoms: C_8  and  C_9
REMARK    8  A    between atoms: C_10  and  C_11
REMARK    9  A    between atoms: C_12  and  O_13
REMARK   10  A    between atoms: C_14  and  C_15
REMARK   11  A    between atoms: C_16  and  C_17
REMARK   12  A    between atoms: C_19  and  C_20
REMARK   13  A    between atoms: C_20  and  C_21
REMARK   14  A    between atoms: C_30  and  O_31
REMARK                            x       y       z     vdW  Elec       q    Type
REMARK                         _______ _______ _______ _____ _____    ______ ____
ROOT
ATOM      1  C   UNL     1       0.930   9.781  20.216  0.00  0.00    +0.000 C 
ATOM      2  C   UNL     1       0.485  10.040  18.751  0.00  0.00    +0.000 C 
ATOM      3  C   UNL     1      -0.925  10.519  18.551  0.00  0.00    +0.000 C 
ATOM      4  C   UNL     1      -1.454  10.314  17.150  0.00  0.00    +0.000 C 
ATOM      5  C   UNL     1      -1.624  11.144  19.522  0.00  0.00    +0.000 C 
ATOM      6  C   UNL     1      -3.050  11.597  19.324  0.00  0.00    +0.000 C 
ATOM      7  C   UNL     1      -0.934  11.583  20.808  0.00  0.00    +0.000 C 
ATOM      8  C   UNL     1      -1.811  11.608  22.089  0.00  0.00    +0.000 C 
ATOM      9  N   UNL     1      -1.018  10.982  23.115  0.00  0.00    +0.000 N 
ATOM     10  C   UNL     1       0.103  10.360  22.638  0.00  0.00    +0.000 C 
ATOM     11  O   UNL     1       0.839   9.656  23.321  0.00  0.00    +0.000 OA
ATOM     12  C   UNL     1       0.366  10.826  21.207  0.00  0.00    +0.000 C 
ATOM     13  H   UNL     1      -1.358  10.787  24.050  0.00  0.00    +0.000 HD
ENDROOT
BRANCH   1  15
ATOM     14  C   UNL     1       1.831   7.482  20.374  0.00  0.00    +0.000 C 
ATOM     15  C   UNL     1       0.778   8.302  20.549  0.00  0.00    +0.000 C 
BRANCH  14  16
ATOM     16  C   UNL     1       1.884   6.009  20.621  0.00  0.00    +0.000 C 
BRANCH  16  17
ATOM     17  C   UNL     1       2.755   5.246  19.590  0.00  0.00    +0.000 C 
ATOM     18  C   UNL     1       2.307   5.536  18.144  0.00  0.00    +0.000 C 
BRANCH  17  19
ATOM     19  C   UNL     1       2.693   3.741  19.916  0.00  0.00    +0.000 C 
BRANCH  19  21
ATOM     20  C   UNL     1       3.467   1.918  18.240  0.00  0.00    +0.000 C 
ATOM     21  C   UNL     1       3.833   2.944  19.277  0.00  0.00    +0.000 C 
ATOM     22  O   UNL     1       5.007   3.149  19.597  0.00  0.00    +0.000 OA
ENDBRANCH  19  21
BRANCH  19  23
ATOM     23  O   UNL     1       1.447   3.195  19.485  0.00  0.00    +0.000 OA
ATOM     24  H   UNL     1       0.785   3.469  20.152  0.00  0.00    +0.000 HD
ENDBRANCH  19  23
ENDBRANCH  17  19
ENDBRANCH  16  17
ENDBRANCH  14  16
ENDBRANCH   1  15
BRANCH   2  25
ATOM     25  O   UNL     1       1.362  10.958  18.110  0.00  0.00    +0.000 OA
ATOM     26  H   UNL     1       1.552  10.599  17.222  0.00  0.00    +0.000 HD
ENDBRANCH   2  25
BRANCH  12  27
ATOM     27  O   UNL     1       1.402  11.838  21.384  0.00  0.00    +0.000 OA
ATOM     28  H   UNL     1       2.250  11.386  21.185  0.00  0.00    +0.000 HD
ENDBRANCH  12  27
BRANCH   8  29
ATOM     29  C   UNL     1      -2.258  13.044  22.455  0.00  0.00    +0.000 C 
BRANCH  29  30
ATOM     30  C   UNL     1      -3.675  13.089  22.975  0.00  0.00    +0.000 A 
ATOM     31  C   UNL     1      -3.974  12.575  24.245  0.00  0.00    +0.000 A 
ATOM     32  C   UNL     1      -5.298  12.458  24.665  0.00  0.00    +0.000 A 
ATOM     33  C   UNL     1      -6.332  12.874  23.831  0.00  0.00    +0.000 A 
ATOM     34  C   UNL     1      -6.042  13.446  22.593  0.00  0.00    +0.000 A 
ATOM     35  C   UNL     1      -4.719  13.558  22.166  0.00  0.00    +0.000 A 
ENDBRANCH  29  30
ENDBRANCH   8  29
TORSDOF 10
ENDMDL
MODEL 4
REMARK VINA RESULT:      -7.7      3.890     10.569
REMARK  Name = 
REMARK  14 active torsions:
REMARK  status: ('A' for Active; 'I' for Inactive)
REMARK    1  A    between atoms: C_1  and  C_2
REMARK    2  A    between atoms: C_2  and  C_4
REMARK    3  A    between atoms: C_4  and  O_5
REMARK    4  A    between atoms: C_4  and  C_6
REMARK    5  A    between atoms: C_6  and  C_7
REMARK    6  A    between atoms: C_6  and  C_8
REMARK    7  A    between atoms: C_8  and  C_9
REMARK    8  A    between atoms: C_10  and  C_11
REMARK    9  A    between atoms: C_12  and  O_13
REMARK   10  A    between atoms: C_14  and  C_15
REMARK   11  A    between atoms: C_16  and  C_17
REMARK   12  A    between atoms: C_19  and  C_20
REMARK   13  A    between atoms: C_20  and  C_21
REMARK   14  A    between atoms: C_30  and  O_31
REMARK                            x       y       z     vdW  Elec       q    Type
REMARK                         _______ _______ _______ _____ _____    ______ ____
ROOT
ATOM      1  C   UNL     1       1.031   9.767  20.163  0.00  0.00    +0.000 C 
ATOM      2  C   UNL     1       0.556  10.006  18.705  0.00  0.00    +0.000 C 
ATOM      3  C   UNL     1      -0.873  10.437  18.525  0.00  0.00    +0.000 C 
ATOM      4  C   UNL     1      -1.414  10.210  17.132  0.00  0.00    +0.000 C 
ATOM      5  C   UNL     1      -1.579  11.040  19.503  0.00  0.00    +0.000 C 
ATOM      6  C   UNL     1      -3.022  11.442  19.326  0.00  0.00    +0.000 C 
ATOM      7  C   UNL     1      -0.885  11.505  20.779  0.00  0.00    +0.000 C 
ATOM      8  C   UNL     1      -1.744  11.503  22.072  0.00  0.00    +0.000 C 
ATOM      9  N   UNL     1      -0.915  10.907  23.088  0.00  0.00    +0.000 N 
ATOM     10  C   UNL     1       0.219  10.322  22.596  0.00  0.00    +0.000 C 
ATOM     11  O   UNL     1       0.988   9.646  23.270  0.00  0.00    +0.000 OA
ATOM     12  C   UNL     1       0.445  10.793  21.160  0.00  0.00    +0.000 C 
ATOM     13  H   UNL     1      -1.235  10.703  24.028  0.00  0.00    +0.000 HD
ENDROOT
BRANCH   1  15
ATOM     14  C   UNL     1       1.940   7.466  20.142  0.00  0.00    +0.000 C 
ATOM     15  C   UNL     1       0.934   8.284  20.502  0.00  0.00    +0.000 C 
BRANCH  14  16
ATOM     16  C   UNL     1       2.031   5.990  20.360  0.00  0.00    +0.000 C 
BRANCH  16  17
ATOM     17  C   UNL     1       2.530   5.216  19.114  0.00  0.00    +0.000 C 
ATOM     18  C   UNL     1       2.782   6.160  17.922  0.00  0.00    +0.000 C 
BRANCH  17  19
ATOM     19  C   UNL     1       1.498   4.124  18.770  0.00  0.00    +0.000 C 
BRANCH  19  21
ATOM     20  C   UNL     1       2.880   2.011  18.173  0.00  0.00    +0.000 C 
ATOM     21  C   UNL     1       1.971   2.716  19.141  0.00  0.00    +0.000 C 
ATOM     22  O   UNL     1       1.625   2.191  20.203  0.00  0.00    +0.000 OA
ENDBRANCH  19  21
BRANCH  19  23
ATOM     23  O   UNL     1       1.193   4.157  17.376  0.00  0.00    +0.000 OA
ATOM     24  H   UNL     1       0.246   4.393  17.310  0.00  0.00    +0.000 HD
ENDBRANCH  19  23
ENDBRANCH  17  19
ENDBRANCH  16  17
ENDBRANCH  14  16
ENDBRANCH   1  15
BRANCH   2  25
ATOM     25  O   UNL     1       1.391  10.952  18.049  0.00  0.00    +0.000 OA
ATOM     26  H   UNL     1       1.919  10.460  17.392  0.00  0.00    +0.000 HD
ENDBRANCH   2  25
BRANCH  12  27
ATOM     27  O   UNL     1       1.449  11.841  21.320  0.00  0.00    +0.000 OA
ATOM     28  H   UNL     1       0.948  12.684  21.356  0.00  0.00    +0.000 HD
ENDBRANCH  12  27
BRANCH   8  29
ATOM     29  C   UNL     1      -2.235  12.923  22.442  0.00  0.00    +0.000 C 
BRANCH  29  30
ATOM     30  C   UNL     1      -3.673  12.932  22.902  0.00  0.00    +0.000 A 
ATOM     31  C   UNL     1      -4.665  13.503  22.092  0.00  0.00    +0.000 A 
ATOM     32  C   UNL     1      -5.962  13.668  22.576  0.00  0.00    +0.000 A 
ATOM     33  C   UNL     1      -6.285  13.244  23.863  0.00  0.00    +0.000 A 
ATOM     34  C   UNL     1      -5.321  12.616  24.652  0.00  0.00    +0.000 A 
ATOM     35  C   UNL     1      -4.021  12.457  24.173  0.00  0.00    +0.000 A 
ENDBRANCH  29  30
ENDBRANCH   8  29
TORSDOF 10
ENDMDL
MODEL 5
REMARK VINA RESULT:      -7.7      1.470      2.247
REMARK  Name = 
REMARK  14 active torsions:
REMARK  status: ('A' for Active; 'I' for Inactive)
REMARK    1  A    between atoms: C_1  and  C_2
REMARK    2  A    between atoms: C_2  and  C_4
REMARK    3  A    between atoms: C_4  and  O_5
REMARK    4  A    between atoms: C_4  and  C_6
REMARK    5  A    between atoms: C_6  and  C_7
REMARK    6  A    between atoms: C_6  and  C_8
REMARK    7  A    between atoms: C_8  and  C_9
REMARK    8  A    between atoms: C_10  and  C_11
REMARK    9  A    between atoms: C_12  and  O_13
REMARK   10  A    between atoms: C_14  and  C_15
REMARK   11  A    between atoms: C_16  and  C_17
REMARK   12  A    between atoms: C_19  and  C_20
REMARK   13  A    between atoms: C_20  and  C_21
REMARK   14  A    between atoms: C_30  and  O_31
REMARK                            x       y       z     vdW  Elec       q    Type
REMARK                         _______ _______ _______ _____ _____    ______ ____
ROOT
ATOM      1  C   UNL     1       2.977   5.960  19.787  0.00  0.00    +0.000 C 
ATOM      2  C   UNL     1       2.172   4.723  20.271  0.00  0.00    +0.000 C 
ATOM      3  C   UNL     1       1.916   3.648  19.253  0.00  0.00    +0.000 C 
ATOM      4  C   UNL     1       0.775   2.722  19.607  0.00  0.00    +0.000 C 
ATOM      5  C   UNL     1       2.689   3.484  18.159  0.00  0.00    +0.000 C 
ATOM      6  C   UNL     1       2.409   2.421  17.126  0.00  0.00    +0.000 C 
ATOM      7  C   UNL     1       3.994   4.258  18.015  0.00  0.00    +0.000 C 
ATOM      8  C   UNL     1       4.439   4.599  16.567  0.00  0.00    +0.000 C 
ATOM      9  N   UNL     1       4.843   5.981  16.600  0.00  0.00    +0.000 N 
ATOM     10  C   UNL     1       4.503   6.624  17.759  0.00  0.00    +0.000 C 
ATOM     11  O   UNL     1       4.633   7.830  17.936  0.00  0.00    +0.000 OA
ATOM     12  C   UNL     1       4.120   5.587  18.814  0.00  0.00    +0.000 C 
ATOM     13  H   UNL     1       5.116   6.508  15.778  0.00  0.00    +0.000 HD
ENDROOT
BRANCH   1  15
ATOM     14  C   UNL     1       1.760   8.055  20.285  0.00  0.00    +0.000 C 
ATOM     15  C   UNL     1       2.020   7.080  19.396  0.00  0.00    +0.000 C 
BRANCH  14  16
ATOM     16  C   UNL     1       0.844   9.223  20.107  0.00  0.00    +0.000 C 
BRANCH  16  17
ATOM     17  C   UNL     1       0.656   9.634  18.623  0.00  0.00    +0.000 C 
ATOM     18  C   UNL     1       1.994  10.032  17.971  0.00  0.00    +0.000 C 
BRANCH  17  19
ATOM     19  C   UNL     1      -0.375  10.778  18.559  0.00  0.00    +0.000 C 
BRANCH  19  21
ATOM     20  C   UNL     1      -2.768  11.369  17.752  0.00  0.00    +0.000 C 
ATOM     21  C   UNL     1      -1.583  10.446  17.680  0.00  0.00    +0.000 C 
ATOM     22  O   UNL     1      -1.573   9.464  16.934  0.00  0.00    +0.000 OA
ENDBRANCH  19  21
BRANCH  19  23
ATOM     23  O   UNL     1       0.242  11.968  18.069  0.00  0.00    +0.000 OA
ATOM     24  H   UNL     1      -0.465  12.643  18.024  0.00  0.00    +0.000 HD
ENDBRANCH  19  23
ENDBRANCH  17  19
ENDBRANCH  16  17
ENDBRANCH  14  16
ENDBRANCH   1  15
BRANCH   2  25
ATOM     25  O   UNL     1       2.791   4.126  21.403  0.00  0.00    +0.000 OA
ATOM     26  H   UNL     1       2.088   3.959  22.058  0.00  0.00    +0.000 HD
ENDBRANCH   2  25
BRANCH  12  27
ATOM     27  O   UNL     1       5.334   5.480  19.616  0.00  0.00    +0.000 OA
ATOM     28  H   UNL     1       5.131   4.828  20.320  0.00  0.00    +0.000 HD
ENDBRANCH  12  27
BRANCH   8  29
ATOM     29  C   UNL     1       5.554   3.650  16.067  0.00  0.00    +0.000 C 
BRANCH  29  30
ATOM     30  C   UNL     1       6.034   4.009  14.680  0.00  0.00    +0.000 A 
ATOM     31  C   UNL     1       5.410   3.450  13.555  0.00  0.00    +0.000 A 
ATOM     32  C   UNL     1       5.948   3.640  12.283  0.00  0.00    +0.000 A 
ATOM     33  C   UNL     1       7.099   4.409  12.122  0.00  0.00    +0.000 A 
ATOM     34  C   UNL     1       7.688   5.022  13.226  0.00  0.00    +0.000 A 
ATOM     35  C   UNL     1       7.157   4.827  14.502  0.00  0.00    +0.000 A 
ENDBRANCH  29  30
ENDBRANCH   8  29
TORSDOF 10
ENDMDL
MODEL 6
REMARK VINA RESULT:      -7.7      1.016      2.024
REMARK  Name = 
REMARK  14 active torsions:
REMARK  status: ('A' for Active; 'I' for Inactive)
REMARK    1  A    between atoms: C_1  and  C_2
REMARK    2  A    between atoms: C_2  and  C_4
REMARK    3  A    between atoms: C_4  and  O_5
REMARK    4  A    between atoms: C_4  and  C_6
REMARK    5  A    between atoms: C_6  and  C_7
REMARK    6  A    between atoms: C_6  and  C_8
REMARK    7  A    between atoms: C_8  and  C_9
REMARK    8  A    between atoms: C_10  and  C_11
REMARK    9  A    between atoms: C_12  and  O_13
REMARK   10  A    between atoms: C_14  and  C_15
REMARK   11  A    between atoms: C_16  and  C_17
REMARK   12  A    between atoms: C_19  and  C_20
REMARK   13  A    between atoms: C_20  and  C_21
REMARK   14  A    between atoms: C_30  and  O_31
REMARK                            x       y       z     vdW  Elec       q    Type
REMARK                         _______ _______ _______ _____ _____    ______ ____
ROOT
ATOM      1  C   UNL     1       3.066   6.009  19.731  0.00  0.00    +0.000 C 
ATOM      2  C   UNL     1       2.242   4.785  20.214  0.00  0.00    +0.000 C 
ATOM      3  C   UNL     1       1.970   3.713  19.197  0.00  0.00    +0.000 C 
ATOM      4  C   UNL     1       0.815   2.805  19.551  0.00  0.00    +0.000 C 
ATOM      5  C   UNL     1       2.740   3.538  18.103  0.00  0.00    +0.000 C 
ATOM      6  C   UNL     1       2.444   2.479  17.070  0.00  0.00    +0.000 C 
ATOM      7  C   UNL     1       4.056   4.292  17.959  0.00  0.00    +0.000 C 
ATOM      8  C   UNL     1       4.506   4.626  16.511  0.00  0.00    +0.000 C 
ATOM      9  N   UNL     1       4.931   6.002  16.543  0.00  0.00    +0.000 N 
ATOM     10  C   UNL     1       4.602   6.650  17.702  0.00  0.00    +0.000 C 
ATOM     11  O   UNL     1       4.750   7.854  17.880  0.00  0.00    +0.000 OA
ATOM     12  C   UNL     1       4.202   5.619  18.758  0.00  0.00    +0.000 C 
ATOM     13  H   UNL     1       5.212   6.525  15.721  0.00  0.00    +0.000 HD
ENDROOT
BRANCH   1  15
ATOM     14  C   UNL     1       1.779   8.052  20.268  0.00  0.00    +0.000 C 
ATOM     15  C   UNL     1       2.126   7.143  19.339  0.00  0.00    +0.000 C 
BRANCH  14  16
ATOM     16  C   UNL     1       0.862   9.220  20.096  0.00  0.00    +0.000 C 
BRANCH  16  17
ATOM     17  C   UNL     1       0.587   9.984  21.417  0.00  0.00    +0.000 C 
ATOM     18  C   UNL     1      -0.298   9.161  22.373  0.00  0.00    +0.000 C 
BRANCH  17  19
ATOM     19  C   UNL     1      -0.053  11.343  21.072  0.00  0.00    +0.000 C 
BRANCH  19  21
ATOM     20  C   UNL     1       0.689  12.906  19.139  0.00  0.00    +0.000 C 
ATOM     21  C   UNL     1       0.953  12.352  20.512  0.00  0.00    +0.000 C 
ATOM     22  O   UNL     1       1.934  12.702  21.173  0.00  0.00    +0.000 OA
ENDBRANCH  19  21
BRANCH  19  23
ATOM     23  O   UNL     1      -0.674  11.901  22.230  0.00  0.00    +0.000 OA
ATOM     24  H   UNL     1      -0.635  11.209  22.920  0.00  0.00    +0.000 HD
ENDBRANCH  19  23
ENDBRANCH  17  19
ENDBRANCH  16  17
ENDBRANCH  14  16
ENDBRANCH   1  15
BRANCH   2  25
ATOM     25  O   UNL     1       2.853   4.179  21.346  0.00  0.00    +0.000 OA
ATOM     26  H   UNL     1       3.690   3.780  21.040  0.00  0.00    +0.000 HD
ENDBRANCH   2  25
BRANCH  12  27
ATOM     27  O   UNL     1       5.416   5.494  19.559  0.00  0.00    +0.000 OA
ATOM     28  H   UNL     1       5.357   4.616  19.993  0.00  0.00    +0.000 HD
ENDBRANCH  12  27
BRANCH   8  29
ATOM     29  C   UNL     1       5.607   3.660  16.010  0.00  0.00    +0.000 C 
BRANCH  29  30
ATOM     30  C   UNL     1       6.085   4.006  14.620  0.00  0.00    +0.000 A 
ATOM     31  C   UNL     1       5.489   3.404  13.502  0.00  0.00    +0.000 A 
ATOM     32  C   UNL     1       6.031   3.586  12.230  0.00  0.00    +0.000 A 
ATOM     33  C   UNL     1       7.156   4.388  12.061  0.00  0.00    +0.000 A 
ATOM     34  C   UNL     1       7.717   5.043  13.157  0.00  0.00    +0.000 A 
ATOM     35  C   UNL     1       7.182   4.857  14.432  0.00  0.00    +0.000 A 
ENDBRANCH  29  30
ENDBRANCH   8  29
TORSDOF 10
ENDMDL
MODEL 7
REMARK VINA RESULT:      -7.6      0.690      1.117
REMARK  Name = 
REMARK  14 active torsions:
REMARK  status: ('A' for Active; 'I' for Inactive)
REMARK    1  A    between atoms: C_1  and  C_2
REMARK    2  A    between atoms: C_2  and  C_4
REMARK    3  A    between atoms: C_4  and  O_5
REMARK    4  A    between atoms: C_4  and  C_6
REMARK    5  A    between atoms: C_6  and  C_7
REMARK    6  A    between atoms: C_6  and  C_8
REMARK    7  A    between atoms: C_8  and  C_9
REMARK    8  A    between atoms: C_10  and  C_11
REMARK    9  A    between atoms: C_12  and  O_13
REMARK   10  A    between atoms: C_14  and  C_15
REMARK   11  A    between atoms: C_16  and  C_17
REMARK   12  A    between atoms: C_19  and  C_20
REMARK   13  A    between atoms: C_20  and  C_21
REMARK   14  A    between atoms: C_30  and  O_31
REMARK                            x       y       z     vdW  Elec       q    Type
REMARK                         _______ _______ _______ _____ _____    ______ ____
ROOT
ATOM      1  C   UNL     1       2.830   6.416  19.222  0.00  0.00    +0.000 C 
ATOM      2  C   UNL     1       2.122   5.183  19.847  0.00  0.00    +0.000 C 
ATOM      3  C   UNL     1       2.000   3.965  18.976  0.00  0.00    +0.000 C 
ATOM      4  C   UNL     1       0.934   2.991  19.424  0.00  0.00    +0.000 C 
ATOM      5  C   UNL     1       2.822   3.732  17.932  0.00  0.00    +0.000 C 
ATOM      6  C   UNL     1       2.675   2.522  17.043  0.00  0.00    +0.000 C 
ATOM      7  C   UNL     1       4.056   4.600  17.716  0.00  0.00    +0.000 C 
ATOM      8  C   UNL     1       4.519   4.789  16.246  0.00  0.00    +0.000 C 
ATOM      9  N   UNL     1       4.796   6.196  16.103  0.00  0.00    +0.000 N 
ATOM     10  C   UNL     1       4.360   6.949  17.159  0.00  0.00    +0.000 C 
ATOM     11  O   UNL     1       4.375   8.175  17.177  0.00  0.00    +0.000 OA
ATOM     12  C   UNL     1       4.034   6.028  18.333  0.00  0.00    +0.000 C 
ATOM     13  H   UNL     1       5.049   6.634  15.225  0.00  0.00    +0.000 HD
ENDROOT
BRANCH   1  15
ATOM     14  C   UNL     1       1.631   8.580  19.252  0.00  0.00    +0.000 C 
ATOM     15  C   UNL     1       1.791   7.380  18.663  0.00  0.00    +0.000 C 
BRANCH  14  16
ATOM     16  C   UNL     1       0.663   9.653  18.874  0.00  0.00    +0.000 C 
BRANCH  16  17
ATOM     17  C   UNL     1      -0.079  10.265  20.090  0.00  0.00    +0.000 C 
ATOM     18  C   UNL     1      -0.915  11.495  19.684  0.00  0.00    +0.000 C 
BRANCH  17  19
ATOM     19  C   UNL     1       0.960  10.613  21.174  0.00  0.00    +0.000 C 
BRANCH  19  21
ATOM     20  C   UNL     1      -0.588   9.347  22.825  0.00  0.00    +0.000 C 
ATOM     21  C   UNL     1       0.802   9.775  22.445  0.00  0.00    +0.000 C 
ATOM     22  O   UNL     1       1.784   9.458  23.121  0.00  0.00    +0.000 OA
ENDBRANCH  19  21
BRANCH  19  23
ATOM     23  O   UNL     1       0.870  11.996  21.515  0.00  0.00    +0.000 OA
ATOM     24  H   UNL     1       1.789  12.332  21.532  0.00  0.00    +0.000 HD
ENDBRANCH  19  23
ENDBRANCH  17  19
ENDBRANCH  16  17
ENDBRANCH  14  16
ENDBRANCH   1  15
BRANCH   2  25
ATOM     25  O   UNL     1       2.753   4.799  21.062  0.00  0.00    +0.000 OA
ATOM     26  H   UNL     1       3.717   4.831  20.907  0.00  0.00    +0.000 HD
ENDBRANCH   2  25
BRANCH  12  27
ATOM     27  O   UNL     1       5.225   6.140  19.170  0.00  0.00    +0.000 OA
ATOM     28  H   UNL     1       5.193   7.042  19.556  0.00  0.00    +0.000 HD
ENDBRANCH  12  27
BRANCH   8  29
ATOM     29  C   UNL     1       5.732   3.891  15.901  0.00  0.00    +0.000 C 
BRANCH  29  30
ATOM     30  C   UNL     1       6.215   4.098  14.486  0.00  0.00    +0.000 A 
ATOM     31  C   UNL     1       5.629   3.383  13.432  0.00  0.00    +0.000 A 
ATOM     32  C   UNL     1       6.176   3.440  12.151  0.00  0.00    +0.000 A 
ATOM     33  C   UNL     1       7.298   4.228  11.907  0.00  0.00    +0.000 A 
ATOM     34  C   UNL     1       7.849   4.993  12.934  0.00  0.00    +0.000 A 
ATOM     35  C   UNL     1       7.309   4.933  14.218  0.00  0.00    +0.000 A 
ENDBRANCH  29  30
ENDBRANCH   8  29
TORSDOF 10
ENDMDL
MODEL 8
REMARK VINA RESULT:      -7.6      3.747     10.544
REMARK  Name = 
REMARK  14 active torsions:
REMARK  status: ('A' for Active; 'I' for Inactive)
REMARK    1  A    between atoms: C_1  and  C_2
REMARK    2  A    between atoms: C_2  and  C_4
REMARK    3  A    between atoms: C_4  and  O_5
REMARK    4  A    between atoms: C_4  and  C_6
REMARK    5  A    between atoms: C_6  and  C_7
REMARK    6  A    between atoms: C_6  and  C_8
REMARK    7  A    between atoms: C_8  and  C_9
REMARK    8  A    between atoms: C_10  and  C_11
REMARK    9  A    between atoms: C_12  and  O_13
REMARK   10  A    between atoms: C_14  and  C_15
REMARK   11  A    between atoms: C_16  and  C_17
REMARK   12  A    between atoms: C_19  and  C_20
REMARK   13  A    between atoms: C_20  and  C_21
REMARK   14  A    between atoms: C_30  and  O_31
REMARK                            x       y       z     vdW  Elec       q    Type
REMARK                         _______ _______ _______ _____ _____    ______ ____
ROOT
ATOM      1  C   UNL     1       0.978   9.668  20.180  0.00  0.00    +0.000 C 
ATOM      2  C   UNL     1       0.529   9.853  18.705  0.00  0.00    +0.000 C 
ATOM      3  C   UNL     1      -0.886  10.307  18.484  0.00  0.00    +0.000 C 
ATOM      4  C   UNL     1      -1.413  10.031  17.095  0.00  0.00    +0.000 C 
ATOM      5  C   UNL     1      -1.592  10.969  19.425  0.00  0.00    +0.000 C 
ATOM      6  C   UNL     1      -3.023  11.395  19.208  0.00  0.00    +0.000 C 
ATOM      7  C   UNL     1      -0.906  11.474  20.689  0.00  0.00    +0.000 C 
ATOM      8  C   UNL     1      -1.783  11.549  21.968  0.00  0.00    +0.000 C 
ATOM      9  N   UNL     1      -0.983  10.980  23.022  0.00  0.00    +0.000 N 
ATOM     10  C   UNL     1       0.145  10.349  22.573  0.00  0.00    +0.000 C 
ATOM     11  O   UNL     1       0.889   9.686  23.287  0.00  0.00    +0.000 OA
ATOM     12  C   UNL     1       0.402  10.751  21.121  0.00  0.00    +0.000 C 
ATOM     13  H   UNL     1      -1.320  10.826  23.965  0.00  0.00    +0.000 HD
ENDROOT
BRANCH   1  15
ATOM     14  C   UNL     1       1.906   7.390  20.449  0.00  0.00    +0.000 C 
ATOM     15  C   UNL     1       0.842   8.204  20.581  0.00  0.00    +0.000 C 
BRANCH  14  16
ATOM     16  C   UNL     1       1.976   5.931  20.765  0.00  0.00    +0.000 C 
BRANCH  16  17
ATOM     17  C   UNL     1       1.598   5.025  19.565  0.00  0.00    +0.000 C 
ATOM     18  C   UNL     1       0.866   3.750  20.025  0.00  0.00    +0.000 C 
BRANCH  17  19
ATOM     19  C   UNL     1       2.882   4.695  18.778  0.00  0.00    +0.000 C 
BRANCH  19  21
ATOM     20  C   UNL     1       3.554   2.231  18.325  0.00  0.00    +0.000 C 
ATOM     21  C   UNL     1       2.749   3.434  17.920  0.00  0.00    +0.000 C 
ATOM     22  O   UNL     1       1.999   3.411  16.941  0.00  0.00    +0.000 OA
ENDBRANCH  19  21
BRANCH  19  23
ATOM     23  O   UNL     1       3.980   4.532  19.675  0.00  0.00    +0.000 OA
ATOM     24  H   UNL     1       4.191   3.576  19.675  0.00  0.00    +0.000 HD
ENDBRANCH  19  23
ENDBRANCH  17  19
ENDBRANCH  16  17
ENDBRANCH  14  16
ENDBRANCH   1  15
BRANCH   2  25
ATOM     25  O   UNL     1       1.395  10.750  18.021  0.00  0.00    +0.000 OA
ATOM     26  H   UNL     1       2.009  11.118  18.686  0.00  0.00    +0.000 HD
ENDBRANCH   2  25
BRANCH  12  27
ATOM     27  O   UNL     1       1.427  11.782  21.250  0.00  0.00    +0.000 OA
ATOM     28  H   UNL     1       1.994  11.692  20.455  0.00  0.00    +0.000 HD
ENDBRANCH  12  27
BRANCH   8  29
ATOM     29  C   UNL     1      -2.246  12.995  22.268  0.00  0.00    +0.000 C 
BRANCH  29  30
ATOM     30  C   UNL     1      -3.639  13.043  22.850  0.00  0.00    +0.000 A 
ATOM     31  C   UNL     1      -3.862  12.627  24.170  0.00  0.00    +0.000 A 
ATOM     32  C   UNL     1      -5.161  12.508  24.662  0.00  0.00    +0.000 A 
ATOM     33  C   UNL     1      -6.246  12.825  23.848  0.00  0.00    +0.000 A 
ATOM     34  C   UNL     1      -6.031  13.301  22.555  0.00  0.00    +0.000 A 
ATOM     35  C   UNL     1      -4.733  13.414  22.057  0.00  0.00    +0.000 A 
ENDBRANCH  29  30
ENDBRANCH   8  29
TORSDOF 10
ENDMDL
MODEL 9
REMARK VINA RESULT:      -7.6      4.217     10.646
REMARK  Name = 
REMARK  14 active torsions:
REMARK  status: ('A' for Active; 'I' for Inactive)
REMARK    1  A    between atoms: C_1  and  C_2
REMARK    2  A    between atoms: C_2  and  C_4
REMARK    3  A    between atoms: C_4  and  O_5
REMARK    4  A    between atoms: C_4  and  C_6
REMARK    5  A    between atoms: C_6  and  C_7
REMARK    6  A    between atoms: C_6  and  C_8
REMARK    7  A    between atoms: C_8  and  C_9
REMARK    8  A    between atoms: C_10  and  C_11
REMARK    9  A    between atoms: C_12  and  O_13
REMARK   10  A    between atoms: C_14  and  C_15
REMARK   11  A    between atoms: C_16  and  C_17
REMARK   12  A    between atoms: C_19  and  C_20
REMARK   13  A    between atoms: C_20  and  C_21
REMARK   14  A    between atoms: C_30  and  O_31
REMARK                            x       y       z     vdW  Elec       q    Type
REMARK                         _______ _______ _______ _____ _____    ______ ____
ROOT
ATOM      1  C   UNL     1       0.791   9.798  20.265  0.00  0.00    +0.000 C 
ATOM      2  C   UNL     1       0.405   9.934  18.767  0.00  0.00    +0.000 C 
ATOM      3  C   UNL     1      -0.968  10.469  18.472  0.00  0.00    +0.000 C 
ATOM      4  C   UNL     1      -1.467  10.155  17.081  0.00  0.00    +0.000 C 
ATOM      5  C   UNL     1      -1.657  11.225  19.352  0.00  0.00    +0.000 C 
ATOM      6  C   UNL     1      -3.048  11.735  19.062  0.00  0.00    +0.000 C 
ATOM      7  C   UNL     1      -0.980  11.751  20.612  0.00  0.00    +0.000 C 
ATOM      8  C   UNL     1      -1.892  11.952  21.853  0.00  0.00    +0.000 C 
ATOM      9  N   UNL     1      -1.167  11.388  22.963  0.00  0.00    +0.000 N 
ATOM     10  C   UNL     1      -0.071  10.660  22.588  0.00  0.00    +0.000 C 
ATOM     11  O   UNL     1       0.602   9.988  23.362  0.00  0.00    +0.000 OA
ATOM     12  C   UNL     1       0.260  10.966  21.128  0.00  0.00    +0.000 C 
ATOM     13  H   UNL     1      -1.545  11.307  23.900  0.00  0.00    +0.000 HD
ENDROOT
BRANCH   1  15
ATOM     14  C   UNL     1       1.493   7.440  20.530  0.00  0.00    +0.000 C 
ATOM     15  C   UNL     1       0.542   8.370  20.736  0.00  0.00    +0.000 C 
BRANCH  14  16
ATOM     16  C   UNL     1       1.439   5.992  20.894  0.00  0.00    +0.000 C 
BRANCH  16  17
ATOM     17  C   UNL     1       2.360   5.105  20.018  0.00  0.00    +0.000 C 
ATOM     18  C   UNL     1       3.453   5.938  19.320  0.00  0.00    +0.000 C 
BRANCH  17  19
ATOM     19  C   UNL     1       1.486   4.343  19.003  0.00  0.00    +0.000 C 
BRANCH  19  21
ATOM     20  C   UNL     1       1.520   2.541  20.870  0.00  0.00    +0.000 C 
ATOM     21  C   UNL     1       1.039   2.970  19.511  0.00  0.00    +0.000 C 
ATOM     22  O   UNL     1       0.301   2.252  18.830  0.00  0.00    +0.000 OA
ENDBRANCH  19  21
BRANCH  19  23
ATOM     23  O   UNL     1       2.193   4.175  17.775  0.00  0.00    +0.000 OA
ATOM     24  H   UNL     1       2.076   5.010  17.277  0.00  0.00    +0.000 HD
ENDBRANCH  19  23
ENDBRANCH  17  19
ENDBRANCH  16  17
ENDBRANCH  14  16
ENDBRANCH   1  15
BRANCH   2  25
ATOM     25  O   UNL     1       1.352  10.733  18.070  0.00  0.00    +0.000 OA
ATOM     26  H   UNL     1       1.352  10.432  17.141  0.00  0.00    +0.000 HD
ENDBRANCH   2  25
BRANCH  12  27
ATOM     27  O   UNL     1       1.349  11.931  21.241  0.00  0.00    +0.000 OA
ATOM     28  H   UNL     1       1.486  12.064  22.204  0.00  0.00    +0.000 HD
ENDBRANCH  12  27
BRANCH   8  29
ATOM     29  C   UNL     1      -2.264  13.440  22.062  0.00  0.00    +0.000 C 
BRANCH  29  30
ATOM     30  C   UNL     1      -3.667  13.612  22.591  0.00  0.00    +0.000 A 
ATOM     31  C   UNL     1      -4.691  12.757  22.157  0.00  0.00    +0.000 A 
ATOM     32  C   UNL     1      -6.017  13.010  22.507  0.00  0.00    +0.000 A 
ATOM     33  C   UNL     1      -6.328  14.103  23.312  0.00  0.00    +0.000 A 
ATOM     34  C   UNL     1      -5.310  14.921  23.802  0.00  0.00    +0.000 A 
ATOM     35  C   UNL     1      -3.983  14.675  23.448  0.00  0.00    +0.000 A 
ENDBRANCH  29  30
ENDBRANCH   8  29
TORSDOF 10
ENDMDL
