MODEL 1
REMARK VINA RESULT:      -7.6      0.000      0.000
REMARK  Name = 
REMARK  9 active torsions:
REMARK  status: ('A' for Active; 'I' for Inactive)
REMARK    1  A    between atoms: C_1  and  C_2
REMARK    2  A    between atoms: C_2  and  C_3
REMARK    3  A    between atoms: C_2  and  O_4
REMARK    4  A    between atoms: O_4  and  C_5
REMARK    5  A    between atoms: C_8  and  N_9
REMARK    6  A    between atoms: C_11  and  C_12
REMARK    7  A    between atoms: C_12  and  O_14
REMARK    8  A    between atoms: C_15  and  C_16
REMARK    9  A    between atoms: C_22  and  C_23
REMARK                            x       y       z     vdW  Elec       q    Type
REMARK                         _______ _______ _______ _____ _____    ______ ____
ROOT
ATOM      1  N   UNL     1       2.435   6.274  19.761  0.00  0.00    +0.000 N 
ATOM      2  C   UNL     1       3.377   5.709  18.935  0.00  0.00    +0.000 A 
ATOM      3  C   UNL     1       3.443   4.359  19.248  0.00  0.00    +0.000 A 
ATOM      4  C   UNL     1       2.482   4.181  20.282  0.00  0.00    +0.000 A 
ATOM      5  N   UNL     1       1.910   5.358  20.600  0.00  0.00    +0.000 NA
ENDROOT
BRANCH   1   9
ATOM      6  C   UNL     1       0.863  10.219  19.940  0.00  0.00    +0.000 A 
ATOM      7  C   UNL     1       1.334   9.694  18.726  0.00  0.00    +0.000 A 
ATOM      8  C   UNL     1       1.882   8.405  18.640  0.00  0.00    +0.000 A 
ATOM      9  C   UNL     1       1.955   7.614  19.787  0.00  0.00    +0.000 A 
ATOM     10  C   UNL     1       1.482   8.132  21.001  0.00  0.00    +0.000 A 
ATOM     11  C   UNL     1       0.912   9.413  21.085  0.00  0.00    +0.000 A 
BRANCH  11  12
ATOM     12  C   UNL     1       0.348   9.770  22.352  0.00  0.00    +0.000 C 
ATOM     13  N   UNL     1      -0.139  10.073  23.358  0.00  0.00    +0.000 NA
ENDBRANCH  11  12
BRANCH   6  14
ATOM     14  O   UNL     1       0.310  11.466  19.818  0.00  0.00    +0.000 OA
BRANCH  14  16
ATOM     15  C   UNL     1      -1.946  11.409  19.008  0.00  0.00    +0.000 C 
ATOM     16  C   UNL     1      -0.499  11.769  18.674  0.00  0.00    +0.000 C 
ATOM     17  C   UNL     1      -0.394  13.266  18.393  0.00  0.00    +0.000 C 
ENDBRANCH  14  16
ENDBRANCH   6  14
ENDBRANCH   1   9
BRANCH   4  18
ATOM     18  C   UNL     1       2.039   2.903  20.960  0.00  0.00    +0.000 C 
ATOM     19  F   UNL     1       2.965   2.381  21.800  0.00  0.00    +0.000 F 
ATOM     20  F   UNL     1       0.896   3.069  21.674  0.00  0.00    +0.000 F 
ATOM     21  F   UNL     1       1.789   1.927  20.041  0.00  0.00    +0.000 F 
ENDBRANCH   4  18
BRANCH   3  22
ATOM     22  C   UNL     1       4.324   3.365  18.665  0.00  0.00    +0.000 C 
ATOM     23  O   UNL     1       4.169   2.906  17.545  0.00  0.00    +0.000 OA
BRANCH  22  24
ATOM     24  O   UNL     1       5.336   2.964  19.472  0.00  0.00    +0.000 OA
ATOM     25  H   UNL     1       5.034   2.586  20.317  0.00  0.00    +0.000 HD
ENDBRANCH  22  24
ENDBRANCH   3  22
TORSDOF 7
ENDMDL
MODEL 2
REMARK VINA RESULT:      -7.5      0.745      1.233
REMARK  Name = 
REMARK  9 active torsions:
REMARK  status: ('A' for Active; 'I' for Inactive)
REMARK    1  A    between atoms: C_1  and  C_2
REMARK    2  A    between atoms: C_2  and  C_3
REMARK    3  A    between atoms: C_2  and  O_4
REMARK    4  A    between atoms: O_4  and  C_5
REMARK    5  A    between atoms: C_8  and  N_9
REMARK    6  A    between atoms: C_11  and  C_12
REMARK    7  A    between atoms: C_12  and  O_14
REMARK    8  A    between atoms: C_15  and  C_16
REMARK    9  A    between atoms: C_22  and  C_23
REMARK                            x       y       z     vdW  Elec       q    Type
REMARK                         _______ _______ _______ _____ _____    ______ ____
ROOT
ATOM      1  N   UNL     1       2.437   6.304  19.737  0.00  0.00    +0.000 N 
ATOM      2  C   UNL     1       3.381   5.747  18.907  0.00  0.00    +0.000 A 
ATOM      3  C   UNL     1       3.456   4.397  19.215  0.00  0.00    +0.000 A 
ATOM      4  C   UNL     1       2.497   4.210  20.250  0.00  0.00    +0.000 A 
ATOM      5  N   UNL     1       1.919   5.382  20.573  0.00  0.00    +0.000 NA
ENDROOT
BRANCH   1   9
ATOM      6  C   UNL     1       0.841  10.239  19.931  0.00  0.00    +0.000 A 
ATOM      7  C   UNL     1       1.321   9.723  18.716  0.00  0.00    +0.000 A 
ATOM      8  C   UNL     1       1.877   8.438  18.625  0.00  0.00    +0.000 A 
ATOM      9  C   UNL     1       1.949   7.641  19.768  0.00  0.00    +0.000 A 
ATOM     10  C   UNL     1       1.467   8.149  20.983  0.00  0.00    +0.000 A 
ATOM     11  C   UNL     1       0.889   9.426  21.072  0.00  0.00    +0.000 A 
BRANCH  11  12
ATOM     12  C   UNL     1       0.317   9.773  22.338  0.00  0.00    +0.000 C 
ATOM     13  N   UNL     1      -0.112  10.044  23.379  0.00  0.00    +0.000 NA
ENDBRANCH  11  12
BRANCH   6  14
ATOM     14  O   UNL     1       0.282  11.483  19.814  0.00  0.00    +0.000 OA
BRANCH  14  16
ATOM     15  C   UNL     1       0.094  13.629  18.760  0.00  0.00    +0.000 C 
ATOM     16  C   UNL     1       1.058  12.555  19.261  0.00  0.00    +0.000 C 
ATOM     17  C   UNL     1       1.941  13.130  20.366  0.00  0.00    +0.000 C 
ENDBRANCH  14  16
ENDBRANCH   6  14
ENDBRANCH   1   9
BRANCH   4  18
ATOM     18  C   UNL     1       2.063   2.927  20.925  0.00  0.00    +0.000 C 
ATOM     19  F   UNL     1       1.734   1.938  20.060  0.00  0.00    +0.000 F 
ATOM     20  F   UNL     1       3.017   2.434  21.756  0.00  0.00    +0.000 F 
ATOM     21  F   UNL     1       0.949   3.130  21.686  0.00  0.00    +0.000 F 
ENDBRANCH   4  18
BRANCH   3  22
ATOM     22  C   UNL     1       4.341   3.410  18.627  0.00  0.00    +0.000 C 
ATOM     23  O   UNL     1       4.138   2.887  17.545  0.00  0.00    +0.000 OA
BRANCH  22  24
ATOM     24  O   UNL     1       5.418   3.093  19.388  0.00  0.00    +0.000 OA
ATOM     25  H   UNL     1       5.969   2.385  19.008  0.00  0.00    +0.000 HD
ENDBRANCH  22  24
ENDBRANCH   3  22
TORSDOF 7
ENDMDL
MODEL 3
REMARK VINA RESULT:      -7.5      0.345      1.035
REMARK  Name = 
REMARK  9 active torsions:
REMARK  status: ('A' for Active; 'I' for Inactive)
REMARK    1  A    between atoms: C_1  and  C_2
REMARK    2  A    between atoms: C_2  and  C_3
REMARK    3  A    between atoms: C_2  and  O_4
REMARK    4  A    between atoms: O_4  and  C_5
REMARK    5  A    between atoms: C_8  and  N_9
REMARK    6  A    between atoms: C_11  and  C_12
REMARK    7  A    between atoms: C_12  and  O_14
REMARK    8  A    between atoms: C_15  and  C_16
REMARK    9  A    between atoms: C_22  and  C_23
REMARK                            x       y       z     vdW  Elec       q    Type
REMARK                         _______ _______ _______ _____ _____    ______ ____
ROOT
ATOM      1  N   UNL     1       2.448   6.456  19.873  0.00  0.00    +0.000 N 
ATOM      2  C   UNL     1       3.537   5.992  19.173  0.00  0.00    +0.000 A 
ATOM      3  C   UNL     1       3.648   4.635  19.435  0.00  0.00    +0.000 A 
ATOM      4  C   UNL     1       2.560   4.346  20.306  0.00  0.00    +0.000 A 
ATOM      5  N   UNL     1       1.870   5.467  20.585  0.00  0.00    +0.000 NA
ENDROOT
BRANCH   1   9
ATOM      6  C   UNL     1       0.617  10.289  20.009  0.00  0.00    +0.000 A 
ATOM      7  C   UNL     1       1.113   9.779  18.799  0.00  0.00    +0.000 A 
ATOM      8  C   UNL     1       1.746   8.529  18.726  0.00  0.00    +0.000 A 
ATOM      9  C   UNL     1       1.879   7.761  19.884  0.00  0.00    +0.000 A 
ATOM     10  C   UNL     1       1.382   8.264  21.095  0.00  0.00    +0.000 A 
ATOM     11  C   UNL     1       0.728   9.505  21.165  0.00  0.00    +0.000 A 
BRANCH  11  12
ATOM     12  C   UNL     1       0.150   9.842  22.431  0.00  0.00    +0.000 C 
ATOM     13  N   UNL     1      -0.305  10.081  23.470  0.00  0.00    +0.000 NA
ENDBRANCH  11  12
BRANCH   6  14
ATOM     14  O   UNL     1      -0.019  11.495  19.874  0.00  0.00    +0.000 OA
BRANCH  14  16
ATOM     15  C   UNL     1      -2.142  11.607  18.764  0.00  0.00    +0.000 C 
ATOM     16  C   UNL     1      -0.637  11.829  18.624  0.00  0.00    +0.000 C 
ATOM     17  C   UNL     1      -0.360  13.301  18.329  0.00  0.00    +0.000 C 
ENDBRANCH  14  16
ENDBRANCH   6  14
ENDBRANCH   1   9
BRANCH   4  18
ATOM     18  C   UNL     1       2.111   3.010  20.856  0.00  0.00    +0.000 C 
ATOM     19  F   UNL     1       1.822   2.094  19.901  0.00  0.00    +0.000 F 
ATOM     20  F   UNL     1       3.037   2.455  21.680  0.00  0.00    +0.000 F 
ATOM     21  F   UNL     1       0.968   3.145  21.588  0.00  0.00    +0.000 F 
ENDBRANCH   4  18
BRANCH   3  22
ATOM     22  C   UNL     1       4.669   3.728  18.948  0.00  0.00    +0.000 C 
ATOM     23  O   UNL     1       5.844   3.810  19.262  0.00  0.00    +0.000 OA
BRANCH  22  24
ATOM     24  O   UNL     1       4.218   2.777  18.092  0.00  0.00    +0.000 OA
ATOM     25  H   UNL     1       3.936   3.132  17.230  0.00  0.00    +0.000 HD
ENDBRANCH  22  24
ENDBRANCH   3  22
TORSDOF 7
ENDMDL
MODEL 4
REMARK VINA RESULT:      -7.3      1.373      1.868
REMARK  Name = 
REMARK  9 active torsions:
REMARK  status: ('A' for Active; 'I' for Inactive)
REMARK    1  A    between atoms: C_1  and  C_2
REMARK    2  A    between atoms: C_2  and  C_3
REMARK    3  A    between atoms: C_2  and  O_4
REMARK    4  A    between atoms: O_4  and  C_5
REMARK    5  A    between atoms: C_8  and  N_9
REMARK    6  A    between atoms: C_11  and  C_12
REMARK    7  A    between atoms: C_12  and  O_14
REMARK    8  A    between atoms: C_15  and  C_16
REMARK    9  A    between atoms: C_22  and  C_23
REMARK                            x       y       z     vdW  Elec       q    Type
REMARK                         _______ _______ _______ _____ _____    ______ ____
ROOT
ATOM      1  N   UNL     1       2.513   6.064  19.390  0.00  0.00    +0.000 N 
ATOM      2  C   UNL     1       3.795   5.585  19.522  0.00  0.00    +0.000 A 
ATOM      3  C   UNL     1       3.747   4.215  19.311  0.00  0.00    +0.000 A 
ATOM      4  C   UNL     1       2.377   3.940  19.038  0.00  0.00    +0.000 A 
ATOM      5  N   UNL     1       1.645   5.066  19.126  0.00  0.00    +0.000 NA
ENDROOT
BRANCH   1   9
ATOM      6  C   UNL     1       0.993  10.023  19.676  0.00  0.00    +0.000 A 
ATOM      7  C   UNL     1       1.391   9.499  18.435  0.00  0.00    +0.000 A 
ATOM      8  C   UNL     1       1.921   8.206  18.312  0.00  0.00    +0.000 A 
ATOM      9  C   UNL     1       2.049   7.408  19.450  0.00  0.00    +0.000 A 
ATOM     10  C   UNL     1       1.649   7.924  20.691  0.00  0.00    +0.000 A 
ATOM     11  C   UNL     1       1.096   9.209  20.813  0.00  0.00    +0.000 A 
BRANCH  11  12
ATOM     12  C   UNL     1       0.607   9.565  22.110  0.00  0.00    +0.000 C 
ATOM     13  N   UNL     1       0.214   9.890  23.151  0.00  0.00    +0.000 NA
ENDBRANCH  11  12
BRANCH   6  14
ATOM     14  O   UNL     1       0.447  11.275  19.591  0.00  0.00    +0.000 OA
BRANCH  14  16
ATOM     15  C   UNL     1       0.422  13.449  18.578  0.00  0.00    +0.000 C 
ATOM     16  C   UNL     1       1.287  12.389  19.258  0.00  0.00    +0.000 C 
ATOM     17  C   UNL     1       1.871  12.954  20.550  0.00  0.00    +0.000 C 
ENDBRANCH  14  16
ENDBRANCH   6  14
ENDBRANCH   1   9
BRANCH   4  18
ATOM     18  C   UNL     1       1.731   2.631  18.640  0.00  0.00    +0.000 C 
ATOM     19  F   UNL     1       0.406   2.732  18.379  0.00  0.00    +0.000 F 
ATOM     20  F   UNL     1       2.316   2.080  17.545  0.00  0.00    +0.000 F 
ATOM     21  F   UNL     1       1.836   1.712  19.642  0.00  0.00    +0.000 F 
ENDBRANCH   4  18
BRANCH   3  22
ATOM     22  C   UNL     1       4.850   3.276  19.384  0.00  0.00    +0.000 C 
ATOM     23  O   UNL     1       4.851   2.299  20.113  0.00  0.00    +0.000 OA
BRANCH  22  24
ATOM     24  O   UNL     1       5.903   3.578  18.584  0.00  0.00    +0.000 OA
ATOM     25  H   UNL     1       6.427   2.800  18.321  0.00  0.00    +0.000 HD
ENDBRANCH  22  24
ENDBRANCH   3  22
TORSDOF 7
ENDMDL
MODEL 5
REMARK VINA RESULT:      -7.3      0.766      1.109
REMARK  Name = 
REMARK  9 active torsions:
REMARK  status: ('A' for Active; 'I' for Inactive)
REMARK    1  A    between atoms: C_1  and  C_2
REMARK    2  A    between atoms: C_2  and  C_3
REMARK    3  A    between atoms: C_2  and  O_4
REMARK    4  A    between atoms: O_4  and  C_5
REMARK    5  A    between atoms: C_8  and  N_9
REMARK    6  A    between atoms: C_11  and  C_12
REMARK    7  A    between atoms: C_12  and  O_14
REMARK    8  A    between atoms: C_15  and  C_16
REMARK    9  A    between atoms: C_22  and  C_23
REMARK                            x       y       z     vdW  Elec       q    Type
REMARK                         _______ _______ _______ _____ _____    ______ ____
ROOT
ATOM      1  N   UNL     1       2.495   6.458  19.790  0.00  0.00    +0.000 N 
ATOM      2  C   UNL     1       3.577   5.980  19.089  0.00  0.00    +0.000 A 
ATOM      3  C   UNL     1       3.705   4.634  19.396  0.00  0.00    +0.000 A 
ATOM      4  C   UNL     1       2.633   4.365  20.294  0.00  0.00    +0.000 A 
ATOM      5  N   UNL     1       1.937   5.490  20.545  0.00  0.00    +0.000 NA
ENDROOT
BRANCH   1   9
ATOM      6  C   UNL     1       0.630  10.278  19.822  0.00  0.00    +0.000 A 
ATOM      7  C   UNL     1       1.115   9.731  18.623  0.00  0.00    +0.000 A 
ATOM      8  C   UNL     1       1.758   8.485  18.584  0.00  0.00    +0.000 A 
ATOM      9  C   UNL     1       1.914   7.758  19.764  0.00  0.00    +0.000 A 
ATOM     10  C   UNL     1       1.429   8.297  20.965  0.00  0.00    +0.000 A 
ATOM     11  C   UNL     1       0.764   9.534  21.002  0.00  0.00    +0.000 A 
BRANCH  11  12
ATOM     12  C   UNL     1       0.201   9.909  22.264  0.00  0.00    +0.000 C 
ATOM     13  N   UNL     1      -0.254  10.249  23.274  0.00  0.00    +0.000 NA
ENDBRANCH  11  12
BRANCH   6  14
ATOM     14  O   UNL     1      -0.018  11.472  19.655  0.00  0.00    +0.000 OA
BRANCH  14  16
ATOM     15  C   UNL     1      -0.288  13.723  18.874  0.00  0.00    +0.000 C 
ATOM     16  C   UNL     1       0.713  12.610  19.180  0.00  0.00    +0.000 C 
ATOM     17  C   UNL     1       1.666  13.065  20.282  0.00  0.00    +0.000 C 
ENDBRANCH  14  16
ENDBRANCH   6  14
ENDBRANCH   1   9
BRANCH   4  18
ATOM     18  C   UNL     1       2.206   3.045  20.897  0.00  0.00    +0.000 C 
ATOM     19  F   UNL     1       3.171   2.439  21.628  0.00  0.00    +0.000 F 
ATOM     20  F   UNL     1       1.116   3.174  21.697  0.00  0.00    +0.000 F 
ATOM     21  F   UNL     1       1.871   2.151  19.922  0.00  0.00    +0.000 F 
ENDBRANCH   4  18
BRANCH   3  22
ATOM     22  C   UNL     1       4.726   3.719  18.924  0.00  0.00    +0.000 C 
ATOM     23  O   UNL     1       5.909   3.838  19.194  0.00  0.00    +0.000 OA
BRANCH  22  24
ATOM     24  O   UNL     1       4.266   2.716  18.135  0.00  0.00    +0.000 OA
ATOM     25  H   UNL     1       4.970   2.240  17.661  0.00  0.00    +0.000 HD
ENDBRANCH  22  24
ENDBRANCH   3  22
TORSDOF 7
ENDMDL
MODEL 6
REMARK VINA RESULT:      -7.2      0.976      1.493
REMARK  Name = 
REMARK  9 active torsions:
REMARK  status: ('A' for Active; 'I' for Inactive)
REMARK    1  A    between atoms: C_1  and  C_2
REMARK    2  A    between atoms: C_2  and  C_3
REMARK    3  A    between atoms: C_2  and  O_4
REMARK    4  A    between atoms: O_4  and  C_5
REMARK    5  A    between atoms: C_8  and  N_9
REMARK    6  A    between atoms: C_11  and  C_12
REMARK    7  A    between atoms: C_12  and  O_14
REMARK    8  A    between atoms: C_15  and  C_16
REMARK    9  A    between atoms: C_22  and  C_23
REMARK                            x       y       z     vdW  Elec       q    Type
REMARK                         _______ _______ _______ _____ _____    ______ ____
ROOT
ATOM      1  N   UNL     1       2.602   6.207  19.625  0.00  0.00    +0.000 N 
ATOM      2  C   UNL     1       3.727   5.612  19.104  0.00  0.00    +0.000 A 
ATOM      3  C   UNL     1       3.709   4.282  19.496  0.00  0.00    +0.000 A 
ATOM      4  C   UNL     1       2.511   4.145  20.253  0.00  0.00    +0.000 A 
ATOM      5  N   UNL     1       1.876   5.329  20.347  0.00  0.00    +0.000 NA
ENDROOT
BRANCH   1   9
ATOM      6  C   UNL     1       1.055  10.145  19.212  0.00  0.00    +0.000 A 
ATOM      7  C   UNL     1       1.584   9.466  18.102  0.00  0.00    +0.000 A 
ATOM      8  C   UNL     1       2.125   8.176  18.211  0.00  0.00    +0.000 A 
ATOM      9  C   UNL     1       2.132   7.540  19.453  0.00  0.00    +0.000 A 
ATOM     10  C   UNL     1       1.602   8.212  20.564  0.00  0.00    +0.000 A 
ATOM     11  C   UNL     1       1.038   9.493  20.452  0.00  0.00    +0.000 A 
BRANCH  11  12
ATOM     12  C   UNL     1       0.413  10.012  21.631  0.00  0.00    +0.000 C 
ATOM     13  N   UNL     1      -0.076  10.466  22.578  0.00  0.00    +0.000 NA
ENDBRANCH  11  12
BRANCH   6  14
ATOM     14  O   UNL     1       0.520  11.366  18.901  0.00  0.00    +0.000 OA
BRANCH  14  16
ATOM     15  C   UNL     1       2.155  12.992  18.244  0.00  0.00    +0.000 C 
ATOM     16  C   UNL     1       1.184  12.559  19.340  0.00  0.00    +0.000 C 
ATOM     17  C   UNL     1       0.132  13.644  19.554  0.00  0.00    +0.000 C 
ENDBRANCH  14  16
ENDBRANCH   6  14
ENDBRANCH   1   9
BRANCH   4  18
ATOM     18  C   UNL     1       1.906   2.899  20.860  0.00  0.00    +0.000 C 
ATOM     19  F   UNL     1       1.783   1.869  19.989  0.00  0.00    +0.000 F 
ATOM     20  F   UNL     1       2.621   2.445  21.922  0.00  0.00    +0.000 F 
ATOM     21  F   UNL     1       0.644   3.143  21.316  0.00  0.00    +0.000 F 
ENDBRANCH   4  18
BRANCH   3  22
ATOM     22  C   UNL     1       4.710   3.271  19.217  0.00  0.00    +0.000 C 
ATOM     23  O   UNL     1       5.120   2.485  20.053  0.00  0.00    +0.000 OA
BRANCH  22  24
ATOM     24  O   UNL     1       5.176   3.274  17.943  0.00  0.00    +0.000 OA
ATOM     25  H   UNL     1       5.516   4.140  17.655  0.00  0.00    +0.000 HD
ENDBRANCH  22  24
ENDBRANCH   3  22
TORSDOF 7
ENDMDL
MODEL 7
REMARK VINA RESULT:      -7.2      3.879      7.676
REMARK  Name = 
REMARK  9 active torsions:
REMARK  status: ('A' for Active; 'I' for Inactive)
REMARK    1  A    between atoms: C_1  and  C_2
REMARK    2  A    between atoms: C_2  and  C_3
REMARK    3  A    between atoms: C_2  and  O_4
REMARK    4  A    between atoms: O_4  and  C_5
REMARK    5  A    between atoms: C_8  and  N_9
REMARK    6  A    between atoms: C_11  and  C_12
REMARK    7  A    between atoms: C_12  and  O_14
REMARK    8  A    between atoms: C_15  and  C_16
REMARK    9  A    between atoms: C_22  and  C_23
REMARK                            x       y       z     vdW  Elec       q    Type
REMARK                         _______ _______ _______ _____ _____    ______ ____
ROOT
ATOM      1  N   UNL     1       1.915   7.882  19.553  0.00  0.00    +0.000 N 
ATOM      2  C   UNL     1       1.514   7.741  20.860  0.00  0.00    +0.000 A 
ATOM      3  C   UNL     1       0.780   8.870  21.191  0.00  0.00    +0.000 A 
ATOM      4  C   UNL     1       0.769   9.654  20.004  0.00  0.00    +0.000 A 
ATOM      5  N   UNL     1       1.491   9.055  19.038  0.00  0.00    +0.000 NA
ENDROOT
BRANCH   1   9
ATOM      6  C   UNL     1       4.093   5.051  17.250  0.00  0.00    +0.000 A 
ATOM      7  C   UNL     1       4.284   6.429  17.053  0.00  0.00    +0.000 A 
ATOM      8  C   UNL     1       3.561   7.387  17.779  0.00  0.00    +0.000 A 
ATOM      9  C   UNL     1       2.633   6.968  18.732  0.00  0.00    +0.000 A 
ATOM     10  C   UNL     1       2.442   5.593  18.936  0.00  0.00    +0.000 A 
ATOM     11  C   UNL     1       3.180   4.632  18.227  0.00  0.00    +0.000 A 
BRANCH  11  12
ATOM     12  C   UNL     1       2.986   3.270  18.623  0.00  0.00    +0.000 C 
ATOM     13  N   UNL     1       2.790   2.174  18.942  0.00  0.00    +0.000 NA
ENDBRANCH  11  12
BRANCH   6  14
ATOM     14  O   UNL     1       4.927   4.271  16.495  0.00  0.00    +0.000 OA
BRANCH  14  16
ATOM     15  C   UNL     1       7.295   4.516  16.789  0.00  0.00    +0.000 C 
ATOM     16  C   UNL     1       6.096   4.855  15.905  0.00  0.00    +0.000 C 
ATOM     17  C   UNL     1       6.291   4.246  14.519  0.00  0.00    +0.000 C 
ENDBRANCH  14  16
ENDBRANCH   6  14
ENDBRANCH   1   9
BRANCH   4  18
ATOM     18  C   UNL     1       0.046  10.954  19.728  0.00  0.00    +0.000 C 
ATOM     19  F   UNL     1       0.232  11.428  18.473  0.00  0.00    +0.000 F 
ATOM     20  F   UNL     1      -1.294  10.848  19.925  0.00  0.00    +0.000 F 
ATOM     21  F   UNL     1       0.486  11.942  20.560  0.00  0.00    +0.000 F 
ENDBRANCH   4  18
BRANCH   3  22
ATOM     22  C   UNL     1       0.185   9.185  22.476  0.00  0.00    +0.000 C 
ATOM     23  O   UNL     1       0.666   9.986  23.259  0.00  0.00    +0.000 OA
BRANCH  22  24
ATOM     24  O   UNL     1      -0.953   8.502  22.754  0.00  0.00    +0.000 OA
ATOM     25  H   UNL     1      -1.089   8.342  23.705  0.00  0.00    +0.000 HD
ENDBRANCH  22  24
ENDBRANCH   3  22
TORSDOF 7
ENDMDL
MODEL 8
REMARK VINA RESULT:      -7.1      2.383      2.847
REMARK  Name = 
REMARK  9 active torsions:
REMARK  status: ('A' for Active; 'I' for Inactive)
REMARK    1  A    between atoms: C_1  and  C_2
REMARK    2  A    between atoms: C_2  and  C_3
REMARK    3  A    between atoms: C_2  and  O_4
REMARK    4  A    between atoms: O_4  and  C_5
REMARK    5  A    between atoms: C_8  and  N_9
REMARK    6  A    between atoms: C_11  and  C_12
REMARK    7  A    between atoms: C_12  and  O_14
REMARK    8  A    between atoms: C_15  and  C_16
REMARK    9  A    between atoms: C_22  and  C_23
REMARK                            x       y       z     vdW  Elec       q    Type
REMARK                         _______ _______ _______ _____ _____    ______ ____
ROOT
ATOM      1  N   UNL     1       2.762   6.566  18.749  0.00  0.00    +0.000 N 
ATOM      2  C   UNL     1       2.778   5.418  19.506  0.00  0.00    +0.000 A 
ATOM      3  C   UNL     1       3.625   4.520  18.875  0.00  0.00    +0.000 A 
ATOM      4  C   UNL     1       4.102   5.217  17.730  0.00  0.00    +0.000 A 
ATOM      5  N   UNL     1       3.540   6.438  17.655  0.00  0.00    +0.000 NA
ENDROOT
BRANCH   1   9
ATOM      6  C   UNL     1       0.679  10.164  19.637  0.00  0.00    +0.000 A 
ATOM      7  C   UNL     1       0.968   9.816  18.307  0.00  0.00    +0.000 A 
ATOM      8  C   UNL     1       1.676   8.649  17.984  0.00  0.00    +0.000 A 
ATOM      9  C   UNL     1       2.100   7.800  19.006  0.00  0.00    +0.000 A 
ATOM     10  C   UNL     1       1.811   8.140  20.336  0.00  0.00    +0.000 A 
ATOM     11  C   UNL     1       1.082   9.296  20.661  0.00  0.00    +0.000 A 
BRANCH  11  12
ATOM     12  C   UNL     1       0.740   9.458  22.042  0.00  0.00    +0.000 C 
ATOM     13  N   UNL     1       0.502   9.596  23.167  0.00  0.00    +0.000 NA
ENDBRANCH  11  12
BRANCH   6  14
ATOM     14  O   UNL     1      -0.069  11.304  19.754  0.00  0.00    +0.000 OA
BRANCH  14  16
ATOM     15  C   UNL     1      -2.245  11.683  18.821  0.00  0.00    +0.000 C 
ATOM     16  C   UNL     1      -0.741  11.827  18.600  0.00  0.00    +0.000 C 
ATOM     17  C   UNL     1      -0.381  13.304  18.462  0.00  0.00    +0.000 C 
ENDBRANCH  14  16
ENDBRANCH   6  14
ENDBRANCH   1   9
BRANCH   4  18
ATOM     18  C   UNL     1       5.129   4.780  16.709  0.00  0.00    +0.000 C 
ATOM     19  F   UNL     1       6.381   4.655  17.211  0.00  0.00    +0.000 F 
ATOM     20  F   UNL     1       4.807   3.594  16.130  0.00  0.00    +0.000 F 
ATOM     21  F   UNL     1       5.232   5.692  15.700  0.00  0.00    +0.000 F 
ENDBRANCH   4  18
BRANCH   3  22
ATOM     22  C   UNL     1       3.926   3.161  19.284  0.00  0.00    +0.000 C 
ATOM     23  O   UNL     1       3.084   2.283  19.364  0.00  0.00    +0.000 OA
BRANCH  22  24
ATOM     24  O   UNL     1       5.228   2.940  19.593  0.00  0.00    +0.000 OA
ATOM     25  H   UNL     1       5.352   2.325  20.338  0.00  0.00    +0.000 HD
ENDBRANCH  22  24
ENDBRANCH   3  22
TORSDOF 7
ENDMDL
MODEL 9
REMARK VINA RESULT:      -7.1      1.375      1.677
REMARK  Name = 
REMARK  9 active torsions:
REMARK  status: ('A' for Active; 'I' for Inactive)
REMARK    1  A    between atoms: C_1  and  C_2
REMARK    2  A    between atoms: C_2  and  C_3
REMARK    3  A    between atoms: C_2  and  O_4
REMARK    4  A    between atoms: O_4  and  C_5
REMARK    5  A    between atoms: C_8  and  N_9
REMARK    6  A    between atoms: C_11  and  C_12
REMARK    7  A    between atoms: C_12  and  O_14
REMARK    8  A    between atoms: C_15  and  C_16
REMARK    9  A    between atoms: C_22  and  C_23
REMARK                            x       y       z     vdW  Elec       q    Type
REMARK                         _______ _______ _______ _____ _____    ______ ____
ROOT
ATOM      1  N   UNL     1       2.731   6.465  18.636  0.00  0.00    +0.000 N 
ATOM      2  C   UNL     1       3.961   6.195  18.083  0.00  0.00    +0.000 A 
ATOM      3  C   UNL     1       4.061   4.818  17.954  0.00  0.00    +0.000 A 
ATOM      4  C   UNL     1       2.822   4.318  18.446  0.00  0.00    +0.000 A 
ATOM      5  N   UNL     1       2.049   5.329  18.886  0.00  0.00    +0.000 NA
ENDROOT
BRANCH   1   9
ATOM      6  C   UNL     1       0.816  10.147  19.556  0.00  0.00    +0.000 A 
ATOM      7  C   UNL     1       1.124   9.816  18.226  0.00  0.00    +0.000 A 
ATOM      8  C   UNL     1       1.779   8.621  17.893  0.00  0.00    +0.000 A 
ATOM      9  C   UNL     1       2.127   7.726  18.906  0.00  0.00    +0.000 A 
ATOM     10  C   UNL     1       1.818   8.049  20.235  0.00  0.00    +0.000 A 
ATOM     11  C   UNL     1       1.142   9.235  20.568  0.00  0.00    +0.000 A 
BRANCH  11  12
ATOM     12  C   UNL     1       0.769   9.382  21.943  0.00  0.00    +0.000 C 
ATOM     13  N   UNL     1       0.494   9.475  23.064  0.00  0.00    +0.000 NA
ENDBRANCH  11  12
BRANCH   6  14
ATOM     14  O   UNL     1       0.126  11.323  19.680  0.00  0.00    +0.000 OA
BRANCH  14  16
ATOM     15  C   UNL     1      -2.147  11.616  18.974  0.00  0.00    +0.000 C 
ATOM     16  C   UNL     1      -0.679  11.786  18.588  0.00  0.00    +0.000 C 
ATOM     17  C   UNL     1      -0.376  13.265  18.360  0.00  0.00    +0.000 C 
ENDBRANCH  14  16
ENDBRANCH   6  14
ENDBRANCH   1   9
BRANCH   4  18
ATOM     18  C   UNL     1       2.314   2.894  18.471  0.00  0.00    +0.000 C 
ATOM     19  F   UNL     1       1.042   2.775  18.920  0.00  0.00    +0.000 F 
ATOM     20  F   UNL     1       2.365   2.308  17.247  0.00  0.00    +0.000 F 
ATOM     21  F   UNL     1       3.068   2.122  19.306  0.00  0.00    +0.000 F 
ENDBRANCH   4  18
BRANCH   3  22
ATOM     22  C   UNL     1       5.195   4.064  17.455  0.00  0.00    +0.000 C 
ATOM     23  O   UNL     1       5.304   3.708  16.294  0.00  0.00    +0.000 OA
BRANCH  22  24
ATOM     24  O   UNL     1       6.129   3.763  18.390  0.00  0.00    +0.000 OA
ATOM     25  H   UNL     1       6.538   2.888  18.266  0.00  0.00    +0.000 HD
ENDBRANCH  22  24
ENDBRANCH   3  22
TORSDOF 7
ENDMDL
