MODEL 1
REMARK VINA RESULT:      -8.8      0.000      0.000
REMARK  Name = 
REMARK  4 active torsions:
REMARK  status: ('A' for Active; 'I' for Inactive)
REMARK    1  A    between atoms: C_2  and  C_23
REMARK    2  A    between atoms: N_3  and  C_4
REMARK    3  A    between atoms: C_4  and  C_5
REMARK    4  A    between atoms: C_11  and  C_12
REMARK                            x       y       z     vdW  Elec       q    Type
REMARK                         _______ _______ _______ _____ _____    ______ ____
ROOT
ATOM      1  C   UNL     1       5.388   4.444  18.967  0.00  0.00    +0.000 C 
ATOM      2  C   UNL     1       4.361   5.428  18.348  0.00  0.00    +0.000 C 
ATOM      3  N   UNL     1       3.020   5.179  18.897  0.00  0.00    +0.000 N 
ATOM      4  C   UNL     1       2.334   6.235  19.458  0.00  0.00    +0.000 A 
ATOM      5  C   UNL     1       2.405   7.503  18.869  0.00  0.00    +0.000 A 
ATOM      6  C   UNL     1       1.766   8.596  19.444  0.00  0.00    +0.000 A 
ATOM      7  C   UNL     1       1.049   8.421  20.621  0.00  0.00    +0.000 A 
ATOM      8  C   UNL     1       1.016   7.140  21.148  0.00  0.00    +0.000 A 
ATOM      9  N   UNL     1       1.615   6.059  20.583  0.00  0.00    +0.000 NA
ATOM     10  C   UNL     1       2.638   3.763  19.073  0.00  0.00    +0.000 C 
ATOM     11  C   UNL     1       2.899   3.215  20.471  0.00  0.00    +0.000 C 
ATOM     12  C   UNL     1       4.375   2.805  20.462  0.00  0.00    +0.000 C 
ATOM     13  N   UNL     1       4.896   3.015  19.079  0.00  0.00    +0.000 NA
ATOM     14  C   UNL     1       3.632   2.873  18.286  0.00  0.00    +0.000 C 
ENDROOT
BRANCH   7  15
ATOM     15  C   UNL     1       0.326   9.547  21.288  0.00  0.00    +0.000 C 
ATOM     16  F   UNL     1      -0.627  10.119  20.497  0.00  0.00    +0.000 F 
ATOM     17  F   UNL     1      -0.321   9.154  22.419  0.00  0.00    +0.000 F 
ATOM     18  F   UNL     1       1.154  10.559  21.660  0.00  0.00    +0.000 F 
ENDBRANCH   7  15
BRANCH   1  19
ATOM     19  C   UNL     1       6.733   4.539  18.205  0.00  0.00    +0.000 C 
BRANCH  19  22
ATOM     20  O   UNL     1       7.399   6.201  16.004  0.00  0.00    +0.000 OA
ATOM     21  C   UNL     1       6.959   5.077  15.775  0.00  0.00    +0.000 C 
ATOM     22  N   UNL     1       6.591   4.213  16.783  0.00  0.00    +0.000 N 
ATOM     23  H   UNL     1       6.290   3.280  16.542  0.00  0.00    +0.000 HD
BRANCH  21  24
ATOM     24  C   UNL     1       6.822   4.571  14.423  0.00  0.00    +0.000 A 
ATOM     25  C   UNL     1       6.057   3.560  13.862  0.00  0.00    +0.000 A 
ATOM     26  C   UNL     1       6.299   3.550  12.465  0.00  0.00    +0.000 A 
ATOM     27 CL   UNL     1       5.563   2.508  11.347  0.00  0.00    +0.000 Cl
ATOM     28  C   UNL     1       7.219   4.534  12.196  0.00  0.00    +0.000 A 
ATOM     29  N   UNL     1       7.539   5.136  13.383  0.00  0.00    +0.000 N 
ATOM     30  H   UNL     1       8.190   5.903  13.505  0.00  0.00    +0.000 HD
ENDBRANCH  21  24
ENDBRANCH  19  22
ENDBRANCH   1  19
TORSDOF 4
ENDMDL
MODEL 2
REMARK VINA RESULT:      -8.6      1.327      1.612
REMARK  Name = 
REMARK  4 active torsions:
REMARK  status: ('A' for Active; 'I' for Inactive)
REMARK    1  A    between atoms: C_2  and  C_23
REMARK    2  A    between atoms: N_3  and  C_4
REMARK    3  A    between atoms: C_4  and  C_5
REMARK    4  A    between atoms: C_11  and  C_12
REMARK                            x       y       z     vdW  Elec       q    Type
REMARK                         _______ _______ _______ _____ _____    ______ ____
ROOT
ATOM      1  C   UNL     1       4.971   5.106  18.904  0.00  0.00    +0.000 C 
ATOM      2  C   UNL     1       4.192   6.057  17.957  0.00  0.00    +0.000 C 
ATOM      3  N   UNL     1       2.797   6.187  18.398  0.00  0.00    +0.000 N 
ATOM      4  C   UNL     1       2.289   7.451  18.609  0.00  0.00    +0.000 A 
ATOM      5  C   UNL     1       2.639   8.494  17.744  0.00  0.00    +0.000 A 
ATOM      6  C   UNL     1       2.184   9.790  17.965  0.00  0.00    +0.000 A 
ATOM      7  C   UNL     1       1.372  10.046  19.062  0.00  0.00    +0.000 A 
ATOM      8  C   UNL     1       1.062   8.968  19.876  0.00  0.00    +0.000 A 
ATOM      9  N   UNL     1       1.479   7.693  19.657  0.00  0.00    +0.000 NA
ATOM     10  C   UNL     1       2.141   4.948  18.867  0.00  0.00    +0.000 C 
ATOM     11  C   UNL     1       2.201   4.742  20.375  0.00  0.00    +0.000 C 
ATOM     12  C   UNL     1       3.570   4.101  20.629  0.00  0.00    +0.000 C 
ATOM     13  N   UNL     1       4.209   3.858  19.302  0.00  0.00    +0.000 NA
ATOM     14  C   UNL     1       2.995   3.731  18.432  0.00  0.00    +0.000 C 
ENDROOT
BRANCH   7  15
ATOM     15  C   UNL     1       0.836  11.411  19.355  0.00  0.00    +0.000 C 
ATOM     16  F   UNL     1      -0.516  11.431  19.538  0.00  0.00    +0.000 F 
ATOM     17  F   UNL     1       1.369  11.950  20.484  0.00  0.00    +0.000 F 
ATOM     18  F   UNL     1       1.086  12.301  18.358  0.00  0.00    +0.000 F 
ENDBRANCH   7  15
BRANCH   1  19
ATOM     19  C   UNL     1       6.355   4.774  18.295  0.00  0.00    +0.000 C 
BRANCH  19  22
ATOM     20  O   UNL     1       7.471   6.182  16.099  0.00  0.00    +0.000 OA
ATOM     21  C   UNL     1       6.857   5.142  15.875  0.00  0.00    +0.000 C 
ATOM     22  N   UNL     1       6.268   4.407  16.880  0.00  0.00    +0.000 N 
ATOM     23  H   UNL     1       5.825   3.529  16.648  0.00  0.00    +0.000 HD
BRANCH  21  24
ATOM     24  C   UNL     1       6.737   4.600  14.536  0.00  0.00    +0.000 A 
ATOM     25  C   UNL     1       5.946   3.604  13.984  0.00  0.00    +0.000 A 
ATOM     26  C   UNL     1       6.226   3.541  12.595  0.00  0.00    +0.000 A 
ATOM     27 CL   UNL     1       5.477   2.495  11.488  0.00  0.00    +0.000 Cl
ATOM     28  C   UNL     1       7.193   4.477  12.323  0.00  0.00    +0.000 A 
ATOM     29  N   UNL     1       7.505   5.102  13.500  0.00  0.00    +0.000 N 
ATOM     30  H   UNL     1       8.184   5.845  13.617  0.00  0.00    +0.000 HD
ENDBRANCH  21  24
ENDBRANCH  19  22
ENDBRANCH   1  19
TORSDOF 4
ENDMDL
MODEL 3
REMARK VINA RESULT:      -8.5      1.532      1.914
REMARK  Name = 
REMARK  4 active torsions:
REMARK  status: ('A' for Active; 'I' for Inactive)
REMARK    1  A    between atoms: C_2  and  C_23
REMARK    2  A    between atoms: N_3  and  C_4
REMARK    3  A    between atoms: C_4  and  C_5
REMARK    4  A    between atoms: C_11  and  C_12
REMARK                            x       y       z     vdW  Elec       q    Type
REMARK                         _______ _______ _______ _____ _____    ______ ____
ROOT
ATOM      1  C   UNL     1       5.123   6.419  17.787  0.00  0.00    +0.000 C 
ATOM      2  C   UNL     1       3.834   7.205  17.430  0.00  0.00    +0.000 C 
ATOM      3  N   UNL     1       2.736   6.820  18.328  0.00  0.00    +0.000 N 
ATOM      4  C   UNL     1       2.068   7.814  19.011  0.00  0.00    +0.000 A 
ATOM      5  C   UNL     1       1.792   9.030  18.376  0.00  0.00    +0.000 A 
ATOM      6  C   UNL     1       1.167  10.068  19.059  0.00  0.00    +0.000 A 
ATOM      7  C   UNL     1       0.816   9.890  20.391  0.00  0.00    +0.000 A 
ATOM      8  C   UNL     1       1.115   8.662  20.958  0.00  0.00    +0.000 A 
ATOM      9  N   UNL     1       1.703   7.630  20.295  0.00  0.00    +0.000 NA
ATOM     10  C   UNL     1       2.632   5.384  18.656  0.00  0.00    +0.000 C 
ATOM     11  C   UNL     1       3.327   4.986  19.953  0.00  0.00    +0.000 C 
ATOM     12  C   UNL     1       4.795   4.781  19.564  0.00  0.00    +0.000 C 
ATOM     13  N   UNL     1       4.900   4.951  18.084  0.00  0.00    +0.000 NA
ATOM     14  C   UNL     1       3.509   4.577  17.666  0.00  0.00    +0.000 C 
ENDROOT
BRANCH   7  15
ATOM     15  C   UNL     1       0.130  10.956  21.183  0.00  0.00    +0.000 C 
ATOM     16  F   UNL     1      -0.068  10.615  22.489  0.00  0.00    +0.000 F 
ATOM     17  F   UNL     1       0.832  12.121  21.209  0.00  0.00    +0.000 F 
ATOM     18  F   UNL     1      -1.100  11.269  20.693  0.00  0.00    +0.000 F 
ENDBRANCH   7  15
BRANCH   1  19
ATOM     19  C   UNL     1       6.193   6.636  16.689  0.00  0.00    +0.000 C 
BRANCH  19  22
ATOM     20  O   UNL     1       7.715   4.528  15.553  0.00  0.00    +0.000 OA
ATOM     21  C   UNL     1       6.677   4.867  14.990  0.00  0.00    +0.000 C 
ATOM     22  N   UNL     1       5.889   5.894  15.462  0.00  0.00    +0.000 N 
ATOM     23  H   UNL     1       5.017   6.095  14.994  0.00  0.00    +0.000 HD
BRANCH  21  24
ATOM     24  C   UNL     1       6.195   4.190  13.803  0.00  0.00    +0.000 A 
ATOM     25  C   UNL     1       4.945   4.089  13.210  0.00  0.00    +0.000 A 
ATOM     26  C   UNL     1       5.084   3.328  12.022  0.00  0.00    +0.000 A 
ATOM     27 CL   UNL     1       3.831   2.964  10.937  0.00  0.00    +0.000 Cl
ATOM     28  C   UNL     1       6.402   2.959  11.915  0.00  0.00    +0.000 A 
ATOM     29  N   UNL     1       7.063   3.471  12.999  0.00  0.00    +0.000 N 
ATOM     30  H   UNL     1       8.052   3.370  13.196  0.00  0.00    +0.000 HD
ENDBRANCH  21  24
ENDBRANCH  19  22
ENDBRANCH   1  19
TORSDOF 4
ENDMDL
MODEL 4
REMARK VINA RESULT:      -8.5      1.394      1.698
REMARK  Name = 
REMARK  4 active torsions:
REMARK  status: ('A' for Active; 'I' for Inactive)
REMARK    1  A    between atoms: C_2  and  C_23
REMARK    2  A    between atoms: N_3  and  C_4
REMARK    3  A    between atoms: C_4  and  C_5
REMARK    4  A    between atoms: C_11  and  C_12
REMARK                            x       y       z     vdW  Elec       q    Type
REMARK                         _______ _______ _______ _____ _____    ______ ____
ROOT
ATOM      1  C   UNL     1       5.040   4.833  18.158  0.00  0.00    +0.000 C 
ATOM      2  C   UNL     1       4.016   5.773  17.470  0.00  0.00    +0.000 C 
ATOM      3  N   UNL     1       2.777   5.842  18.257  0.00  0.00    +0.000 N 
ATOM      4  C   UNL     1       2.303   7.082  18.627  0.00  0.00    +0.000 A 
ATOM      5  C   UNL     1       2.386   8.154  17.732  0.00  0.00    +0.000 A 
ATOM      6  C   UNL     1       1.964   9.428  18.099  0.00  0.00    +0.000 A 
ATOM      7  C   UNL     1       1.454   9.633  19.375  0.00  0.00    +0.000 A 
ATOM      8  C   UNL     1       1.397   8.528  20.210  0.00  0.00    +0.000 A 
ATOM      9  N   UNL     1       1.782   7.274  19.855  0.00  0.00    +0.000 NA
ATOM     10  C   UNL     1       2.303   4.572  18.844  0.00  0.00    +0.000 C 
ATOM     11  C   UNL     1       2.755   4.338  20.280  0.00  0.00    +0.000 C 
ATOM     12  C   UNL     1       4.162   3.744  20.156  0.00  0.00    +0.000 C 
ATOM     13  N   UNL     1       4.446   3.550  18.703  0.00  0.00    +0.000 NA
ATOM     14  C   UNL     1       3.053   3.396  18.169  0.00  0.00    +0.000 C 
ENDROOT
BRANCH   7  15
ATOM     15  C   UNL     1       0.969  10.971  19.834  0.00  0.00    +0.000 C 
ATOM     16  F   UNL     1       1.701  12.009  19.337  0.00  0.00    +0.000 F 
ATOM     17  F   UNL     1      -0.317  11.215  19.463  0.00  0.00    +0.000 F 
ATOM     18  F   UNL     1       1.004  11.109  21.186  0.00  0.00    +0.000 F 
ENDBRANCH   7  15
BRANCH   1  19
ATOM     19  C   UNL     1       6.231   4.565  17.206  0.00  0.00    +0.000 C 
BRANCH  19  22
ATOM     20  O   UNL     1       7.476   5.135  14.720  0.00  0.00    +0.000 OA
ATOM     21  C   UNL     1       6.472   4.427  14.722  0.00  0.00    +0.000 C 
ATOM     22  N   UNL     1       5.794   4.117  15.880  0.00  0.00    +0.000 N 
ATOM     23  H   UNL     1       5.010   3.483  15.833  0.00  0.00    +0.000 HD
BRANCH  21  24
ATOM     24  C   UNL     1       5.947   3.843  13.503  0.00  0.00    +0.000 A 
ATOM     25  C   UNL     1       4.719   3.926  12.865  0.00  0.00    +0.000 A 
ATOM     26  C   UNL     1       4.797   3.175  11.664  0.00  0.00    +0.000 A 
ATOM     27 CL   UNL     1       3.549   3.006  10.528  0.00  0.00    +0.000 Cl
ATOM     28  C   UNL     1       6.056   2.630  11.596  0.00  0.00    +0.000 A 
ATOM     29  N   UNL     1       6.739   3.026  12.714  0.00  0.00    +0.000 N 
ATOM     30  H   UNL     1       7.696   2.787  12.944  0.00  0.00    +0.000 HD
ENDBRANCH  21  24
ENDBRANCH  19  22
ENDBRANCH   1  19
TORSDOF 4
ENDMDL
MODEL 5
REMARK VINA RESULT:      -8.4      4.002      4.795
REMARK  Name = 
REMARK  4 active torsions:
REMARK  status: ('A' for Active; 'I' for Inactive)
REMARK    1  A    between atoms: C_2  and  C_23
REMARK    2  A    between atoms: N_3  and  C_4
REMARK    3  A    between atoms: C_4  and  C_5
REMARK    4  A    between atoms: C_11  and  C_12
REMARK                            x       y       z     vdW  Elec       q    Type
REMARK                         _______ _______ _______ _____ _____    ______ ____
ROOT
ATOM      1  C   UNL     1       5.718   5.999  17.546  0.00  0.00    +0.000 C 
ATOM      2  C   UNL     1       4.401   6.782  17.302  0.00  0.00    +0.000 C 
ATOM      3  N   UNL     1       3.282   6.129  17.997  0.00  0.00    +0.000 N 
ATOM      4  C   UNL     1       2.512   6.884  18.855  0.00  0.00    +0.000 A 
ATOM      5  C   UNL     1       2.190   8.205  18.521  0.00  0.00    +0.000 A 
ATOM      6  C   UNL     1       1.459   9.005  19.393  0.00  0.00    +0.000 A 
ATOM      7  C   UNL     1       1.046   8.482  20.611  0.00  0.00    +0.000 A 
ATOM      8  C   UNL     1       1.395   7.167  20.877  0.00  0.00    +0.000 A 
ATOM      9  N   UNL     1       2.087   6.366  20.024  0.00  0.00    +0.000 NA
ATOM     10  C   UNL     1       3.256   4.653  17.952  0.00  0.00    +0.000 C 
ATOM     11  C   UNL     1       3.902   3.979  19.156  0.00  0.00    +0.000 C 
ATOM     12  C   UNL     1       5.400   3.952  18.834  0.00  0.00    +0.000 C 
ATOM     13  N   UNL     1       5.577   4.493  17.454  0.00  0.00    +0.000 NA
ATOM     14  C   UNL     1       4.240   4.166  16.858  0.00  0.00    +0.000 C 
ENDROOT
BRANCH   7  15
ATOM     15  C   UNL     1       0.246   9.279  21.591  0.00  0.00    +0.000 C 
ATOM     16  F   UNL     1      -0.766   8.568  22.166  0.00  0.00    +0.000 F 
ATOM     17  F   UNL     1       1.000   9.746  22.623  0.00  0.00    +0.000 F 
ATOM     18  F   UNL     1      -0.341  10.369  21.029  0.00  0.00    +0.000 F 
ENDBRANCH   7  15
BRANCH   1  19
ATOM     19  C   UNL     1       6.831   6.538  16.614  0.00  0.00    +0.000 C 
BRANCH  19  22
ATOM     20  O   UNL     1       8.441   7.092  18.884  0.00  0.00    +0.000 OA
ATOM     21  C   UNL     1       8.123   8.026  18.151  0.00  0.00    +0.000 C 
ATOM     22  N   UNL     1       7.327   7.849  17.041  0.00  0.00    +0.000 N 
ATOM     23  H   UNL     1       7.144   8.640  16.441  0.00  0.00    +0.000 HD
BRANCH  21  24
ATOM     24  C   UNL     1       8.589   9.378  18.391  0.00  0.00    +0.000 A 
ATOM     25  C   UNL     1       8.478  10.559  17.675  0.00  0.00    +0.000 A 
ATOM     26  C   UNL     1       9.092  11.590  18.432  0.00  0.00    +0.000 A 
ATOM     27 CL   UNL     1       9.178  13.222  17.979  0.00  0.00    +0.000 Cl
ATOM     28  C   UNL     1       9.585  11.024  19.581  0.00  0.00    +0.000 A 
ATOM     29  N   UNL     1       9.289   9.688  19.544  0.00  0.00    +0.000 N 
ATOM     30  H   UNL     1       9.521   9.006  20.257  0.00  0.00    +0.000 HD
ENDBRANCH  21  24
ENDBRANCH  19  22
ENDBRANCH   1  19
TORSDOF 4
ENDMDL
MODEL 6
REMARK VINA RESULT:      -8.2      1.068      1.295
REMARK  Name = 
REMARK  4 active torsions:
REMARK  status: ('A' for Active; 'I' for Inactive)
REMARK    1  A    between atoms: C_2  and  C_23
REMARK    2  A    between atoms: N_3  and  C_4
REMARK    3  A    between atoms: C_4  and  C_5
REMARK    4  A    between atoms: C_11  and  C_12
REMARK                            x       y       z     vdW  Elec       q    Type
REMARK                         _______ _______ _______ _____ _____    ______ ____
ROOT
ATOM      1  C   UNL     1       4.410   4.302  19.744  0.00  0.00    +0.000 C 
ATOM      2  C   UNL     1       3.700   5.445  18.972  0.00  0.00    +0.000 C 
ATOM      3  N   UNL     1       2.282   5.514  19.351  0.00  0.00    +0.000 N 
ATOM      4  C   UNL     1       1.777   6.719  19.790  0.00  0.00    +0.000 A 
ATOM      5  C   UNL     1       2.190   7.909  19.179  0.00  0.00    +0.000 A 
ATOM      6  C   UNL     1       1.737   9.142  19.638  0.00  0.00    +0.000 A 
ATOM      7  C   UNL     1       0.864   9.186  20.717  0.00  0.00    +0.000 A 
ATOM      8  C   UNL     1       0.494   7.972  21.272  0.00  0.00    +0.000 A 
ATOM      9  N   UNL     1       0.908   6.759  20.818  0.00  0.00    +0.000 NA
ATOM     10  C   UNL     1       1.586   4.221  19.517  0.00  0.00    +0.000 C 
ATOM     11  C   UNL     1       1.554   3.708  20.951  0.00  0.00    +0.000 C 
ATOM     12  C   UNL     1       2.897   2.997  21.143  0.00  0.00    +0.000 C 
ATOM     13  N   UNL     1       3.612   3.017  19.832  0.00  0.00    +0.000 NA
ATOM     14  C   UNL     1       2.451   3.100  18.888  0.00  0.00    +0.000 C 
ENDROOT
BRANCH   7  15
ATOM     15  C   UNL     1       0.326  10.474  21.254  0.00  0.00    +0.000 C 
ATOM     16  F   UNL     1       1.135  11.543  21.002  0.00  0.00    +0.000 F 
ATOM     17  F   UNL     1      -0.885  10.795  20.725  0.00  0.00    +0.000 F 
ATOM     18  F   UNL     1       0.154  10.451  22.603  0.00  0.00    +0.000 F 
ENDBRANCH   7  15
BRANCH   1  19
ATOM     19  C   UNL     1       5.825   4.070  19.158  0.00  0.00    +0.000 C 
BRANCH  19  22
ATOM     20  O   UNL     1       7.794   5.188  17.449  0.00  0.00    +0.000 OA
ATOM     21  C   UNL     1       6.836   4.612  16.938  0.00  0.00    +0.000 C 
ATOM     22  N   UNL     1       5.825   4.059  17.693  0.00  0.00    +0.000 N 
ATOM     23  H   UNL     1       5.092   3.547  17.225  0.00  0.00    +0.000 HD
BRANCH  21  24
ATOM     24  C   UNL     1       6.719   4.451  15.502  0.00  0.00    +0.000 A 
ATOM     25  C   UNL     1       5.893   3.680  14.699  0.00  0.00    +0.000 A 
ATOM     26  C   UNL     1       6.201   3.971  13.346  0.00  0.00    +0.000 A 
ATOM     27 CL   UNL     1       5.427   3.297  11.995  0.00  0.00    +0.000 Cl
ATOM     28  C   UNL     1       7.218   4.893  13.340  0.00  0.00    +0.000 A 
ATOM     29  N   UNL     1       7.535   5.167  14.643  0.00  0.00    +0.000 N 
ATOM     30  H   UNL     1       8.246   5.815  14.959  0.00  0.00    +0.000 HD
ENDBRANCH  21  24
ENDBRANCH  19  22
ENDBRANCH   1  19
TORSDOF 4
ENDMDL
MODEL 7
REMARK VINA RESULT:      -8.2      0.962      1.310
REMARK  Name = 
REMARK  4 active torsions:
REMARK  status: ('A' for Active; 'I' for Inactive)
REMARK    1  A    between atoms: C_2  and  C_23
REMARK    2  A    between atoms: N_3  and  C_4
REMARK    3  A    between atoms: C_4  and  C_5
REMARK    4  A    between atoms: C_11  and  C_12
REMARK                            x       y       z     vdW  Elec       q    Type
REMARK                         _______ _______ _______ _____ _____    ______ ____
ROOT
ATOM      1  C   UNL     1       5.074   4.261  18.520  0.00  0.00    +0.000 C 
ATOM      2  C   UNL     1       4.029   5.251  17.944  0.00  0.00    +0.000 C 
ATOM      3  N   UNL     1       2.774   5.168  18.703  0.00  0.00    +0.000 N 
ATOM      4  C   UNL     1       2.247   6.329  19.229  0.00  0.00    +0.000 A 
ATOM      5  C   UNL     1       2.307   7.517  18.492  0.00  0.00    +0.000 A 
ATOM      6  C   UNL     1       1.831   8.712  19.021  0.00  0.00    +0.000 A 
ATOM      7  C   UNL     1       1.290   8.720  20.300  0.00  0.00    +0.000 A 
ATOM      8  C   UNL     1       1.258   7.510  20.974  0.00  0.00    +0.000 A 
ATOM      9  N   UNL     1       1.696   6.330  20.459  0.00  0.00    +0.000 NA
ATOM     10  C   UNL     1       2.336   3.814  19.097  0.00  0.00    +0.000 C 
ATOM     11  C   UNL     1       2.769   3.399  20.498  0.00  0.00    +0.000 C 
ATOM     12  C   UNL     1       4.199   2.876  20.327  0.00  0.00    +0.000 C 
ATOM     13  N   UNL     1       4.518   2.895  18.868  0.00  0.00    +0.000 NA
ATOM     14  C   UNL     1       3.142   2.769  18.286  0.00  0.00    +0.000 C 
ENDROOT
BRANCH   7  15
ATOM     15  C   UNL     1       0.747   9.964  20.928  0.00  0.00    +0.000 C 
ATOM     16  F   UNL     1       0.925  10.008  22.279  0.00  0.00    +0.000 F 
ATOM     17  F   UNL     1       1.333  11.092  20.442  0.00  0.00    +0.000 F 
ATOM     18  F   UNL     1      -0.589  10.116  20.726  0.00  0.00    +0.000 F 
ENDBRANCH   7  15
BRANCH   1  19
ATOM     19  C   UNL     1       6.292   4.168  17.568  0.00  0.00    +0.000 C 
BRANCH  19  22
ATOM     20  O   UNL     1       6.711   5.644  15.182  0.00  0.00    +0.000 OA
ATOM     21  C   UNL     1       6.168   4.544  15.101  0.00  0.00    +0.000 C 
ATOM     22  N   UNL     1       5.909   3.771  16.211  0.00  0.00    +0.000 N 
ATOM     23  H   UNL     1       5.514   2.850  16.083  0.00  0.00    +0.000 HD
BRANCH  21  24
ATOM     24  C   UNL     1       5.789   3.972  13.824  0.00  0.00    +0.000 A 
ATOM     25  C   UNL     1       4.643   4.061  13.048  0.00  0.00    +0.000 A 
ATOM     26  C   UNL     1       4.860   3.320  11.859  0.00  0.00    +0.000 A 
ATOM     27 CL   UNL     1       3.753   3.163  10.583  0.00  0.00    +0.000 Cl
ATOM     28  C   UNL     1       6.119   2.776  11.932  0.00  0.00    +0.000 A 
ATOM     29  N   UNL     1       6.667   3.161  13.126  0.00  0.00    +0.000 N 
ATOM     30  H   UNL     1       7.591   2.919  13.463  0.00  0.00    +0.000 HD
ENDBRANCH  21  24
ENDBRANCH  19  22
ENDBRANCH   1  19
TORSDOF 4
ENDMDL
MODEL 8
REMARK VINA RESULT:      -8.1      4.186      4.947
REMARK  Name = 
REMARK  4 active torsions:
REMARK  status: ('A' for Active; 'I' for Inactive)
REMARK    1  A    between atoms: C_2  and  C_23
REMARK    2  A    between atoms: N_3  and  C_4
REMARK    3  A    between atoms: C_4  and  C_5
REMARK    4  A    between atoms: C_11  and  C_12
REMARK                            x       y       z     vdW  Elec       q    Type
REMARK                         _______ _______ _______ _____ _____    ______ ____
ROOT
ATOM      1  C   UNL     1       5.772   6.162  17.646  0.00  0.00    +0.000 C 
ATOM      2  C   UNL     1       4.452   6.907  17.319  0.00  0.00    +0.000 C 
ATOM      3  N   UNL     1       3.321   6.270  18.009  0.00  0.00    +0.000 N 
ATOM      4  C   UNL     1       2.510   7.053  18.802  0.00  0.00    +0.000 A 
ATOM      5  C   UNL     1       2.178   8.349  18.390  0.00  0.00    +0.000 A 
ATOM      6  C   UNL     1       1.404   9.179  19.196  0.00  0.00    +0.000 A 
ATOM      7  C   UNL     1       0.960   8.710  20.425  0.00  0.00    +0.000 A 
ATOM      8  C   UNL     1       1.321   7.417  20.769  0.00  0.00    +0.000 A 
ATOM      9  N   UNL     1       2.055   6.587  19.981  0.00  0.00    +0.000 NA
ATOM     10  C   UNL     1       3.322   4.793  18.039  0.00  0.00    +0.000 C 
ATOM     11  C   UNL     1       3.938   4.193  19.296  0.00  0.00    +0.000 C 
ATOM     12  C   UNL     1       5.446   4.178  19.026  0.00  0.00    +0.000 C 
ATOM     13  N   UNL     1       5.660   4.651  17.626  0.00  0.00    +0.000 NA
ATOM     14  C   UNL     1       4.350   4.270  17.004  0.00  0.00    +0.000 C 
ENDROOT
BRANCH   7  15
ATOM     15  C   UNL     1       0.114   9.540  21.336  0.00  0.00    +0.000 C 
ATOM     16  F   UNL     1       0.824  10.481  22.023  0.00  0.00    +0.000 F 
ATOM     17  F   UNL     1      -0.856  10.224  20.670  0.00  0.00    +0.000 F 
ATOM     18  F   UNL     1      -0.528   8.801  22.280  0.00  0.00    +0.000 F 
ENDBRANCH   7  15
BRANCH   1  19
ATOM     19  C   UNL     1       6.907   6.674  16.725  0.00  0.00    +0.000 C 
BRANCH  19  22
ATOM     20  O   UNL     1       8.529   7.275  18.974  0.00  0.00    +0.000 OA
ATOM     21  C   UNL     1       8.200   8.195  18.229  0.00  0.00    +0.000 C 
ATOM     22  N   UNL     1       7.398   7.995  17.127  0.00  0.00    +0.000 N 
ATOM     23  H   UNL     1       7.205   8.775  16.516  0.00  0.00    +0.000 HD
BRANCH  21  24
ATOM     24  C   UNL     1       8.658   9.553  18.445  0.00  0.00    +0.000 A 
ATOM     25  C   UNL     1       9.467  10.139  19.405  0.00  0.00    +0.000 A 
ATOM     26  C   UNL     1       9.611  11.512  19.079  0.00  0.00    +0.000 A 
ATOM     27 CL   UNL     1      10.542  12.635  19.946  0.00  0.00    +0.000 Cl
ATOM     28  C   UNL     1       8.876  11.748  17.944  0.00  0.00    +0.000 A 
ATOM     29  N   UNL     1       8.293  10.566  17.575  0.00  0.00    +0.000 N 
ATOM     30  H   UNL     1       7.694  10.423  16.771  0.00  0.00    +0.000 HD
ENDBRANCH  21  24
ENDBRANCH  19  22
ENDBRANCH   1  19
TORSDOF 4
ENDMDL
MODEL 9
REMARK VINA RESULT:      -7.9      3.349      4.096
REMARK  Name = 
REMARK  4 active torsions:
REMARK  status: ('A' for Active; 'I' for Inactive)
REMARK    1  A    between atoms: C_2  and  C_23
REMARK    2  A    between atoms: N_3  and  C_4
REMARK    3  A    between atoms: C_4  and  C_5
REMARK    4  A    between atoms: C_11  and  C_12
REMARK                            x       y       z     vdW  Elec       q    Type
REMARK                         _______ _______ _______ _____ _____    ______ ____
ROOT
ATOM      1  C   UNL     1       5.484   4.666  19.029  0.00  0.00    +0.000 C 
ATOM      2  C   UNL     1       4.464   5.670  18.430  0.00  0.00    +0.000 C 
ATOM      3  N   UNL     1       3.103   5.348  18.882  0.00  0.00    +0.000 N 
ATOM      4  C   UNL     1       2.358   6.339  19.482  0.00  0.00    +0.000 A 
ATOM      5  C   UNL     1       2.425   7.650  18.996  0.00  0.00    +0.000 A 
ATOM      6  C   UNL     1       1.724   8.679  19.617  0.00  0.00    +0.000 A 
ATOM      7  C   UNL     1       0.950   8.397  20.734  0.00  0.00    +0.000 A 
ATOM      8  C   UNL     1       0.925   7.078  21.160  0.00  0.00    +0.000 A 
ATOM      9  N   UNL     1       1.584   6.059  20.549  0.00  0.00    +0.000 NA
ATOM     10  C   UNL     1       2.753   3.913  18.928  0.00  0.00    +0.000 C 
ATOM     11  C   UNL     1       2.953   3.264  20.292  0.00  0.00    +0.000 C 
ATOM     12  C   UNL     1       4.438   2.893  20.336  0.00  0.00    +0.000 C 
ATOM     13  N   UNL     1       5.027   3.222  19.004  0.00  0.00    +0.000 NA
ATOM     14  C   UNL     1       3.813   3.111  18.132  0.00  0.00    +0.000 C 
ENDROOT
BRANCH   7  15
ATOM     15  C   UNL     1       0.160   9.449  21.443  0.00  0.00    +0.000 C 
ATOM     16  F   UNL     1      -0.764  10.059  20.646  0.00  0.00    +0.000 F 
ATOM     17  F   UNL     1      -0.536   8.955  22.503  0.00  0.00    +0.000 F 
ATOM     18  F   UNL     1       0.938  10.449  21.938  0.00  0.00    +0.000 F 
ENDBRANCH   7  15
BRANCH   1  19
ATOM     19  C   UNL     1       6.864   4.853  18.353  0.00  0.00    +0.000 C 
BRANCH  19  22
ATOM     20  O   UNL     1       7.520   6.792  16.389  0.00  0.00    +0.000 OA
ATOM     21  C   UNL     1       7.696   7.076  17.572  0.00  0.00    +0.000 C 
ATOM     22  N   UNL     1       7.424   6.187  18.588  0.00  0.00    +0.000 N 
ATOM     23  H   UNL     1       7.531   6.490  19.544  0.00  0.00    +0.000 HD
BRANCH  21  24
ATOM     24  C   UNL     1       8.178   8.381  17.981  0.00  0.00    +0.000 A 
ATOM     25  C   UNL     1       8.086   9.644  17.418  0.00  0.00    +0.000 A 
ATOM     26  C   UNL     1       8.710  10.563  18.300  0.00  0.00    +0.000 A 
ATOM     27 CL   UNL     1       8.819  12.239  18.056  0.00  0.00    +0.000 Cl
ATOM     28  C   UNL     1       9.189   9.851  19.371  0.00  0.00    +0.000 A 
ATOM     29  N   UNL     1       8.877   8.535  19.165  0.00  0.00    +0.000 N 
ATOM     30  H   UNL     1       9.096   7.766  19.789  0.00  0.00    +0.000 HD
ENDBRANCH  21  24
ENDBRANCH  19  22
ENDBRANCH   1  19
TORSDOF 4
ENDMDL
