MODEL 1
REMARK VINA RESULT:      -5.6      0.000      0.000
REMARK  Name = 
REMARK  6 active torsions:
REMARK  status: ('A' for Active; 'I' for Inactive)
REMARK    1  A    between atoms: C_1  and  O_2
REMARK    2  A    between atoms: O_2  and  C_3
REMARK    3  A    between atoms: C_3  and  C_4
REMARK    4  A    between atoms: N_6  and  C_7
REMARK    5  A    between atoms: C_10  and  C_11
REMARK    6  A    between atoms: C_11  and  O_12
REMARK                            x       y       z     vdW  Elec       q    Type
REMARK                         _______ _______ _______ _____ _____    ______ ____
ROOT
ATOM      1  C   UNL     1       4.502   5.103  19.312  0.00  0.00    +0.000 C 
ATOM      2  C   UNL     1       3.142   5.811  19.434  0.00  0.00    +0.000 C 
ATOM      3  C   UNL     1       2.203   5.124  20.426  0.00  0.00    +0.000 C 
ATOM      4  C   UNL     1       2.045   3.628  20.110  0.00  0.00    +0.000 C 
ATOM      5  C   UNL     1       3.419   2.947  20.108  0.00  0.00    +0.000 C 
ATOM      6  C   UNL     1       4.359   3.592  19.089  0.00  0.00    +0.000 C 
ENDROOT
BRANCH   1   9
ATOM      7  C   UNL     1       6.738   5.784  18.388  0.00  0.00    +0.000 C 
ATOM      8  O   UNL     1       7.400   5.323  19.311  0.00  0.00    +0.000 OA
ATOM      9  N   UNL     1       5.362   5.729  18.307  0.00  0.00    +0.000 N 
ATOM     10  H   UNL     1       4.927   6.311  17.600  0.00  0.00    +0.000 HD
BRANCH   7  11
ATOM     11  C   UNL     1       7.398   6.451  17.174  0.00  0.00    +0.000 C 
BRANCH  11  13
ATOM     12  C   UNL     1       8.059   8.595  17.895  0.00  0.00    +0.000 C 
ATOM     13  O   UNL     1       7.171   7.850  17.067  0.00  0.00    +0.000 OA
ENDBRANCH  11  13
ENDBRANCH   7  11
ENDBRANCH   1   9
BRANCH   4  14
ATOM     14  C   UNL     1       1.101   2.933  21.098  0.00  0.00    +0.000 C 
BRANCH  14  15
ATOM     15  O   UNL     1       1.814   2.454  22.229  0.00  0.00    +0.000 OA
ATOM     16  H   UNL     1       1.332   1.682  22.574  0.00  0.00    +0.000 HD
ENDBRANCH  14  15
ENDBRANCH   4  14
TORSDOF 5
ENDMDL
MODEL 2
REMARK VINA RESULT:      -5.5      2.091      2.501
REMARK  Name = 
REMARK  6 active torsions:
REMARK  status: ('A' for Active; 'I' for Inactive)
REMARK    1  A    between atoms: C_1  and  O_2
REMARK    2  A    between atoms: O_2  and  C_3
REMARK    3  A    between atoms: C_3  and  C_4
REMARK    4  A    between atoms: N_6  and  C_7
REMARK    5  A    between atoms: C_10  and  C_11
REMARK    6  A    between atoms: C_11  and  O_12
REMARK                            x       y       z     vdW  Elec       q    Type
REMARK                         _______ _______ _______ _____ _____    ______ ____
ROOT
ATOM      1  C   UNL     1       4.490   3.749  18.243  0.00  0.00    +0.000 C 
ATOM      2  C   UNL     1       3.796   4.925  18.950  0.00  0.00    +0.000 C 
ATOM      3  C   UNL     1       2.993   4.489  20.176  0.00  0.00    +0.000 C 
ATOM      4  C   UNL     1       2.007   3.362  19.834  0.00  0.00    +0.000 C 
ATOM      5  C   UNL     1       2.763   2.171  19.233  0.00  0.00    +0.000 C 
ATOM      6  C   UNL     1       3.537   2.577  17.978  0.00  0.00    +0.000 C 
ENDROOT
BRANCH   1   9
ATOM      7  C   UNL     1       6.542   4.458  16.975  0.00  0.00    +0.000 C 
ATOM      8  O   UNL     1       7.305   4.404  17.933  0.00  0.00    +0.000 OA
ATOM      9  N   UNL     1       5.194   4.170  17.031  0.00  0.00    +0.000 N 
ATOM     10  H   UNL     1       4.641   4.439  16.225  0.00  0.00    +0.000 HD
BRANCH   7  11
ATOM     11  C   UNL     1       7.034   4.825  15.569  0.00  0.00    +0.000 C 
BRANCH  11  13
ATOM     12  C   UNL     1       6.253   3.872  13.560  0.00  0.00    +0.000 C 
ATOM     13  O   UNL     1       6.022   4.849  14.571  0.00  0.00    +0.000 OA
ENDBRANCH  11  13
ENDBRANCH   7  11
ENDBRANCH   1   9
BRANCH   4  14
ATOM     14  C   UNL     1       1.195   2.923  21.058  0.00  0.00    +0.000 C 
BRANCH  14  15
ATOM     15  O   UNL     1       1.997   2.941  22.231  0.00  0.00    +0.000 OA
ATOM     16  H   UNL     1       1.890   3.815  22.646  0.00  0.00    +0.000 HD
ENDBRANCH  14  15
ENDBRANCH   4  14
TORSDOF 5
ENDMDL
MODEL 3
REMARK VINA RESULT:      -5.5      2.942      3.588
REMARK  Name = 
REMARK  6 active torsions:
REMARK  status: ('A' for Active; 'I' for Inactive)
REMARK    1  A    between atoms: C_1  and  O_2
REMARK    2  A    between atoms: O_2  and  C_3
REMARK    3  A    between atoms: C_3  and  C_4
REMARK    4  A    between atoms: N_6  and  C_7
REMARK    5  A    between atoms: C_10  and  C_11
REMARK    6  A    between atoms: C_11  and  O_12
REMARK                            x       y       z     vdW  Elec       q    Type
REMARK                         _______ _______ _______ _____ _____    ______ ____
ROOT
ATOM      1  C   UNL     1       4.061   4.659  17.106  0.00  0.00    +0.000 C 
ATOM      2  C   UNL     1       3.031   3.526  17.245  0.00  0.00    +0.000 C 
ATOM      3  C   UNL     1       2.024   3.774  18.369  0.00  0.00    +0.000 C 
ATOM      4  C   UNL     1       2.729   4.075  19.701  0.00  0.00    +0.000 C 
ATOM      5  C   UNL     1       3.662   5.281  19.537  0.00  0.00    +0.000 C 
ATOM      6  C   UNL     1       4.706   5.034  18.447  0.00  0.00    +0.000 C 
ENDROOT
BRANCH   1   9
ATOM      7  C   UNL     1       5.647   5.334  15.276  0.00  0.00    +0.000 C 
ATOM      8  O   UNL     1       5.396   6.533  15.330  0.00  0.00    +0.000 OA
ATOM      9  N   UNL     1       5.060   4.375  16.076  0.00  0.00    +0.000 N 
ATOM     10  H   UNL     1       5.206   3.409  15.803  0.00  0.00    +0.000 HD
BRANCH   7  11
ATOM     11  C   UNL     1       6.700   4.771  14.314  0.00  0.00    +0.000 C 
BRANCH  11  13
ATOM     12  C   UNL     1       6.444   3.596  12.287  0.00  0.00    +0.000 C 
ATOM     13  O   UNL     1       6.352   3.533  13.707  0.00  0.00    +0.000 OA
ENDBRANCH  11  13
ENDBRANCH   7  11
ENDBRANCH   1   9
BRANCH   4  14
ATOM     14  C   UNL     1       1.726   4.320  20.834  0.00  0.00    +0.000 C 
BRANCH  14  15
ATOM     15  O   UNL     1       0.439   3.827  20.488  0.00  0.00    +0.000 OA
ATOM     16  H   UNL     1       0.010   3.527  21.309  0.00  0.00    +0.000 HD
ENDBRANCH  14  15
ENDBRANCH   4  14
TORSDOF 5
ENDMDL
MODEL 4
REMARK VINA RESULT:      -5.5      2.666      6.337
REMARK  Name = 
REMARK  6 active torsions:
REMARK  status: ('A' for Active; 'I' for Inactive)
REMARK    1  A    between atoms: C_1  and  O_2
REMARK    2  A    between atoms: O_2  and  C_3
REMARK    3  A    between atoms: C_3  and  C_4
REMARK    4  A    between atoms: N_6  and  C_7
REMARK    5  A    between atoms: C_10  and  C_11
REMARK    6  A    between atoms: C_11  and  O_12
REMARK                            x       y       z     vdW  Elec       q    Type
REMARK                         _______ _______ _______ _____ _____    ______ ____
ROOT
ATOM      1  C   UNL     1       3.557   4.872  17.385  0.00  0.00    +0.000 C 
ATOM      2  C   UNL     1       4.408   6.132  17.156  0.00  0.00    +0.000 C 
ATOM      3  C   UNL     1       5.224   6.069  15.863  0.00  0.00    +0.000 C 
ATOM      4  C   UNL     1       6.065   4.786  15.789  0.00  0.00    +0.000 C 
ATOM      5  C   UNL     1       5.156   3.557  15.913  0.00  0.00    +0.000 C 
ATOM      6  C   UNL     1       4.365   3.579  17.222  0.00  0.00    +0.000 C 
ENDROOT
BRANCH   1   9
ATOM      7  C   UNL     1       1.676   4.221  18.921  0.00  0.00    +0.000 C 
ATOM      8  O   UNL     1       1.103   3.495  18.115  0.00  0.00    +0.000 OA
ATOM      9  N   UNL     1       2.839   4.915  18.660  0.00  0.00    +0.000 N 
ATOM     10  H   UNL     1       3.102   5.625  19.334  0.00  0.00    +0.000 HD
BRANCH   7  11
ATOM     11  C   UNL     1       1.160   4.403  20.354  0.00  0.00    +0.000 C 
BRANCH  11  13
ATOM     12  C   UNL     1       2.307   2.763  21.599  0.00  0.00    +0.000 C 
ATOM     13  O   UNL     1       2.124   4.156  21.370  0.00  0.00    +0.000 OA
ENDBRANCH  11  13
ENDBRANCH   7  11
ENDBRANCH   1   9
BRANCH   4  14
ATOM     14  C   UNL     1       6.889   4.718  14.497  0.00  0.00    +0.000 C 
BRANCH  14  15
ATOM     15  O   UNL     1       7.957   5.654  14.528  0.00  0.00    +0.000 OA
ATOM     16  H   UNL     1       8.119   5.944  13.612  0.00  0.00    +0.000 HD
ENDBRANCH  14  15
ENDBRANCH   4  14
TORSDOF 5
ENDMDL
MODEL 5
REMARK VINA RESULT:      -5.5      2.472      2.746
REMARK  Name = 
REMARK  6 active torsions:
REMARK  status: ('A' for Active; 'I' for Inactive)
REMARK    1  A    between atoms: C_1  and  O_2
REMARK    2  A    between atoms: O_2  and  C_3
REMARK    3  A    between atoms: C_3  and  C_4
REMARK    4  A    between atoms: N_6  and  C_7
REMARK    5  A    between atoms: C_10  and  C_11
REMARK    6  A    between atoms: C_11  and  O_12
REMARK                            x       y       z     vdW  Elec       q    Type
REMARK                         _______ _______ _______ _____ _____    ______ ____
ROOT
ATOM      1  C   UNL     1       4.328   4.456  17.440  0.00  0.00    +0.000 C 
ATOM      2  C   UNL     1       3.548   5.744  17.751  0.00  0.00    +0.000 C 
ATOM      3  C   UNL     1       2.786   5.670  19.075  0.00  0.00    +0.000 C 
ATOM      4  C   UNL     1       1.888   4.425  19.141  0.00  0.00    +0.000 C 
ATOM      5  C   UNL     1       2.732   3.162  18.933  0.00  0.00    +0.000 C 
ATOM      6  C   UNL     1       3.467   3.196  17.592  0.00  0.00    +0.000 C 
ENDROOT
BRANCH   1   9
ATOM      7  C   UNL     1       6.360   4.469  15.959  0.00  0.00    +0.000 C 
ATOM      8  O   UNL     1       7.177   4.384  16.869  0.00  0.00    +0.000 OA
ATOM      9  N   UNL     1       4.993   4.514  16.137  0.00  0.00    +0.000 N 
ATOM     10  H   UNL     1       4.440   4.780  15.329  0.00  0.00    +0.000 HD
BRANCH   7  11
ATOM     11  C   UNL     1       6.789   4.495  14.487  0.00  0.00    +0.000 C 
BRANCH  11  13
ATOM     12  C   UNL     1       8.082   5.479  12.779  0.00  0.00    +0.000 C 
ATOM     13  O   UNL     1       7.780   5.463  14.171  0.00  0.00    +0.000 OA
ENDBRANCH  11  13
ENDBRANCH   7  11
ENDBRANCH   1   9
BRANCH   4  14
ATOM     14  C   UNL     1       1.118   4.347  20.464  0.00  0.00    +0.000 C 
BRANCH  14  15
ATOM     15  O   UNL     1       0.591   3.043  20.667  0.00  0.00    +0.000 OA
ATOM     16  H   UNL     1       0.562   2.885  21.628  0.00  0.00    +0.000 HD
ENDBRANCH  14  15
ENDBRANCH   4  14
TORSDOF 5
ENDMDL
MODEL 6
REMARK VINA RESULT:      -5.5      0.988      1.461
REMARK  Name = 
REMARK  6 active torsions:
REMARK  status: ('A' for Active; 'I' for Inactive)
REMARK    1  A    between atoms: C_1  and  O_2
REMARK    2  A    between atoms: O_2  and  C_3
REMARK    3  A    between atoms: C_3  and  C_4
REMARK    4  A    between atoms: N_6  and  C_7
REMARK    5  A    between atoms: C_10  and  C_11
REMARK    6  A    between atoms: C_11  and  O_12
REMARK                            x       y       z     vdW  Elec       q    Type
REMARK                         _______ _______ _______ _____ _____    ______ ____
ROOT
ATOM      1  C   UNL     1       4.469   5.138  19.285  0.00  0.00    +0.000 C 
ATOM      2  C   UNL     1       3.141   5.855  19.583  0.00  0.00    +0.000 C 
ATOM      3  C   UNL     1       2.261   5.088  20.570  0.00  0.00    +0.000 C 
ATOM      4  C   UNL     1       2.040   3.636  20.119  0.00  0.00    +0.000 C 
ATOM      5  C   UNL     1       3.391   2.933  19.942  0.00  0.00    +0.000 C 
ATOM      6  C   UNL     1       4.269   3.661  18.923  0.00  0.00    +0.000 C 
ENDROOT
BRANCH   1   9
ATOM      7  C   UNL     1       6.619   5.650  18.088  0.00  0.00    +0.000 C 
ATOM      8  O   UNL     1       7.309   4.868  18.731  0.00  0.00    +0.000 OA
ATOM      9  N   UNL     1       5.267   5.847  18.284  0.00  0.00    +0.000 N 
ATOM     10  H   UNL     1       4.856   6.653  17.827  0.00  0.00    +0.000 HD
BRANCH   7  11
ATOM     11  C   UNL     1       7.199   6.485  16.939  0.00  0.00    +0.000 C 
BRANCH  11  13
ATOM     12  C   UNL     1       6.703   4.779  15.390  0.00  0.00    +0.000 C 
ATOM     13  O   UNL     1       7.670   5.728  15.831  0.00  0.00    +0.000 OA
ENDBRANCH  11  13
ENDBRANCH   7  11
ENDBRANCH   1   9
BRANCH   4  14
ATOM     14  C   UNL     1       1.154   2.862  21.102  0.00  0.00    +0.000 C 
BRANCH  14  15
ATOM     15  O   UNL     1       1.911   2.405  22.215  0.00  0.00    +0.000 OA
ATOM     16  H   UNL     1       2.402   3.169  22.568  0.00  0.00    +0.000 HD
ENDBRANCH  14  15
ENDBRANCH   4  14
TORSDOF 5
ENDMDL
MODEL 7
REMARK VINA RESULT:      -5.4      1.623      1.647
REMARK  Name = 
REMARK  6 active torsions:
REMARK  status: ('A' for Active; 'I' for Inactive)
REMARK    1  A    between atoms: C_1  and  O_2
REMARK    2  A    between atoms: O_2  and  C_3
REMARK    3  A    between atoms: C_3  and  C_4
REMARK    4  A    between atoms: N_6  and  C_7
REMARK    5  A    between atoms: C_10  and  C_11
REMARK    6  A    between atoms: C_11  and  O_12
REMARK                            x       y       z     vdW  Elec       q    Type
REMARK                         _______ _______ _______ _____ _____    ______ ____
ROOT
ATOM      1  C   UNL     1       4.458   4.835  18.563  0.00  0.00    +0.000 C 
ATOM      2  C   UNL     1       3.553   5.356  19.692  0.00  0.00    +0.000 C 
ATOM      3  C   UNL     1       2.521   4.324  20.149  0.00  0.00    +0.000 C 
ATOM      4  C   UNL     1       1.706   3.779  18.966  0.00  0.00    +0.000 C 
ATOM      5  C   UNL     1       2.648   3.173  17.918  0.00  0.00    +0.000 C 
ATOM      6  C   UNL     1       3.660   4.204  17.415  0.00  0.00    +0.000 C 
ENDROOT
BRANCH   1   9
ATOM      7  C   UNL     1       6.763   5.711  18.077  0.00  0.00    +0.000 C 
ATOM      8  O   UNL     1       7.360   4.715  18.471  0.00  0.00    +0.000 OA
ATOM      9  N   UNL     1       5.392   5.857  18.087  0.00  0.00    +0.000 N 
ATOM     10  H   UNL     1       5.035   6.791  17.921  0.00  0.00    +0.000 HD
BRANCH   7  11
ATOM     11  C   UNL     1       7.503   6.914  17.478  0.00  0.00    +0.000 C 
BRANCH  11  13
ATOM     12  C   UNL     1       8.274   9.068  18.046  0.00  0.00    +0.000 C 
ATOM     13  O   UNL     1       8.233   7.693  18.417  0.00  0.00    +0.000 OA
ENDBRANCH  11  13
ENDBRANCH   7  11
ENDBRANCH   1   9
BRANCH   4  14
ATOM     14  C   UNL     1       0.666   2.747  19.416  0.00  0.00    +0.000 C 
BRANCH  14  15
ATOM     15  O   UNL     1       0.318   1.878  18.348  0.00  0.00    +0.000 OA
ATOM     16  H   UNL     1      -0.568   1.522  18.536  0.00  0.00    +0.000 HD
ENDBRANCH  14  15
ENDBRANCH   4  14
TORSDOF 5
ENDMDL
MODEL 8
REMARK VINA RESULT:      -5.4      2.424      2.941
REMARK  Name = 
REMARK  6 active torsions:
REMARK  status: ('A' for Active; 'I' for Inactive)
REMARK    1  A    between atoms: C_1  and  O_2
REMARK    2  A    between atoms: O_2  and  C_3
REMARK    3  A    between atoms: C_3  and  C_4
REMARK    4  A    between atoms: N_6  and  C_7
REMARK    5  A    between atoms: C_10  and  C_11
REMARK    6  A    between atoms: C_11  and  O_12
REMARK                            x       y       z     vdW  Elec       q    Type
REMARK                         _______ _______ _______ _____ _____    ______ ____
ROOT
ATOM      1  C   UNL     1       4.014   3.698  17.599  0.00  0.00    +0.000 C 
ATOM      2  C   UNL     1       3.427   2.307  17.892  0.00  0.00    +0.000 C 
ATOM      3  C   UNL     1       2.213   2.359  18.820  0.00  0.00    +0.000 C 
ATOM      4  C   UNL     1       2.521   3.135  20.110  0.00  0.00    +0.000 C 
ATOM      5  C   UNL     1       2.999   4.551  19.766  0.00  0.00    +0.000 C 
ATOM      6  C   UNL     1       4.241   4.520  18.874  0.00  0.00    +0.000 C 
ENDROOT
BRANCH   1   9
ATOM      7  C   UNL     1       5.656   4.643  15.947  0.00  0.00    +0.000 C 
ATOM      8  O   UNL     1       5.087   5.720  15.808  0.00  0.00    +0.000 OA
ATOM      9  N   UNL     1       5.218   3.626  16.770  0.00  0.00    +0.000 N 
ATOM     10  H   UNL     1       5.663   2.723  16.649  0.00  0.00    +0.000 HD
BRANCH   7  11
ATOM     11  C   UNL     1       6.974   4.326  15.228  0.00  0.00    +0.000 C 
BRANCH  11  13
ATOM     12  C   UNL     1       7.855   5.227  13.236  0.00  0.00    +0.000 C 
ATOM     13  O   UNL     1       7.606   5.446  14.622  0.00  0.00    +0.000 OA
ENDBRANCH  11  13
ENDBRANCH   7  11
ENDBRANCH   1   9
BRANCH   4  14
ATOM     14  C   UNL     1       1.309   3.187  21.047  0.00  0.00    +0.000 C 
BRANCH  14  15
ATOM     15  O   UNL     1       1.525   2.386  22.200  0.00  0.00    +0.000 OA
ATOM     16  H   UNL     1       0.900   2.684  22.885  0.00  0.00    +0.000 HD
ENDBRANCH  14  15
ENDBRANCH   4  14
TORSDOF 5
ENDMDL
MODEL 9
REMARK VINA RESULT:      -5.4      2.526      2.976
REMARK  Name = 
REMARK  6 active torsions:
REMARK  status: ('A' for Active; 'I' for Inactive)
REMARK    1  A    between atoms: C_1  and  O_2
REMARK    2  A    between atoms: O_2  and  C_3
REMARK    3  A    between atoms: C_3  and  C_4
REMARK    4  A    between atoms: N_6  and  C_7
REMARK    5  A    between atoms: C_10  and  C_11
REMARK    6  A    between atoms: C_11  and  O_12
REMARK                            x       y       z     vdW  Elec       q    Type
REMARK                         _______ _______ _______ _____ _____    ______ ____
ROOT
ATOM      1  C   UNL     1       3.789   4.338  17.737  0.00  0.00    +0.000 C 
ATOM      2  C   UNL     1       2.313   4.010  17.453  0.00  0.00    +0.000 C 
ATOM      3  C   UNL     1       1.470   3.922  18.726  0.00  0.00    +0.000 C 
ATOM      4  C   UNL     1       2.088   2.954  19.746  0.00  0.00    +0.000 C 
ATOM      5  C   UNL     1       3.521   3.388  20.077  0.00  0.00    +0.000 C 
ATOM      6  C   UNL     1       4.392   3.438  18.822  0.00  0.00    +0.000 C 
ENDROOT
BRANCH   1   9
ATOM      7  C   UNL     1       5.552   5.299  16.224  0.00  0.00    +0.000 C 
ATOM      8  O   UNL     1       5.829   6.250  16.945  0.00  0.00    +0.000 OA
ATOM      9  N   UNL     1       4.597   4.347  16.517  0.00  0.00    +0.000 N 
ATOM     10  H   UNL     1       4.327   3.730  15.759  0.00  0.00    +0.000 HD
BRANCH   7  11
ATOM     11  C   UNL     1       6.290   5.042  14.904  0.00  0.00    +0.000 C 
BRANCH  11  13
ATOM     12  C   UNL     1       6.131   3.674  12.991  0.00  0.00    +0.000 C 
ATOM     13  O   UNL     1       6.190   3.711  14.414  0.00  0.00    +0.000 OA
ENDBRANCH  11  13
ENDBRANCH   7  11
ENDBRANCH   1   9
BRANCH   4  14
ATOM     14  C   UNL     1       1.245   2.857  21.024  0.00  0.00    +0.000 C 
BRANCH  14  15
ATOM     15  O   UNL     1       2.063   2.968  22.180  0.00  0.00    +0.000 OA
ATOM     16  H   UNL     1       1.708   2.358  22.850  0.00  0.00    +0.000 HD
ENDBRANCH  14  15
ENDBRANCH   4  14
TORSDOF 5
ENDMDL
