MODEL 1
REMARK VINA RESULT:      -8.1      0.000      0.000
REMARK  Name = 
REMARK  5 active torsions:
REMARK  status: ('A' for Active; 'I' for Inactive)
REMARK    1  A    between atoms: C_1  and  C_2
REMARK    2  A    between atoms: N_4  and  C_5
REMARK    3  A    between atoms: C_8  and  C_9
REMARK    4  A    between atoms: C_9  and  N_10
REMARK    5  A    between atoms: C_18  and  C_19
REMARK                            x       y       z     vdW  Elec       q    Type
REMARK                         _______ _______ _______ _____ _____    ______ ____
ROOT
ATOM      1  N   UNL     1       2.191   7.010  19.174  0.00  0.00    +0.000 NA
ATOM      2  C   UNL     1       1.474   7.186  20.451  0.00  0.00    +0.000 C 
ATOM      3  C   UNL     1       1.223   8.674  20.629  0.00  0.00    +0.000 C 
ATOM      4  C   UNL     1      -0.115   9.133  21.189  0.00  0.00    +0.000 C 
ATOM      5  O   UNL     1      -0.082  10.598  21.142  0.00  0.00    +0.000 OA
ATOM      6  C   UNL     1      -0.123  11.017  19.814  0.00  0.00    +0.000 A 
ATOM      7  C   UNL     1      -0.810  12.178  19.533  0.00  0.00    +0.000 A 
ATOM      8  C   UNL     1      -1.691  12.115  18.467  0.00  0.00    +0.000 A 
ATOM      9  C   UNL     1      -1.819  10.900  17.767  0.00  0.00    +0.000 A 
ATOM     10  C   UNL     1      -0.809   9.896  17.876  0.00  0.00    +0.000 A 
ATOM     11  C   UNL     1       0.185  10.058  18.836  0.00  0.00    +0.000 A 
ATOM     12  C   UNL     1       1.436   9.309  19.257  0.00  0.00    +0.000 C 
ATOM     13  C   UNL     1       2.349   8.326  18.533  0.00  0.00    +0.000 C 
ENDROOT
BRANCH   9  14
ATOM     14  C   UNL     1      -3.087  10.660  17.112  0.00  0.00    +0.000 C 
ATOM     15  N   UNL     1      -4.071  10.564  16.500  0.00  0.00    +0.000 NA
ENDBRANCH   9  14
BRANCH   1  16
ATOM     16  C   UNL     1       3.477   6.281  19.316  0.00  0.00    +0.000 C 
BRANCH  16  20
ATOM     17  C   UNL     1       5.155   4.739  15.601  0.00  0.00    +0.000 A 
ATOM     18  C   UNL     1       5.292   6.085  15.967  0.00  0.00    +0.000 A 
ATOM     19  C   UNL     1       4.748   6.555  17.150  0.00  0.00    +0.000 A 
ATOM     20  C   UNL     1       4.043   5.717  18.014  0.00  0.00    +0.000 A 
ATOM     21  C   UNL     1       3.946   4.354  17.689  0.00  0.00    +0.000 A 
ATOM     22  C   UNL     1       4.493   3.874  16.483  0.00  0.00    +0.000 A 
BRANCH  17  26
ATOM     23  C   UNL     1       6.997   4.036  12.368  0.00  0.00    +0.000 C 
ATOM     24  C   UNL     1       6.842   4.607  13.751  0.00  0.00    +0.000 C 
ATOM     25  O   UNL     1       7.716   5.341  14.198  0.00  0.00    +0.000 OA
ATOM     26  N   UNL     1       5.664   4.231  14.384  0.00  0.00    +0.000 N 
ATOM     27  H   UNL     1       5.114   3.506  13.940  0.00  0.00    +0.000 HD
ENDBRANCH  17  26
ENDBRANCH  16  20
ENDBRANCH   1  16
TORSDOF 4
ENDMDL
MODEL 2
REMARK VINA RESULT:      -7.7      1.199      1.418
REMARK  Name = 
REMARK  5 active torsions:
REMARK  status: ('A' for Active; 'I' for Inactive)
REMARK    1  A    between atoms: C_1  and  C_2
REMARK    2  A    between atoms: N_4  and  C_5
REMARK    3  A    between atoms: C_8  and  C_9
REMARK    4  A    between atoms: C_9  and  N_10
REMARK    5  A    between atoms: C_18  and  C_19
REMARK                            x       y       z     vdW  Elec       q    Type
REMARK                         _______ _______ _______ _____ _____    ______ ____
ROOT
ATOM      1  N   UNL     1       1.409   6.823  20.309  0.00  0.00    +0.000 NA
ATOM      2  C   UNL     1       0.935   7.495  21.533  0.00  0.00    +0.000 C 
ATOM      3  C   UNL     1       1.191   8.983  21.363  0.00  0.00    +0.000 C 
ATOM      4  C   UNL     1       0.139   9.970  21.847  0.00  0.00    +0.000 C 
ATOM      5  O   UNL     1       0.630  11.295  21.452  0.00  0.00    +0.000 OA
ATOM      6  C   UNL     1       0.573  11.412  20.065  0.00  0.00    +0.000 A 
ATOM      7  C   UNL     1       0.262  12.649  19.543  0.00  0.00    +0.000 A 
ATOM      8  C   UNL     1      -0.708  12.660  18.556  0.00  0.00    +0.000 A 
ATOM      9  C   UNL     1      -1.293  11.439  18.169  0.00  0.00    +0.000 A 
ATOM     10  C   UNL     1      -0.647  10.203  18.476  0.00  0.00    +0.000 A 
ATOM     11  C   UNL     1       0.448  10.221  19.332  0.00  0.00    +0.000 A 
ATOM     12  C   UNL     1       1.436   9.205  19.872  0.00  0.00    +0.000 C 
ATOM     13  C   UNL     1       1.903   7.844  19.369  0.00  0.00    +0.000 C 
ENDROOT
BRANCH   9  14
ATOM     14  C   UNL     1      -2.638  11.505  17.637  0.00  0.00    +0.000 C 
ATOM     15  N   UNL     1      -3.664  11.527  17.091  0.00  0.00    +0.000 NA
ENDBRANCH   9  14
BRANCH   1  16
ATOM     16  C   UNL     1       2.406   5.753  20.572  0.00  0.00    +0.000 C 
BRANCH  16  20
ATOM     17  C   UNL     1       4.645   4.351  17.106  0.00  0.00    +0.000 A 
ATOM     18  C   UNL     1       5.278   4.984  18.183  0.00  0.00    +0.000 A 
ATOM     19  C   UNL     1       4.548   5.425  19.273  0.00  0.00    +0.000 A 
ATOM     20  C   UNL     1       3.164   5.265  19.340  0.00  0.00    +0.000 A 
ATOM     21  C   UNL     1       2.521   4.581  18.293  0.00  0.00    +0.000 A 
ATOM     22  C   UNL     1       3.261   4.136  17.180  0.00  0.00    +0.000 A 
BRANCH  17  26
ATOM     23  C   UNL     1       6.333   3.931  13.742  0.00  0.00    +0.000 C 
ATOM     24  C   UNL     1       5.804   4.714  14.913  0.00  0.00    +0.000 C 
ATOM     25  O   UNL     1       5.798   5.939  14.862  0.00  0.00    +0.000 OA
ATOM     26  N   UNL     1       5.351   3.920  15.959  0.00  0.00    +0.000 N 
ATOM     27  H   UNL     1       5.557   2.931  15.909  0.00  0.00    +0.000 HD
ENDBRANCH  17  26
ENDBRANCH  16  20
ENDBRANCH   1  16
TORSDOF 4
ENDMDL
MODEL 3
REMARK VINA RESULT:      -7.5      0.934      1.311
REMARK  Name = 
REMARK  5 active torsions:
REMARK  status: ('A' for Active; 'I' for Inactive)
REMARK    1  A    between atoms: C_1  and  C_2
REMARK    2  A    between atoms: N_4  and  C_5
REMARK    3  A    between atoms: C_8  and  C_9
REMARK    4  A    between atoms: C_9  and  N_10
REMARK    5  A    between atoms: C_18  and  C_19
REMARK                            x       y       z     vdW  Elec       q    Type
REMARK                         _______ _______ _______ _____ _____    ______ ____
ROOT
ATOM      1  N   UNL     1       2.392   6.551  19.078  0.00  0.00    +0.000 NA
ATOM      2  C   UNL     1       1.672   6.725  20.354  0.00  0.00    +0.000 C 
ATOM      3  C   UNL     1       1.494   8.218  20.573  0.00  0.00    +0.000 C 
ATOM      4  C   UNL     1       0.174   8.725  21.135  0.00  0.00    +0.000 C 
ATOM      5  O   UNL     1       0.279  10.188  21.130  0.00  0.00    +0.000 OA
ATOM      6  C   UNL     1       0.271  10.646  19.815  0.00  0.00    +0.000 A 
ATOM      7  C   UNL     1      -0.355  11.847  19.562  0.00  0.00    +0.000 A 
ATOM      8  C   UNL     1      -1.228  11.859  18.488  0.00  0.00    +0.000 A 
ATOM      9  C   UNL     1      -1.409  10.672  17.751  0.00  0.00    +0.000 A 
ATOM     10  C   UNL     1      -0.450   9.617  17.840  0.00  0.00    +0.000 A 
ATOM     11  C   UNL     1       0.542   9.702  18.812  0.00  0.00    +0.000 A 
ATOM     12  C   UNL     1       1.750   8.881  19.221  0.00  0.00    +0.000 C 
ATOM     13  C   UNL     1       2.621   7.875  18.477  0.00  0.00    +0.000 C 
ENDROOT
BRANCH   9  14
ATOM     14  C   UNL     1      -2.681  10.514  17.080  0.00  0.00    +0.000 C 
ATOM     15  N   UNL     1      -3.632  10.365  16.429  0.00  0.00    +0.000 NA
ENDBRANCH   9  14
BRANCH   1  16
ATOM     16  C   UNL     1       3.640   5.755  19.210  0.00  0.00    +0.000 C 
BRANCH  16  20
ATOM     17  C   UNL     1       5.652   4.846  15.452  0.00  0.00    +0.000 A 
ATOM     18  C   UNL     1       5.276   3.836  16.347  0.00  0.00    +0.000 A 
ATOM     19  C   UNL     1       4.641   4.146  17.537  0.00  0.00    +0.000 A 
ATOM     20  C   UNL     1       4.358   5.466  17.893  0.00  0.00    +0.000 A 
ATOM     21  C   UNL     1       4.678   6.485  16.980  0.00  0.00    +0.000 A 
ATOM     22  C   UNL     1       5.329   6.173  15.771  0.00  0.00    +0.000 A 
BRANCH  17  26
ATOM     23  C   UNL     1       6.854   3.607  12.081  0.00  0.00    +0.000 C 
ATOM     24  C   UNL     1       5.818   3.939  13.121  0.00  0.00    +0.000 C 
ATOM     25  O   UNL     1       4.648   3.632  12.920  0.00  0.00    +0.000 OA
ATOM     26  N   UNL     1       6.335   4.571  14.244  0.00  0.00    +0.000 N 
ATOM     27  H   UNL     1       7.296   4.884  14.196  0.00  0.00    +0.000 HD
ENDBRANCH  17  26
ENDBRANCH  16  20
ENDBRANCH   1  16
TORSDOF 4
ENDMDL
MODEL 4
REMARK VINA RESULT:      -7.4      3.172      9.258
REMARK  Name = 
REMARK  5 active torsions:
REMARK  status: ('A' for Active; 'I' for Inactive)
REMARK    1  A    between atoms: C_1  and  C_2
REMARK    2  A    between atoms: N_4  and  C_5
REMARK    3  A    between atoms: C_8  and  C_9
REMARK    4  A    between atoms: C_9  and  N_10
REMARK    5  A    between atoms: C_18  and  C_19
REMARK                            x       y       z     vdW  Elec       q    Type
REMARK                         _______ _______ _______ _____ _____    ______ ____
ROOT
ATOM      1  N   UNL     1       0.861   9.179  18.940  0.00  0.00    +0.000 NA
ATOM      2  C   UNL     1       1.729   8.915  17.778  0.00  0.00    +0.000 C 
ATOM      3  C   UNL     1       2.881   8.049  18.259  0.00  0.00    +0.000 C 
ATOM      4  C   UNL     1       3.368   6.913  17.372  0.00  0.00    +0.000 C 
ATOM      5  O   UNL     1       4.399   6.218  18.150  0.00  0.00    +0.000 OA
ATOM      6  C   UNL     1       3.800   5.560  19.222  0.00  0.00    +0.000 A 
ATOM      7  C   UNL     1       4.336   4.350  19.606  0.00  0.00    +0.000 A 
ATOM      8  C   UNL     1       3.429   3.323  19.800  0.00  0.00    +0.000 A 
ATOM      9  C   UNL     1       2.059   3.582  19.593  0.00  0.00    +0.000 A 
ATOM     10  C   UNL     1       1.576   4.926  19.581  0.00  0.00    +0.000 A 
ATOM     11  C   UNL     1       2.501   5.964  19.570  0.00  0.00    +0.000 A 
ATOM     12  C   UNL     1       2.450   7.480  19.609  0.00  0.00    +0.000 C 
ATOM     13  C   UNL     1       1.405   8.470  20.110  0.00  0.00    +0.000 C 
ENDROOT
BRANCH   9  14
ATOM     14  C   UNL     1       1.238   2.455  19.209  0.00  0.00    +0.000 C 
ATOM     15  N   UNL     1       0.583   1.597  18.776  0.00  0.00    +0.000 NA
ENDBRANCH   9  14
BRANCH   1  16
ATOM     16  C   UNL     1       0.642  10.627  19.195  0.00  0.00    +0.000 C 
BRANCH  16  20
ATOM     17  C   UNL     1      -3.474  11.911  18.565  0.00  0.00    +0.000 A 
ATOM     18  C   UNL     1      -2.852  10.993  17.710  0.00  0.00    +0.000 A 
ATOM     19  C   UNL     1      -1.542  10.601  17.925  0.00  0.00    +0.000 A 
ATOM     20  C   UNL     1      -0.794  11.105  18.990  0.00  0.00    +0.000 A 
ATOM     21  C   UNL     1      -1.422  11.983  19.889  0.00  0.00    +0.000 A 
ATOM     22  C   UNL     1      -2.753  12.388  19.669  0.00  0.00    +0.000 A 
BRANCH  17  26
ATOM     23  C   UNL     1      -7.174  12.333  17.876  0.00  0.00    +0.000 C 
ATOM     24  C   UNL     1      -5.950  11.588  18.331  0.00  0.00    +0.000 C 
ATOM     25  O   UNL     1      -6.044  10.401  18.624  0.00  0.00    +0.000 OA
ATOM     26  N   UNL     1      -4.798  12.364  18.355  0.00  0.00    +0.000 N 
ATOM     27  H   UNL     1      -4.911  13.361  18.224  0.00  0.00    +0.000 HD
ENDBRANCH  17  26
ENDBRANCH  16  20
ENDBRANCH   1  16
TORSDOF 4
ENDMDL
MODEL 5
REMARK VINA RESULT:      -7.4      1.314      1.457
REMARK  Name = 
REMARK  5 active torsions:
REMARK  status: ('A' for Active; 'I' for Inactive)
REMARK    1  A    between atoms: C_1  and  C_2
REMARK    2  A    between atoms: N_4  and  C_5
REMARK    3  A    between atoms: C_8  and  C_9
REMARK    4  A    between atoms: C_9  and  N_10
REMARK    5  A    between atoms: C_18  and  C_19
REMARK                            x       y       z     vdW  Elec       q    Type
REMARK                         _______ _______ _______ _____ _____    ______ ____
ROOT
ATOM      1  N   UNL     1       3.086   6.456  18.533  0.00  0.00    +0.000 NA
ATOM      2  C   UNL     1       2.321   6.396  19.793  0.00  0.00    +0.000 C 
ATOM      3  C   UNL     1       1.952   7.821  20.168  0.00  0.00    +0.000 C 
ATOM      4  C   UNL     1       0.567   8.097  20.733  0.00  0.00    +0.000 C 
ATOM      5  O   UNL     1       0.489   9.553  20.893  0.00  0.00    +0.000 OA
ATOM      6  C   UNL     1       0.453  10.153  19.637  0.00  0.00    +0.000 A 
ATOM      7  C   UNL     1      -0.312  11.290  19.495  0.00  0.00    +0.000 A 
ATOM      8  C   UNL     1      -1.154  11.317  18.397  0.00  0.00    +0.000 A 
ATOM      9  C   UNL     1      -1.168  10.208  17.528  0.00  0.00    +0.000 A 
ATOM     10  C   UNL     1      -0.088   9.274  17.536  0.00  0.00    +0.000 A 
ATOM     11  C   UNL     1       0.863   9.368  18.547  0.00  0.00    +0.000 A 
ATOM     12  C   UNL     1       2.154   8.659  18.908  0.00  0.00    +0.000 C 
ATOM     13  C   UNL     1       3.161   7.858  18.090  0.00  0.00    +0.000 C 
ENDROOT
BRANCH   9  14
ATOM     14  C   UNL     1      -2.395   9.974  16.797  0.00  0.00    +0.000 C 
ATOM     15  N   UNL     1      -3.446   9.828  16.320  0.00  0.00    +0.000 NA
ENDBRANCH   9  14
BRANCH   1  16
ATOM     16  C   UNL     1       4.420   5.808  18.623  0.00  0.00    +0.000 C 
BRANCH  16  20
ATOM     17  C   UNL     1       5.938   4.150  14.888  0.00  0.00    +0.000 A 
ATOM     18  C   UNL     1       6.121   5.498  15.222  0.00  0.00    +0.000 A 
ATOM     19  C   UNL     1       5.628   6.006  16.412  0.00  0.00    +0.000 A 
ATOM     20  C   UNL     1       4.929   5.204  17.315  0.00  0.00    +0.000 A 
ATOM     21  C   UNL     1       4.786   3.838  17.021  0.00  0.00    +0.000 A 
ATOM     22  C   UNL     1       5.282   3.320  15.808  0.00  0.00    +0.000 A 
BRANCH  17  26
ATOM     23  C   UNL     1       6.367   2.553  11.481  0.00  0.00    +0.000 C 
ATOM     24  C   UNL     1       5.628   3.323  12.542  0.00  0.00    +0.000 C 
ATOM     25  O   UNL     1       4.454   3.625  12.356  0.00  0.00    +0.000 OA
ATOM     26  N   UNL     1       6.394   3.604  13.666  0.00  0.00    +0.000 N 
ATOM     27  H   UNL     1       7.386   3.415  13.607  0.00  0.00    +0.000 HD
ENDBRANCH  17  26
ENDBRANCH  16  20
ENDBRANCH   1  16
TORSDOF 4
ENDMDL
MODEL 6
REMARK VINA RESULT:      -7.3      3.086      9.432
REMARK  Name = 
REMARK  5 active torsions:
REMARK  status: ('A' for Active; 'I' for Inactive)
REMARK    1  A    between atoms: C_1  and  C_2
REMARK    2  A    between atoms: N_4  and  C_5
REMARK    3  A    between atoms: C_8  and  C_9
REMARK    4  A    between atoms: C_9  and  N_10
REMARK    5  A    between atoms: C_18  and  C_19
REMARK                            x       y       z     vdW  Elec       q    Type
REMARK                         _______ _______ _______ _____ _____    ______ ____
ROOT
ATOM      1  N   UNL     1       1.027   9.280  18.805  0.00  0.00    +0.000 NA
ATOM      2  C   UNL     1       1.944   9.013  17.681  0.00  0.00    +0.000 C 
ATOM      3  C   UNL     1       3.041   8.097  18.198  0.00  0.00    +0.000 C 
ATOM      4  C   UNL     1       3.534   6.966  17.308  0.00  0.00    +0.000 C 
ATOM      5  O   UNL     1       4.501   6.218  18.119  0.00  0.00    +0.000 OA
ATOM      6  C   UNL     1       3.827   5.556  19.143  0.00  0.00    +0.000 A 
ATOM      7  C   UNL     1       4.302   4.320  19.523  0.00  0.00    +0.000 A 
ATOM      8  C   UNL     1       3.352   3.320  19.645  0.00  0.00    +0.000 A 
ATOM      9  C   UNL     1       2.005   3.631  19.377  0.00  0.00    +0.000 A 
ATOM     10  C   UNL     1       1.567   4.991  19.374  0.00  0.00    +0.000 A 
ATOM     11  C   UNL     1       2.526   5.997  19.436  0.00  0.00    +0.000 A 
ATOM     12  C   UNL     1       2.524   7.512  19.510  0.00  0.00    +0.000 C 
ATOM     13  C   UNL     1       1.487   8.525  19.983  0.00  0.00    +0.000 C 
ENDROOT
BRANCH   9  14
ATOM     14  C   UNL     1       1.167   2.542  18.924  0.00  0.00    +0.000 C 
ATOM     15  N   UNL     1       0.411   1.761  18.511  0.00  0.00    +0.000 NA
ENDBRANCH   9  14
BRANCH   1  16
ATOM     16  C   UNL     1       0.844  10.728  19.085  0.00  0.00    +0.000 C 
BRANCH  16  20
ATOM     17  C   UNL     1      -3.275  12.145  19.217  0.00  0.00    +0.000 A 
ATOM     18  C   UNL     1      -2.280  12.700  20.031  0.00  0.00    +0.000 A 
ATOM     19  C   UNL     1      -0.979  12.233  19.977  0.00  0.00    +0.000 A 
ATOM     20  C   UNL     1      -0.609  11.195  19.121  0.00  0.00    +0.000 A 
ATOM     21  C   UNL     1      -1.583  10.666  18.257  0.00  0.00    +0.000 A 
ATOM     22  C   UNL     1      -2.910  11.136  18.314  0.00  0.00    +0.000 A 
BRANCH  17  26
ATOM     23  C   UNL     1      -6.903  12.843  20.048  0.00  0.00    +0.000 C 
ATOM     24  C   UNL     1      -5.471  12.511  20.369  0.00  0.00    +0.000 C 
ATOM     25  O   UNL     1      -5.168  12.213  21.519  0.00  0.00    +0.000 OA
ATOM     26  N   UNL     1      -4.623  12.569  19.271  0.00  0.00    +0.000 N 
ATOM     27  H   UNL     1      -4.998  12.970  18.421  0.00  0.00    +0.000 HD
ENDBRANCH  17  26
ENDBRANCH  16  20
ENDBRANCH   1  16
TORSDOF 4
ENDMDL
MODEL 7
REMARK VINA RESULT:      -7.3      3.620      8.788
REMARK  Name = 
REMARK  5 active torsions:
REMARK  status: ('A' for Active; 'I' for Inactive)
REMARK    1  A    between atoms: C_1  and  C_2
REMARK    2  A    between atoms: N_4  and  C_5
REMARK    3  A    between atoms: C_8  and  C_9
REMARK    4  A    between atoms: C_9  and  N_10
REMARK    5  A    between atoms: C_18  and  C_19
REMARK                            x       y       z     vdW  Elec       q    Type
REMARK                         _______ _______ _______ _____ _____    ______ ____
ROOT
ATOM      1  N   UNL     1       1.952   8.813  19.250  0.00  0.00    +0.000 NA
ATOM      2  C   UNL     1       1.905   7.788  20.309  0.00  0.00    +0.000 C 
ATOM      3  C   UNL     1       1.773   6.436  19.627  0.00  0.00    +0.000 C 
ATOM      4  C   UNL     1       2.560   5.255  20.176  0.00  0.00    +0.000 C 
ATOM      5  O   UNL     1       2.301   4.145  19.254  0.00  0.00    +0.000 OA
ATOM      6  C   UNL     1       2.917   4.408  18.033  0.00  0.00    +0.000 A 
ATOM      7  C   UNL     1       3.440   3.338  17.340  0.00  0.00    +0.000 A 
ATOM      8  C   UNL     1       4.727   3.502  16.858  0.00  0.00    +0.000 A 
ATOM      9  C   UNL     1       5.392   4.719  17.105  0.00  0.00    +0.000 A 
ATOM     10  C   UNL     1       4.650   5.881  17.479  0.00  0.00    +0.000 A 
ATOM     11  C   UNL     1       3.302   5.736  17.788  0.00  0.00    +0.000 A 
ATOM     12  C   UNL     1       2.158   6.657  18.166  0.00  0.00    +0.000 C 
ATOM     13  C   UNL     1       1.905   8.144  17.939  0.00  0.00    +0.000 C 
ENDROOT
BRANCH   9  14
ATOM     14  C   UNL     1       6.837   4.669  17.152  0.00  0.00    +0.000 C 
ATOM     15  N   UNL     1       7.986   4.498  17.213  0.00  0.00    +0.000 NA
ENDBRANCH   9  14
BRANCH   1  16
ATOM     16  C   UNL     1       0.911   9.862  19.399  0.00  0.00    +0.000 C 
BRANCH  16  20
ATOM     17  C   UNL     1       2.424  13.950  19.416  0.00  0.00    +0.000 A 
ATOM     18  C   UNL     1       2.574  13.115  18.301  0.00  0.00    +0.000 A 
ATOM     19  C   UNL     1       2.090  11.818  18.317  0.00  0.00    +0.000 A 
ATOM     20  C   UNL     1       1.444  11.293  19.437  0.00  0.00    +0.000 A 
ATOM     21  C   UNL     1       1.235  12.136  20.542  0.00  0.00    +0.000 A 
ATOM     22  C   UNL     1       1.732  13.454  20.530  0.00  0.00    +0.000 A 
BRANCH  17  26
ATOM     23  C   UNL     1       4.320  17.165  20.055  0.00  0.00    +0.000 C 
ATOM     24  C   UNL     1       4.157  15.671  19.980  0.00  0.00    +0.000 C 
ATOM     25  O   UNL     1       5.060  14.948  20.384  0.00  0.00    +0.000 OA
ATOM     26  N   UNL     1       2.938  15.267  19.450  0.00  0.00    +0.000 N 
ATOM     27  H   UNL     1       2.359  15.982  19.030  0.00  0.00    +0.000 HD
ENDBRANCH  17  26
ENDBRANCH  16  20
ENDBRANCH   1  16
TORSDOF 4
ENDMDL
MODEL 8
REMARK VINA RESULT:      -7.1      2.793      9.069
REMARK  Name = 
REMARK  5 active torsions:
REMARK  status: ('A' for Active; 'I' for Inactive)
REMARK    1  A    between atoms: C_1  and  C_2
REMARK    2  A    between atoms: N_4  and  C_5
REMARK    3  A    between atoms: C_8  and  C_9
REMARK    4  A    between atoms: C_9  and  N_10
REMARK    5  A    between atoms: C_18  and  C_19
REMARK                            x       y       z     vdW  Elec       q    Type
REMARK                         _______ _______ _______ _____ _____    ______ ____
ROOT
ATOM      1  N   UNL     1       1.463   8.732  20.061  0.00  0.00    +0.000 NA
ATOM      2  C   UNL     1       1.790   7.560  20.896  0.00  0.00    +0.000 C 
ATOM      3  C   UNL     1       1.843   6.350  19.978  0.00  0.00    +0.000 C 
ATOM      4  C   UNL     1       2.933   5.311  20.195  0.00  0.00    +0.000 C 
ATOM      5  O   UNL     1       2.777   4.342  19.104  0.00  0.00    +0.000 OA
ATOM      6  C   UNL     1       3.136   4.944  17.900  0.00  0.00    +0.000 A 
ATOM      7  C   UNL     1       3.762   4.158  16.957  0.00  0.00    +0.000 A 
ATOM      8  C   UNL     1       4.899   4.697  16.381  0.00  0.00    +0.000 A 
ATOM      9  C   UNL     1       5.324   5.976  16.792  0.00  0.00    +0.000 A 
ATOM     10  C   UNL     1       4.419   6.852  17.465  0.00  0.00    +0.000 A 
ATOM     11  C   UNL     1       3.193   6.347  17.883  0.00  0.00    +0.000 A 
ATOM     12  C   UNL     1       1.951   6.899  18.557  0.00  0.00    +0.000 C 
ATOM     13  C   UNL     1       1.362   8.301  18.657  0.00  0.00    +0.000 C 
ENDROOT
BRANCH   9  14
ATOM     14  C   UNL     1       6.738   6.258  16.672  0.00  0.00    +0.000 C 
ATOM     15  N   UNL     1       7.843   6.612  16.599  0.00  0.00    +0.000 NA
ENDBRANCH   9  14
BRANCH   1  16
ATOM     16  C   UNL     1       0.260   9.469  20.526  0.00  0.00    +0.000 C 
BRANCH  16  20
ATOM     17  C   UNL     1      -0.214  13.518  18.986  0.00  0.00    +0.000 A 
ATOM     18  C   UNL     1      -1.302  12.644  19.101  0.00  0.00    +0.000 A 
ATOM     19  C   UNL     1      -1.130  11.360  19.589  0.00  0.00    +0.000 A 
ATOM     20  C   UNL     1       0.125  10.888  19.977  0.00  0.00    +0.000 A 
ATOM     21  C   UNL     1       1.216  11.771  19.921  0.00  0.00    +0.000 A 
ATOM     22  C   UNL     1       1.044  13.076  19.420  0.00  0.00    +0.000 A 
BRANCH  17  26
ATOM     23  C   UNL     1      -0.828  17.196  18.320  0.00  0.00    +0.000 C 
ATOM     24  C   UNL     1      -0.507  16.001  19.176  0.00  0.00    +0.000 C 
ATOM     25  O   UNL     1      -0.428  16.139  20.392  0.00  0.00    +0.000 OA
ATOM     26  N   UNL     1      -0.344  14.824  18.458  0.00  0.00    +0.000 N 
ATOM     27  H   UNL     1      -0.298  14.902  17.450  0.00  0.00    +0.000 HD
ENDBRANCH  17  26
ENDBRANCH  16  20
ENDBRANCH   1  16
TORSDOF 4
ENDMDL
MODEL 9
REMARK VINA RESULT:      -7.1      3.295      8.887
REMARK  Name = 
REMARK  5 active torsions:
REMARK  status: ('A' for Active; 'I' for Inactive)
REMARK    1  A    between atoms: C_1  and  C_2
REMARK    2  A    between atoms: N_4  and  C_5
REMARK    3  A    between atoms: C_8  and  C_9
REMARK    4  A    between atoms: C_9  and  N_10
REMARK    5  A    between atoms: C_18  and  C_19
REMARK                            x       y       z     vdW  Elec       q    Type
REMARK                         _______ _______ _______ _____ _____    ______ ____
ROOT
ATOM      1  N   UNL     1       1.870   8.451  19.690  0.00  0.00    +0.000 NA
ATOM      2  C   UNL     1       1.864   7.330  20.649  0.00  0.00    +0.000 C 
ATOM      3  C   UNL     1       1.754   6.045  19.844  0.00  0.00    +0.000 C 
ATOM      4  C   UNL     1       2.578   4.839  20.269  0.00  0.00    +0.000 C 
ATOM      5  O   UNL     1       2.332   3.814  19.249  0.00  0.00    +0.000 OA
ATOM      6  C   UNL     1       2.923   4.206  18.051  0.00  0.00    +0.000 A 
ATOM      7  C   UNL     1       3.460   3.219  17.253  0.00  0.00    +0.000 A 
ATOM      8  C   UNL     1       4.735   3.461  16.771  0.00  0.00    +0.000 A 
ATOM      9  C   UNL     1       5.374   4.666  17.123  0.00  0.00    +0.000 A 
ATOM     10  C   UNL     1       4.609   5.768  17.614  0.00  0.00    +0.000 A 
ATOM     11  C   UNL     1       3.270   5.560  17.927  0.00  0.00    +0.000 A 
ATOM     12  C   UNL     1       2.110   6.413  18.405  0.00  0.00    +0.000 C 
ATOM     13  C   UNL     1       1.818   7.906  18.323  0.00  0.00    +0.000 C 
ENDROOT
BRANCH   9  14
ATOM     14  C   UNL     1       6.821   4.650  17.145  0.00  0.00    +0.000 C 
ATOM     15  N   UNL     1       7.977   4.617  17.031  0.00  0.00    +0.000 NA
ENDBRANCH   9  14
BRANCH   1  16
ATOM     16  C   UNL     1       0.805   9.454  19.951  0.00  0.00    +0.000 C 
BRANCH  16  20
ATOM     17  C   UNL     1       1.976  13.598  19.279  0.00  0.00    +0.000 A 
ATOM     18  C   UNL     1       1.449  13.173  20.505  0.00  0.00    +0.000 A 
ATOM     19  C   UNL     1       1.080  11.853  20.697  0.00  0.00    +0.000 A 
ATOM     20  C   UNL     1       1.210  10.903  19.684  0.00  0.00    +0.000 A 
ATOM     21  C   UNL     1       1.789  11.301  18.467  0.00  0.00    +0.000 A 
ATOM     22  C   UNL     1       2.160  12.645  18.267  0.00  0.00    +0.000 A 
BRANCH  17  26
ATOM     23  C   UNL     1       2.183  17.244  18.275  0.00  0.00    +0.000 C 
ATOM     24  C   UNL     1       1.473  15.978  18.670  0.00  0.00    +0.000 C 
ATOM     25  O   UNL     1       0.248  15.941  18.635  0.00  0.00    +0.000 OA
ATOM     26  N   UNL     1       2.329  14.945  19.033  0.00  0.00    +0.000 N 
ATOM     27  H   UNL     1       3.307  15.177  19.148  0.00  0.00    +0.000 HD
ENDBRANCH  17  26
ENDBRANCH  16  20
ENDBRANCH   1  16
TORSDOF 4
ENDMDL
