MODEL 1
REMARK VINA RESULT:      -9.5      0.000      0.000
REMARK  Name = 
REMARK  7 active torsions:
REMARK  status: ('A' for Active; 'I' for Inactive)
REMARK    1  A    between atoms: C_1  and  C_2
REMARK    2  A    between atoms: C_2  and  C_3
REMARK    3  A    between atoms: C_2  and  C_4
REMARK    4  A    between atoms: C_2  and  N_5
REMARK    5  A    between atoms: N_7  and  C_8
REMARK    6  A    between atoms: N_13  and  C_14
REMARK    7  A    between atoms: N_22  and  C_23
REMARK                            x       y       z     vdW  Elec       q    Type
REMARK                         _______ _______ _______ _____ _____    ______ ____
ROOT
ATOM      1  N   UNL     1       2.136   4.669  18.445  0.00  0.00    +0.000 N 
ATOM      2  C   UNL     1       3.394   5.203  18.371  0.00  0.00    +0.000 C 
ATOM      3  N   UNL     1       4.414   4.431  18.567  0.00  0.00    +0.000 NA
ATOM      4  N   UNL     1       3.386   6.540  18.030  0.00  0.00    +0.000 N 
ATOM      5  H   UNL     1       1.414   5.184  17.960  0.00  0.00    +0.000 HD
ATOM      6  H   UNL     1       4.330   6.916  17.948  0.00  0.00    +0.000 HD
ENDROOT
BRANCH   4   7
ATOM      7  C   UNL     1       2.507   7.526  18.545  0.00  0.00    +0.000 A 
ATOM      8  C   UNL     1       1.985   8.486  17.669  0.00  0.00    +0.000 A 
ATOM      9  C   UNL     1       1.124   9.490  18.130  0.00  0.00    +0.000 A 
ATOM     10  C   UNL     1       0.779   9.557  19.480  0.00  0.00    +0.000 A 
ATOM     11 CL   UNL     1      -0.267  10.833  19.985  0.00  0.00    +0.000 Cl
ATOM     12  C   UNL     1       1.287   8.605  20.366  0.00  0.00    +0.000 A 
ATOM     13 CL   UNL     1       0.891   8.602  22.050  0.00  0.00    +0.000 Cl
ATOM     14  C   UNL     1       2.150   7.603  19.899  0.00  0.00    +0.000 A 
ENDBRANCH   4   7
BRANCH   3  15
ATOM     15  C   UNL     1       5.705   4.842  18.687  0.00  0.00    +0.000 C 
ATOM     16  N   UNL     1       6.182   5.228  19.841  0.00  0.00    +0.000 NA
ATOM     17  C   UNL     1       7.554   5.315  19.670  0.00  0.00    +0.000 C 
ATOM     18  O   UNL     1       8.358   5.616  20.540  0.00  0.00    +0.000 OA
ATOM     19  C   UNL     1       7.947   4.932  18.241  0.00  0.00    +0.000 C 
ATOM     20  N   UNL     1       6.625   4.720  17.678  0.00  0.00    +0.000 N 
BRANCH  20  21
ATOM     21  C   UNL     1       6.427   4.447  16.326  0.00  0.00    +0.000 A 
ATOM     22  C   UNL     1       5.420   3.569  15.891  0.00  0.00    +0.000 A 
ATOM     23  C   UNL     1       5.211   3.310  14.530  0.00  0.00    +0.000 A 
ATOM     24  C   UNL     1       6.027   3.906  13.569  0.00  0.00    +0.000 A 
ATOM     25 CL   UNL     1       5.721   3.535  11.910  0.00  0.00    +0.000 Cl
ATOM     26  C   UNL     1       7.046   4.766  13.975  0.00  0.00    +0.000 A 
ATOM     27 CL   UNL     1       8.125   5.514  12.851  0.00  0.00    +0.000 Cl
ATOM     28  C   UNL     1       7.229   5.039  15.338  0.00  0.00    +0.000 A 
ENDBRANCH  20  21
ENDBRANCH   3  15
BRANCH   1  30
ATOM     29  C   UNL     1       2.752   2.327  19.029  0.00  0.00    +0.000 C 
ATOM     30  C   UNL     1       1.724   3.465  19.161  0.00  0.00    +0.000 C 
ATOM     31  C   UNL     1       0.351   3.011  18.661  0.00  0.00    +0.000 C 
ATOM     32  C   UNL     1       1.630   3.838  20.652  0.00  0.00    +0.000 C 
ENDBRANCH   1  30
TORSDOF 4
ENDMDL
MODEL 2
REMARK VINA RESULT:      -9.3      0.641      1.442
REMARK  Name = 
REMARK  7 active torsions:
REMARK  status: ('A' for Active; 'I' for Inactive)
REMARK    1  A    between atoms: C_1  and  C_2
REMARK    2  A    between atoms: C_2  and  C_3
REMARK    3  A    between atoms: C_2  and  C_4
REMARK    4  A    between atoms: C_2  and  N_5
REMARK    5  A    between atoms: N_7  and  C_8
REMARK    6  A    between atoms: N_13  and  C_14
REMARK    7  A    between atoms: N_22  and  C_23
REMARK                            x       y       z     vdW  Elec       q    Type
REMARK                         _______ _______ _______ _____ _____    ______ ____
ROOT
ATOM      1  N   UNL     1       2.170   4.564  18.524  0.00  0.00    +0.000 N 
ATOM      2  C   UNL     1       3.408   5.145  18.486  0.00  0.00    +0.000 C 
ATOM      3  N   UNL     1       4.457   4.387  18.505  0.00  0.00    +0.000 NA
ATOM      4  N   UNL     1       3.349   6.519  18.376  0.00  0.00    +0.000 N 
ATOM      5  H   UNL     1       1.412   5.128  18.165  0.00  0.00    +0.000 HD
ATOM      6  H   UNL     1       4.278   6.936  18.316  0.00  0.00    +0.000 HD
ENDROOT
BRANCH   4   7
ATOM      7  C   UNL     1       2.470   7.375  19.087  0.00  0.00    +0.000 A 
ATOM      8  C   UNL     1       2.089   7.018  20.387  0.00  0.00    +0.000 A 
ATOM      9  C   UNL     1       1.213   7.821  21.128  0.00  0.00    +0.000 A 
ATOM     10  C   UNL     1       0.694   8.993  20.575  0.00  0.00    +0.000 A 
ATOM     11 CL   UNL     1      -0.399   9.923  21.533  0.00  0.00    +0.000 Cl
ATOM     12  C   UNL     1       1.067   9.365  19.282  0.00  0.00    +0.000 A 
ATOM     13 CL   UNL     1       0.488  10.812  18.532  0.00  0.00    +0.000 Cl
ATOM     14  C   UNL     1       1.943   8.556  18.545  0.00  0.00    +0.000 A 
ENDBRANCH   4   7
BRANCH   3  15
ATOM     15  C   UNL     1       5.741   4.815  18.635  0.00  0.00    +0.000 C 
ATOM     16  N   UNL     1       6.206   5.200  19.794  0.00  0.00    +0.000 NA
ATOM     17  C   UNL     1       7.577   5.309  19.633  0.00  0.00    +0.000 C 
ATOM     18  O   UNL     1       8.372   5.615  20.510  0.00  0.00    +0.000 OA
ATOM     19  C   UNL     1       7.984   4.941  18.203  0.00  0.00    +0.000 C 
ATOM     20  N   UNL     1       6.668   4.714  17.631  0.00  0.00    +0.000 N 
BRANCH  20  21
ATOM     21  C   UNL     1       6.482   4.447  16.276  0.00  0.00    +0.000 A 
ATOM     22  C   UNL     1       5.486   3.563  15.828  0.00  0.00    +0.000 A 
ATOM     23  C   UNL     1       5.289   3.311  14.465  0.00  0.00    +0.000 A 
ATOM     24  C   UNL     1       6.107   3.919  13.513  0.00  0.00    +0.000 A 
ATOM     25 CL   UNL     1       5.816   3.556  11.850  0.00  0.00    +0.000 Cl
ATOM     26  C   UNL     1       7.115   4.786  13.931  0.00  0.00    +0.000 A 
ATOM     27 CL   UNL     1       8.195   5.551  12.819  0.00  0.00    +0.000 Cl
ATOM     28  C   UNL     1       7.286   5.053  15.297  0.00  0.00    +0.000 A 
ENDBRANCH  20  21
ENDBRANCH   3  15
BRANCH   1  30
ATOM     29  C   UNL     1       2.238   3.071  20.517  0.00  0.00    +0.000 C 
ATOM     30  C   UNL     1       1.825   3.244  19.045  0.00  0.00    +0.000 C 
ATOM     31  C   UNL     1       2.468   2.162  18.175  0.00  0.00    +0.000 C 
ATOM     32  C   UNL     1       0.292   3.118  18.973  0.00  0.00    +0.000 C 
ENDBRANCH   1  30
TORSDOF 4
ENDMDL
MODEL 3
REMARK VINA RESULT:      -7.9      6.259      9.108
REMARK  Name = 
REMARK  7 active torsions:
REMARK  status: ('A' for Active; 'I' for Inactive)
REMARK    1  A    between atoms: C_1  and  C_2
REMARK    2  A    between atoms: C_2  and  C_3
REMARK    3  A    between atoms: C_2  and  C_4
REMARK    4  A    between atoms: C_2  and  N_5
REMARK    5  A    between atoms: N_7  and  C_8
REMARK    6  A    between atoms: N_13  and  C_14
REMARK    7  A    between atoms: N_22  and  C_23
REMARK                            x       y       z     vdW  Elec       q    Type
REMARK                         _______ _______ _______ _____ _____    ______ ____
ROOT
ATOM      1  N   UNL     1      -2.990  12.209  18.519  0.00  0.00    +0.000 N 
ATOM      2  C   UNL     1      -1.869  12.906  18.880  0.00  0.00    +0.000 C 
ATOM      3  N   UNL     1      -0.789  12.761  18.182  0.00  0.00    +0.000 NA
ATOM      4  N   UNL     1      -2.086  13.741  19.957  0.00  0.00    +0.000 N 
ATOM      5  H   UNL     1      -3.866  12.593  18.843  0.00  0.00    +0.000 HD
ATOM      6  H   UNL     1      -1.251  14.278  20.194  0.00  0.00    +0.000 HD
ENDROOT
BRANCH   4   7
ATOM      7  C   UNL     1      -2.812  13.417  21.130  0.00  0.00    +0.000 A 
ATOM      8  C   UNL     1      -2.208  12.594  22.089  0.00  0.00    +0.000 A 
ATOM      9  C   UNL     1      -2.888  12.232  23.259  0.00  0.00    +0.000 A 
ATOM     10  C   UNL     1      -4.191  12.679  23.484  0.00  0.00    +0.000 A 
ATOM     11 CL   UNL     1      -4.979  12.176  24.934  0.00  0.00    +0.000 Cl
ATOM     12  C   UNL     1      -4.806  13.503  22.540  0.00  0.00    +0.000 A 
ATOM     13 CL   UNL     1      -6.408  14.119  22.752  0.00  0.00    +0.000 Cl
ATOM     14  C   UNL     1      -4.121  13.861  21.370  0.00  0.00    +0.000 A 
ENDBRANCH   4   7
BRANCH   3  15
ATOM     15  C   UNL     1       0.436  13.254  18.508  0.00  0.00    +0.000 C 
ATOM     16  N   UNL     1       0.651  14.542  18.552  0.00  0.00    +0.000 NA
ATOM     17  C   UNL     1       1.885  14.697  19.162  0.00  0.00    +0.000 C 
ATOM     18  O   UNL     1       2.421  15.766  19.415  0.00  0.00    +0.000 OA
ATOM     19  C   UNL     1       2.480  13.336  19.531  0.00  0.00    +0.000 C 
ATOM     20  N   UNL     1       1.459  12.467  18.971  0.00  0.00    +0.000 N 
BRANCH  20  21
ATOM     21  C   UNL     1       1.590  11.081  18.952  0.00  0.00    +0.000 A 
ATOM     22  C   UNL     1       2.159  10.409  17.856  0.00  0.00    +0.000 A 
ATOM     23  C   UNL     1       2.306   9.016  17.847  0.00  0.00    +0.000 A 
ATOM     24  C   UNL     1       1.860   8.256  18.927  0.00  0.00    +0.000 A 
ATOM     25 CL   UNL     1       2.063   6.543  18.845  0.00  0.00    +0.000 Cl
ATOM     26  C   UNL     1       1.274   8.895  20.018  0.00  0.00    +0.000 A 
ATOM     27 CL   UNL     1       0.661   8.024  21.379  0.00  0.00    +0.000 Cl
ATOM     28  C   UNL     1       1.156  10.293  20.030  0.00  0.00    +0.000 A 
ENDBRANCH  20  21
ENDBRANCH   3  15
BRANCH   1  30
ATOM     29  C   UNL     1      -2.003   9.943  18.205  0.00  0.00    +0.000 C 
ATOM     30  C   UNL     1      -3.053  10.970  17.747  0.00  0.00    +0.000 C 
ATOM     31  C   UNL     1      -2.890  11.280  16.258  0.00  0.00    +0.000 C 
ATOM     32  C   UNL     1      -4.444  10.357  17.995  0.00  0.00    +0.000 C 
ENDBRANCH   1  30
TORSDOF 4
ENDMDL
MODEL 4
REMARK VINA RESULT:      -7.8      6.519      9.183
REMARK  Name = 
REMARK  7 active torsions:
REMARK  status: ('A' for Active; 'I' for Inactive)
REMARK    1  A    between atoms: C_1  and  C_2
REMARK    2  A    between atoms: C_2  and  C_3
REMARK    3  A    between atoms: C_2  and  C_4
REMARK    4  A    between atoms: C_2  and  N_5
REMARK    5  A    between atoms: N_7  and  C_8
REMARK    6  A    between atoms: N_13  and  C_14
REMARK    7  A    between atoms: N_22  and  C_23
REMARK                            x       y       z     vdW  Elec       q    Type
REMARK                         _______ _______ _______ _____ _____    ______ ____
ROOT
ATOM      1  N   UNL     1      -2.952  12.263  18.546  0.00  0.00    +0.000 N 
ATOM      2  C   UNL     1      -1.817  12.933  18.914  0.00  0.00    +0.000 C 
ATOM      3  N   UNL     1      -0.740  12.771  18.215  0.00  0.00    +0.000 NA
ATOM      4  N   UNL     1      -2.015  13.762  19.999  0.00  0.00    +0.000 N 
ATOM      5  H   UNL     1      -3.820  12.664  18.874  0.00  0.00    +0.000 HD
ATOM      6  H   UNL     1      -1.170  14.279  20.242  0.00  0.00    +0.000 HD
ENDROOT
BRANCH   4   7
ATOM      7  C   UNL     1      -2.749  13.442  21.169  0.00  0.00    +0.000 A 
ATOM      8  C   UNL     1      -2.200  12.530  22.078  0.00  0.00    +0.000 A 
ATOM      9  C   UNL     1      -2.890  12.168  23.243  0.00  0.00    +0.000 A 
ATOM     10  C   UNL     1      -4.149  12.707  23.511  0.00  0.00    +0.000 A 
ATOM     11 CL   UNL     1      -4.955  12.202  24.951  0.00  0.00    +0.000 Cl
ATOM     12  C   UNL     1      -4.709  13.622  22.616  0.00  0.00    +0.000 A 
ATOM     13 CL   UNL     1      -6.253  14.354  22.885  0.00  0.00    +0.000 Cl
ATOM     14  C   UNL     1      -4.014  13.978  21.452  0.00  0.00    +0.000 A 
ENDBRANCH   4   7
BRANCH   3  15
ATOM     15  C   UNL     1       0.495  13.235  18.546  0.00  0.00    +0.000 C 
ATOM     16  N   UNL     1       0.838  14.471  18.298  0.00  0.00    +0.000 NA
ATOM     17  C   UNL     1       2.021  14.680  18.986  0.00  0.00    +0.000 C 
ATOM     18  O   UNL     1       2.640  15.733  19.029  0.00  0.00    +0.000 OA
ATOM     19  C   UNL     1       2.438  13.414  19.740  0.00  0.00    +0.000 C 
ATOM     20  N   UNL     1       1.387  12.514  19.299  0.00  0.00    +0.000 N 
BRANCH  20  21
ATOM     21  C   UNL     1       1.375  11.162  19.633  0.00  0.00    +0.000 A 
ATOM     22  C   UNL     1       0.984  10.722  20.909  0.00  0.00    +0.000 A 
ATOM     23  C   UNL     1       0.956   9.360  21.237  0.00  0.00    +0.000 A 
ATOM     24  C   UNL     1       1.348   8.405  20.301  0.00  0.00    +0.000 A 
ATOM     25 CL   UNL     1       1.299   6.744  20.775  0.00  0.00    +0.000 Cl
ATOM     26  C   UNL     1       1.759   8.816  19.034  0.00  0.00    +0.000 A 
ATOM     27 CL   UNL     1       2.296   7.698  17.829  0.00  0.00    +0.000 Cl
ATOM     28  C   UNL     1       1.757  10.179  18.707  0.00  0.00    +0.000 A 
ENDBRANCH  20  21
ENDBRANCH   3  15
BRANCH   1  30
ATOM     29  C   UNL     1      -2.698  11.260  16.280  0.00  0.00    +0.000 C 
ATOM     30  C   UNL     1      -3.042  11.034  17.763  0.00  0.00    +0.000 C 
ATOM     31  C   UNL     1      -4.441  10.432  17.906  0.00  0.00    +0.000 C 
ATOM     32  C   UNL     1      -2.000  10.057  18.339  0.00  0.00    +0.000 C 
ENDBRANCH   1  30
TORSDOF 4
ENDMDL
MODEL 5
REMARK VINA RESULT:      -7.7      6.538      9.200
REMARK  Name = 
REMARK  7 active torsions:
REMARK  status: ('A' for Active; 'I' for Inactive)
REMARK    1  A    between atoms: C_1  and  C_2
REMARK    2  A    between atoms: C_2  and  C_3
REMARK    3  A    between atoms: C_2  and  C_4
REMARK    4  A    between atoms: C_2  and  N_5
REMARK    5  A    between atoms: N_7  and  C_8
REMARK    6  A    between atoms: N_13  and  C_14
REMARK    7  A    between atoms: N_22  and  C_23
REMARK                            x       y       z     vdW  Elec       q    Type
REMARK                         _______ _______ _______ _____ _____    ______ ____
ROOT
ATOM      1  N   UNL     1      -3.067  11.928  18.229  0.00  0.00    +0.000 N 
ATOM      2  C   UNL     1      -2.106  12.675  18.854  0.00  0.00    +0.000 C 
ATOM      3  N   UNL     1      -0.868  12.516  18.513  0.00  0.00    +0.000 NA
ATOM      4  N   UNL     1      -2.633  13.569  19.763  0.00  0.00    +0.000 N 
ATOM      5  H   UNL     1      -4.002  12.310  18.257  0.00  0.00    +0.000 HD
ATOM      6  H   UNL     1      -1.908  14.141  20.197  0.00  0.00    +0.000 HD
ENDROOT
BRANCH   4   7
ATOM      7  C   UNL     1      -3.669  13.299  20.693  0.00  0.00    +0.000 A 
ATOM      8  C   UNL     1      -4.998  13.366  20.257  0.00  0.00    +0.000 A 
ATOM      9  C   UNL     1      -6.059  13.122  21.138  0.00  0.00    +0.000 A 
ATOM     10  C   UNL     1      -5.808  12.816  22.476  0.00  0.00    +0.000 A 
ATOM     11 CL   UNL     1      -7.160  12.550  23.513  0.00  0.00    +0.000 Cl
ATOM     12  C   UNL     1      -4.487  12.741  22.926  0.00  0.00    +0.000 A 
ATOM     13 CL   UNL     1      -4.087  12.346  24.562  0.00  0.00    +0.000 Cl
ATOM     14  C   UNL     1      -3.430  12.989  22.039  0.00  0.00    +0.000 A 
ENDBRANCH   4   7
BRANCH   3  15
ATOM     15  C   UNL     1       0.205  13.059  19.148  0.00  0.00    +0.000 C 
ATOM     16  N   UNL     1       0.405  14.350  19.143  0.00  0.00    +0.000 NA
ATOM     17  C   UNL     1       1.399  14.580  20.080  0.00  0.00    +0.000 C 
ATOM     18  O   UNL     1       1.841  15.678  20.389  0.00  0.00    +0.000 OA
ATOM     19  C   UNL     1       1.846  13.267  20.728  0.00  0.00    +0.000 C 
ATOM     20  N   UNL     1       1.035  12.335  19.964  0.00  0.00    +0.000 N 
BRANCH  20  21
ATOM     21  C   UNL     1       1.157  10.954  20.105  0.00  0.00    +0.000 A 
ATOM     22  C   UNL     1       0.799  10.301  21.296  0.00  0.00    +0.000 A 
ATOM     23  C   UNL     1       0.905   8.910  21.430  0.00  0.00    +0.000 A 
ATOM     24  C   UNL     1       1.401   8.140  20.378  0.00  0.00    +0.000 A 
ATOM     25 CL   UNL     1       1.514   6.433  20.614  0.00  0.00    +0.000 Cl
ATOM     26  C   UNL     1       1.782   8.766  19.192  0.00  0.00    +0.000 A 
ATOM     27 CL   UNL     1       2.440   7.889  17.856  0.00  0.00    +0.000 Cl
ATOM     28  C   UNL     1       1.646  10.155  19.060  0.00  0.00    +0.000 A 
ENDBRANCH  20  21
ENDBRANCH   3  15
BRANCH   1  30
ATOM     29  C   UNL     1      -1.754   9.812  18.170  0.00  0.00    +0.000 C 
ATOM     30  C   UNL     1      -2.894  10.644  17.556  0.00  0.00    +0.000 C 
ATOM     31  C   UNL     1      -2.651  10.871  16.063  0.00  0.00    +0.000 C 
ATOM     32  C   UNL     1      -4.202   9.855  17.750  0.00  0.00    +0.000 C 
ENDBRANCH   1  30
TORSDOF 4
ENDMDL
MODEL 6
REMARK VINA RESULT:      -7.6      5.986     11.302
REMARK  Name = 
REMARK  7 active torsions:
REMARK  status: ('A' for Active; 'I' for Inactive)
REMARK    1  A    between atoms: C_1  and  C_2
REMARK    2  A    between atoms: C_2  and  C_3
REMARK    3  A    between atoms: C_2  and  C_4
REMARK    4  A    between atoms: C_2  and  N_5
REMARK    5  A    between atoms: N_7  and  C_8
REMARK    6  A    between atoms: N_13  and  C_14
REMARK    7  A    between atoms: N_22  and  C_23
REMARK                            x       y       z     vdW  Elec       q    Type
REMARK                         _______ _______ _______ _____ _____    ______ ____
ROOT
ATOM      1  N   UNL     1      -1.747  10.191  18.975  0.00  0.00    +0.000 N 
ATOM      2  C   UNL     1      -1.098  10.827  19.998  0.00  0.00    +0.000 C 
ATOM      3  N   UNL     1      -1.524  11.986  20.385  0.00  0.00    +0.000 NA
ATOM      4  N   UNL     1      -0.068  10.074  20.524  0.00  0.00    +0.000 N 
ATOM      5  H   UNL     1      -1.625   9.188  18.937  0.00  0.00    +0.000 HD
ATOM      6  H   UNL     1       0.386  10.547  21.306  0.00  0.00    +0.000 HD
ENDROOT
BRANCH   4   7
ATOM      7  C   UNL     1       0.883   9.328  19.782  0.00  0.00    +0.000 A 
ATOM      8  C   UNL     1       1.332   9.841  18.559  0.00  0.00    +0.000 A 
ATOM      9  C   UNL     1       2.260   9.136  17.780  0.00  0.00    +0.000 A 
ATOM     10  C   UNL     1       2.745   7.900  18.208  0.00  0.00    +0.000 A 
ATOM     11 CL   UNL     1       3.867   7.075  17.190  0.00  0.00    +0.000 Cl
ATOM     12  C   UNL     1       2.309   7.378  19.428  0.00  0.00    +0.000 A 
ATOM     13 CL   UNL     1       2.878   5.864  20.043  0.00  0.00    +0.000 Cl
ATOM     14  C   UNL     1       1.380   8.086  20.202  0.00  0.00    +0.000 A 
ENDBRANCH   4   7
BRANCH   3  15
ATOM     15  C   UNL     1      -0.893  12.806  21.268  0.00  0.00    +0.000 C 
ATOM     16  N   UNL     1       0.381  13.071  21.147  0.00  0.00    +0.000 NA
ATOM     17  C   UNL     1       0.632  14.117  22.019  0.00  0.00    +0.000 C 
ATOM     18  O   UNL     1       1.711  14.672  22.167  0.00  0.00    +0.000 OA
ATOM     19  C   UNL     1      -0.648  14.532  22.748  0.00  0.00    +0.000 C 
ATOM     20  N   UNL     1      -1.561  13.534  22.219  0.00  0.00    +0.000 N 
BRANCH  20  21
ATOM     21  C   UNL     1      -2.874  13.413  22.669  0.00  0.00    +0.000 A 
ATOM     22  C   UNL     1      -3.191  12.687  23.829  0.00  0.00    +0.000 A 
ATOM     23  C   UNL     1      -4.510  12.581  24.290  0.00  0.00    +0.000 A 
ATOM     24  C   UNL     1      -5.550  13.181  23.581  0.00  0.00    +0.000 A 
ATOM     25 CL   UNL     1      -7.153  13.003  24.199  0.00  0.00    +0.000 Cl
ATOM     26  C   UNL     1      -5.265  13.891  22.416  0.00  0.00    +0.000 A 
ATOM     27 CL   UNL     1      -6.500  14.631  21.460  0.00  0.00    +0.000 Cl
ATOM     28  C   UNL     1      -3.938  14.013  21.979  0.00  0.00    +0.000 A 
ENDBRANCH  20  21
ENDBRANCH   3  15
BRANCH   1  30
ATOM     29  C   UNL     1      -3.811  11.501  18.499  0.00  0.00    +0.000 C 
ATOM     30  C   UNL     1      -2.566  10.799  17.930  0.00  0.00    +0.000 C 
ATOM     31  C   UNL     1      -2.968   9.738  16.904  0.00  0.00    +0.000 C 
ATOM     32  C   UNL     1      -1.698  11.872  17.246  0.00  0.00    +0.000 C 
ENDBRANCH   1  30
TORSDOF 4
ENDMDL
MODEL 7
REMARK VINA RESULT:      -7.6      6.552      9.292
REMARK  Name = 
REMARK  7 active torsions:
REMARK  status: ('A' for Active; 'I' for Inactive)
REMARK    1  A    between atoms: C_1  and  C_2
REMARK    2  A    between atoms: C_2  and  C_3
REMARK    3  A    between atoms: C_2  and  C_4
REMARK    4  A    between atoms: C_2  and  N_5
REMARK    5  A    between atoms: N_7  and  C_8
REMARK    6  A    between atoms: N_13  and  C_14
REMARK    7  A    between atoms: N_22  and  C_23
REMARK                            x       y       z     vdW  Elec       q    Type
REMARK                         _______ _______ _______ _____ _____    ______ ____
ROOT
ATOM      1  N   UNL     1      -3.007  12.128  18.304  0.00  0.00    +0.000 N 
ATOM      2  C   UNL     1      -1.966  12.851  18.818  0.00  0.00    +0.000 C 
ATOM      3  N   UNL     1      -0.777  12.662  18.343  0.00  0.00    +0.000 NA
ATOM      4  N   UNL     1      -2.369  13.756  19.778  0.00  0.00    +0.000 N 
ATOM      5  H   UNL     1      -3.925  12.531  18.433  0.00  0.00    +0.000 HD
ATOM      6  H   UNL     1      -1.588  14.310  20.130  0.00  0.00    +0.000 HD
ENDROOT
BRANCH   4   7
ATOM      7  C   UNL     1      -3.303  13.509  20.817  0.00  0.00    +0.000 A 
ATOM      8  C   UNL     1      -2.834  13.011  22.038  0.00  0.00    +0.000 A 
ATOM      9  C   UNL     1      -3.717  12.737  23.091  0.00  0.00    +0.000 A 
ATOM     10  C   UNL     1      -5.087  12.946  22.935  0.00  0.00    +0.000 A 
ATOM     11 CL   UNL     1      -6.121  12.565  24.262  0.00  0.00    +0.000 Cl
ATOM     12  C   UNL     1      -5.570  13.447  21.723  0.00  0.00    +0.000 A 
ATOM     13 CL   UNL     1      -7.251  13.757  21.454  0.00  0.00    +0.000 Cl
ATOM     14  C   UNL     1      -4.682  13.717  20.673  0.00  0.00    +0.000 A 
ENDBRANCH   4   7
BRANCH   3  15
ATOM     15  C   UNL     1       0.371  13.180  18.856  0.00  0.00    +0.000 C 
ATOM     16  N   UNL     1       0.645  14.452  18.741  0.00  0.00    +0.000 NA
ATOM     17  C   UNL     1       1.720  14.684  19.583  0.00  0.00    +0.000 C 
ATOM     18  O   UNL     1       2.247  15.770  19.776  0.00  0.00    +0.000 OA
ATOM     19  C   UNL     1       2.139  13.393  20.292  0.00  0.00    +0.000 C 
ATOM     20  N   UNL     1       1.219  12.463  19.661  0.00  0.00    +0.000 N 
BRANCH  20  21
ATOM     21  C   UNL     1       1.272  11.091  19.895  0.00  0.00    +0.000 A 
ATOM     22  C   UNL     1       0.920  10.541  21.139  0.00  0.00    +0.000 A 
ATOM     23  C   UNL     1       0.956   9.160  21.367  0.00  0.00    +0.000 A 
ATOM     24  C   UNL     1       1.373   8.293  20.357  0.00  0.00    +0.000 A 
ATOM     25 CL   UNL     1       1.403   6.602  20.708  0.00  0.00    +0.000 Cl
ATOM     26  C   UNL     1       1.746   8.813  19.119  0.00  0.00    +0.000 A 
ATOM     27 CL   UNL     1       2.310   7.812  17.828  0.00  0.00    +0.000 Cl
ATOM     28  C   UNL     1       1.680  10.196  18.893  0.00  0.00    +0.000 A 
ENDBRANCH  20  21
ENDBRANCH   3  15
BRANCH   1  30
ATOM     29  C   UNL     1      -1.859   9.919  18.211  0.00  0.00    +0.000 C 
ATOM     30  C   UNL     1      -2.939  10.840  17.618  0.00  0.00    +0.000 C 
ATOM     31  C   UNL     1      -2.697  11.063  16.124  0.00  0.00    +0.000 C 
ATOM     32  C   UNL     1      -4.302  10.150  17.820  0.00  0.00    +0.000 C 
ENDBRANCH   1  30
TORSDOF 4
ENDMDL
MODEL 8
REMARK VINA RESULT:      -7.6      6.183      9.096
REMARK  Name = 
REMARK  7 active torsions:
REMARK  status: ('A' for Active; 'I' for Inactive)
REMARK    1  A    between atoms: C_1  and  C_2
REMARK    2  A    between atoms: C_2  and  C_3
REMARK    3  A    between atoms: C_2  and  C_4
REMARK    4  A    between atoms: C_2  and  N_5
REMARK    5  A    between atoms: N_7  and  C_8
REMARK    6  A    between atoms: N_13  and  C_14
REMARK    7  A    between atoms: N_22  and  C_23
REMARK                            x       y       z     vdW  Elec       q    Type
REMARK                         _______ _______ _______ _____ _____    ______ ____
ROOT
ATOM      1  N   UNL     1      -3.186  12.021  18.229  0.00  0.00    +0.000 N 
ATOM      2  C   UNL     1      -2.200  12.709  18.883  0.00  0.00    +0.000 C 
ATOM      3  N   UNL     1      -0.968  12.525  18.531  0.00  0.00    +0.000 NA
ATOM      4  N   UNL     1      -2.697  13.578  19.833  0.00  0.00    +0.000 N 
ATOM      5  H   UNL     1      -4.108  12.430  18.277  0.00  0.00    +0.000 HD
ATOM      6  H   UNL     1      -1.953  14.106  20.289  0.00  0.00    +0.000 HD
ENDROOT
BRANCH   4   7
ATOM      7  C   UNL     1      -3.739  13.300  20.753  0.00  0.00    +0.000 A 
ATOM      8  C   UNL     1      -5.062  13.315  20.294  0.00  0.00    +0.000 A 
ATOM      9  C   UNL     1      -6.130  13.061  21.165  0.00  0.00    +0.000 A 
ATOM     10  C   UNL     1      -5.891  12.798  22.515  0.00  0.00    +0.000 A 
ATOM     11 CL   UNL     1      -7.252  12.517  23.537  0.00  0.00    +0.000 Cl
ATOM     12  C   UNL     1      -4.577  12.775  22.986  0.00  0.00    +0.000 A 
ATOM     13 CL   UNL     1      -4.192  12.434  24.638  0.00  0.00    +0.000 Cl
ATOM     14  C   UNL     1      -3.513  13.032  22.110  0.00  0.00    +0.000 A 
ENDBRANCH   4   7
BRANCH   3  15
ATOM     15  C   UNL     1       0.122  13.005  19.186  0.00  0.00    +0.000 C 
ATOM     16  N   UNL     1       0.181  14.253  19.568  0.00  0.00    +0.000 NA
ATOM     17  C   UNL     1       1.272  14.337  20.417  0.00  0.00    +0.000 C 
ATOM     18  O   UNL     1       1.635  15.344  21.007  0.00  0.00    +0.000 OA
ATOM     19  C   UNL     1       1.947  12.971  20.565  0.00  0.00    +0.000 C 
ATOM     20  N   UNL     1       1.137  12.201  19.638  0.00  0.00    +0.000 N 
BRANCH  20  21
ATOM     21  C   UNL     1       1.425  10.875  19.322  0.00  0.00    +0.000 A 
ATOM     22  C   UNL     1       1.929  10.510  18.062  0.00  0.00    +0.000 A 
ATOM     23  C   UNL     1       2.235   9.178  17.753  0.00  0.00    +0.000 A 
ATOM     24  C   UNL     1       2.016   8.172  18.693  0.00  0.00    +0.000 A 
ATOM     25 CL   UNL     1       2.405   6.550  18.243  0.00  0.00    +0.000 Cl
ATOM     26  C   UNL     1       1.499   8.504  19.944  0.00  0.00    +0.000 A 
ATOM     27 CL   UNL     1       1.163   7.313  21.151  0.00  0.00    +0.000 Cl
ATOM     28  C   UNL     1       1.222   9.844  20.252  0.00  0.00    +0.000 A 
ENDBRANCH  20  21
ENDBRANCH   3  15
BRANCH   1  30
ATOM     29  C   UNL     1      -1.887   9.906  18.019  0.00  0.00    +0.000 C 
ATOM     30  C   UNL     1      -3.055  10.763  17.500  0.00  0.00    +0.000 C 
ATOM     31  C   UNL     1      -2.892  11.046  16.005  0.00  0.00    +0.000 C 
ATOM     32  C   UNL     1      -4.354   9.970  17.734  0.00  0.00    +0.000 C 
ENDBRANCH   1  30
TORSDOF 4
ENDMDL
MODEL 9
REMARK VINA RESULT:      -7.6      5.179      7.994
REMARK  Name = 
REMARK  7 active torsions:
REMARK  status: ('A' for Active; 'I' for Inactive)
REMARK    1  A    between atoms: C_1  and  C_2
REMARK    2  A    between atoms: C_2  and  C_3
REMARK    3  A    between atoms: C_2  and  C_4
REMARK    4  A    between atoms: C_2  and  N_5
REMARK    5  A    between atoms: N_7  and  C_8
REMARK    6  A    between atoms: N_13  and  C_14
REMARK    7  A    between atoms: N_22  and  C_23
REMARK                            x       y       z     vdW  Elec       q    Type
REMARK                         _______ _______ _______ _____ _____    ______ ____
ROOT
ATOM      1  N   UNL     1      -1.278  11.876  17.795  0.00  0.00    +0.000 N 
ATOM      2  C   UNL     1      -0.558  11.639  18.934  0.00  0.00    +0.000 C 
ATOM      3  N   UNL     1      -0.539  10.442  19.426  0.00  0.00    +0.000 NA
ATOM      4  N   UNL     1       0.117  12.757  19.381  0.00  0.00    +0.000 N 
ATOM      5  H   UNL     1      -0.998  12.689  17.263  0.00  0.00    +0.000 HD
ATOM      6  H   UNL     1       0.674  12.558  20.211  0.00  0.00    +0.000 HD
ENDROOT
BRANCH   4   7
ATOM      7  C   UNL     1      -0.404  14.075  19.442  0.00  0.00    +0.000 A 
ATOM      8  C   UNL     1      -1.399  14.361  20.385  0.00  0.00    +0.000 A 
ATOM      9  C   UNL     1      -1.957  15.643  20.477  0.00  0.00    +0.000 A 
ATOM     10  C   UNL     1      -1.534  16.659  19.619  0.00  0.00    +0.000 A 
ATOM     11 CL   UNL     1      -2.279  18.208  19.770  0.00  0.00    +0.000 Cl
ATOM     12  C   UNL     1      -0.539  16.390  18.676  0.00  0.00    +0.000 A 
ATOM     13 CL   UNL     1       0.058  17.598  17.591  0.00  0.00    +0.000 Cl
ATOM     14  C   UNL     1       0.013  15.105  18.587  0.00  0.00    +0.000 A 
ENDBRANCH   4   7
BRANCH   3  15
ATOM     15  C   UNL     1      -0.009  10.088  20.627  0.00  0.00    +0.000 C 
ATOM     16  N   UNL     1      -0.481  10.583  21.741  0.00  0.00    +0.000 NA
ATOM     17  C   UNL     1       0.084   9.830  22.757  0.00  0.00    +0.000 C 
ATOM     18  O   UNL     1      -0.141   9.968  23.950  0.00  0.00    +0.000 OA
ATOM     19  C   UNL     1       1.004   8.750  22.181  0.00  0.00    +0.000 C 
ATOM     20  N   UNL     1       0.913   9.084  20.771  0.00  0.00    +0.000 N 
BRANCH  20  21
ATOM     21  C   UNL     1       1.679   8.439  19.802  0.00  0.00    +0.000 A 
ATOM     22  C   UNL     1       1.932   9.026  18.551  0.00  0.00    +0.000 A 
ATOM     23  C   UNL     1       2.717   8.383  17.585  0.00  0.00    +0.000 A 
ATOM     24  C   UNL     1       3.248   7.118  17.841  0.00  0.00    +0.000 A 
ATOM     25 CL   UNL     1       4.198   6.379  16.603  0.00  0.00    +0.000 Cl
ATOM     26  C   UNL     1       2.996   6.505  19.067  0.00  0.00    +0.000 A 
ATOM     27 CL   UNL     1       3.584   4.925  19.447  0.00  0.00    +0.000 Cl
ATOM     28  C   UNL     1       2.231   7.170  20.037  0.00  0.00    +0.000 A 
ENDBRANCH  20  21
ENDBRANCH   3  15
BRANCH   1  30
ATOM     29  C   UNL     1      -2.180   9.589  17.395  0.00  0.00    +0.000 C 
ATOM     30  C   UNL     1      -2.409  11.107  17.285  0.00  0.00    +0.000 C 
ATOM     31  C   UNL     1      -2.693  11.505  15.835  0.00  0.00    +0.000 C 
ATOM     32  C   UNL     1      -3.625  11.459  18.162  0.00  0.00    +0.000 C 
ENDBRANCH   1  30
TORSDOF 4
ENDMDL
