MODEL 1
REMARK VINA RESULT:      -7.1      0.000      0.000
REMARK  Name = 
REMARK  6 active torsions:
REMARK  status: ('A' for Active; 'I' for Inactive)
REMARK    1  A    between atoms: C_1  and  C_2
REMARK    2  A    between atoms: C_2  and  O_3
REMARK    3  A    between atoms: O_3  and  C_4
REMARK    4  A    between atoms: C_4  and  C_6
REMARK    5  A    between atoms: C_23  and  C_24
REMARK    6  A    between atoms: C_30  and  C_31
REMARK                            x       y       z     vdW  Elec       q    Type
REMARK                         _______ _______ _______ _____ _____    ______ ____
ROOT
ATOM      1  C   UNL     1      -0.455  12.230  22.433  0.00  0.00    +0.000 C 
ATOM      2  C   UNL     1       0.257  10.940  21.987  0.00  0.00    +0.000 C 
ATOM      3  C   UNL     1      -0.117   9.544  22.404  0.00  0.00    +0.000 C 
ATOM      4  O   UNL     1       0.866   8.609  21.904  0.00  0.00    +0.000 OA
ATOM      5  C   UNL     1       1.230   8.759  20.586  0.00  0.00    +0.000 A 
ATOM      6  C   UNL     1       1.876   7.671  19.997  0.00  0.00    +0.000 A 
ATOM      7  C   UNL     1       2.172   7.683  18.631  0.00  0.00    +0.000 A 
ATOM      8  C   UNL     1       1.802   8.774  17.853  0.00  0.00    +0.000 A 
ATOM      9  C   UNL     1       1.190   9.876  18.450  0.00  0.00    +0.000 A 
ATOM     10  C   UNL     1       0.964   9.911  19.833  0.00  0.00    +0.000 A 
ATOM     11  C   UNL     1       0.252  11.051  20.479  0.00  0.00    +0.000 C 
ATOM     12  N   UNL     1       0.615  12.463  20.361  0.00  0.00    +0.000 N 
ATOM     13  C   UNL     1       1.468  13.034  19.456  0.00  0.00    +0.000 C 
ATOM     14  O   UNL     1       2.392  12.491  18.878  0.00  0.00    +0.000 OA
ATOM     15  C   UNL     1       1.219  14.460  19.184  0.00  0.00    +0.000 A 
ATOM     16  C   UNL     1       2.245  15.373  19.431  0.00  0.00    +0.000 A 
ATOM     17  C   UNL     1       1.980  16.731  19.299  0.00  0.00    +0.000 A 
ATOM     18  C   UNL     1       0.746  17.166  18.789  0.00  0.00    +0.000 A 
ATOM     19  C   UNL     1       0.464  18.630  18.665  0.00  0.00    +0.000 C 
ATOM     20  C   UNL     1      -0.248  16.229  18.464  0.00  0.00    +0.000 A 
ATOM     21  C   UNL     1      -0.066  14.895  18.815  0.00  0.00    +0.000 A 
ATOM     22  N   UNL     1      -1.240  14.141  19.060  0.00  0.00    +0.000 N 
ATOM     23  C   UNL     1      -1.486  13.419  20.221  0.00  0.00    +0.000 C 
ATOM     24  O   UNL     1      -2.601  12.921  20.398  0.00  0.00    +0.000 OA
ATOM     25  C   UNL     1      -0.310  13.221  21.235  0.00  0.00    +0.000 C 
ATOM     26  C   UNL     1       0.156  14.563  21.856  0.00  0.00    +0.000 C 
ATOM     27  H   UNL     1      -2.087  14.387  18.557  0.00  0.00    +0.000 HD
ENDROOT
BRANCH   1  28
ATOM     28  C   UNL     1      -1.806  12.311  23.101  0.00  0.00    +0.000 C 
ATOM     29  O   UNL     1      -2.694  11.497  22.859  0.00  0.00    +0.000 OA
BRANCH  28  30
ATOM     30  O   UNL     1      -1.999  13.518  23.674  0.00  0.00    +0.000 OA
BRANCH  30  32
ATOM     31  C   UNL     1      -3.456  15.245  22.936  0.00  0.00    +0.000 C 
ATOM     32  C   UNL     1      -3.370  13.946  23.719  0.00  0.00    +0.000 C 
ENDBRANCH  30  32
ENDBRANCH  28  30
ENDBRANCH   1  28
TORSDOF 3
ENDMDL
MODEL 2
REMARK VINA RESULT:      -7.1      1.659      6.228
REMARK  Name = 
REMARK  6 active torsions:
REMARK  status: ('A' for Active; 'I' for Inactive)
REMARK    1  A    between atoms: C_1  and  C_2
REMARK    2  A    between atoms: C_2  and  O_3
REMARK    3  A    between atoms: O_3  and  C_4
REMARK    4  A    between atoms: C_4  and  C_6
REMARK    5  A    between atoms: C_23  and  C_24
REMARK    6  A    between atoms: C_30  and  C_31
REMARK                            x       y       z     vdW  Elec       q    Type
REMARK                         _______ _______ _______ _____ _____    ______ ____
ROOT
ATOM      1  C   UNL     1       0.883  11.902  20.511  0.00  0.00    +0.000 C 
ATOM      2  C   UNL     1       1.510  13.156  19.874  0.00  0.00    +0.000 C 
ATOM      3  C   UNL     1       2.515  13.161  18.754  0.00  0.00    +0.000 C 
ATOM      4  O   UNL     1       2.981  14.510  18.527  0.00  0.00    +0.000 OA
ATOM      5  C   UNL     1       2.011  15.483  18.460  0.00  0.00    +0.000 A 
ATOM      6  C   UNL     1       2.394  16.697  17.887  0.00  0.00    +0.000 A 
ATOM      7  C   UNL     1       1.447  17.700  17.663  0.00  0.00    +0.000 A 
ATOM      8  C   UNL     1       0.114  17.478  17.993  0.00  0.00    +0.000 A 
ATOM      9  C   UNL     1      -0.260  16.279  18.600  0.00  0.00    +0.000 A 
ATOM     10  C   UNL     1       0.696  15.300  18.906  0.00  0.00    +0.000 A 
ATOM     11  C   UNL     1       0.305  13.986  19.494  0.00  0.00    +0.000 C 
ATOM     12  N   UNL     1      -0.486  13.794  20.708  0.00  0.00    +0.000 N 
ATOM     13  C   UNL     1      -1.236  14.726  21.374  0.00  0.00    +0.000 C 
ATOM     14  O   UNL     1      -1.074  15.933  21.371  0.00  0.00    +0.000 OA
ATOM     15  C   UNL     1      -2.342  14.175  22.176  0.00  0.00    +0.000 A 
ATOM     16  C   UNL     1      -2.364  14.437  23.545  0.00  0.00    +0.000 A 
ATOM     17  C   UNL     1      -3.330  13.817  24.332  0.00  0.00    +0.000 A 
ATOM     18  C   UNL     1      -4.348  13.056  23.734  0.00  0.00    +0.000 A 
ATOM     19  C   UNL     1      -5.374  12.381  24.588  0.00  0.00    +0.000 C 
ATOM     20  C   UNL     1      -4.361  12.872  22.342  0.00  0.00    +0.000 A 
ATOM     21  C   UNL     1      -3.269  13.295  21.590  0.00  0.00    +0.000 A 
ATOM     22  N   UNL     1      -3.012  12.582  20.393  0.00  0.00    +0.000 N 
ATOM     23  C   UNL     1      -1.794  11.997  20.069  0.00  0.00    +0.000 C 
ATOM     24  O   UNL     1      -1.718  11.271  19.074  0.00  0.00    +0.000 OA
ATOM     25  C   UNL     1      -0.550  12.335  20.957  0.00  0.00    +0.000 C 
ATOM     26  C   UNL     1      -0.711  11.815  22.408  0.00  0.00    +0.000 C 
ATOM     27  H   UNL     1      -3.796  12.167  19.899  0.00  0.00    +0.000 HD
ENDROOT
BRANCH   1  28
ATOM     28  C   UNL     1       0.923  10.506  19.941  0.00  0.00    +0.000 C 
ATOM     29  O   UNL     1       0.798   9.514  20.655  0.00  0.00    +0.000 OA
BRANCH  28  30
ATOM     30  O   UNL     1       1.440  10.498  18.694  0.00  0.00    +0.000 OA
BRANCH  30  32
ATOM     31  C   UNL     1       2.452   8.554  17.774  0.00  0.00    +0.000 C 
ATOM     32  C   UNL     1       1.148   9.316  17.932  0.00  0.00    +0.000 C 
ENDBRANCH  30  32
ENDBRANCH  28  30
ENDBRANCH   1  28
TORSDOF 3
ENDMDL
MODEL 3
REMARK VINA RESULT:      -6.8      2.777      5.155
REMARK  Name = 
REMARK  6 active torsions:
REMARK  status: ('A' for Active; 'I' for Inactive)
REMARK    1  A    between atoms: C_1  and  C_2
REMARK    2  A    between atoms: C_2  and  O_3
REMARK    3  A    between atoms: O_3  and  C_4
REMARK    4  A    between atoms: C_4  and  C_6
REMARK    5  A    between atoms: C_23  and  C_24
REMARK    6  A    between atoms: C_30  and  C_31
REMARK                            x       y       z     vdW  Elec       q    Type
REMARK                         _______ _______ _______ _____ _____    ______ ____
ROOT
ATOM      1  C   UNL     1      -2.388  13.470  23.104  0.00  0.00    +0.000 C 
ATOM      2  C   UNL     1      -3.740  12.848  22.706  0.00  0.00    +0.000 C 
ATOM      3  C   UNL     1      -5.042  13.045  23.432  0.00  0.00    +0.000 C 
ATOM      4  O   UNL     1      -6.054  12.190  22.853  0.00  0.00    +0.000 OA
ATOM      5  C   UNL     1      -6.133  12.189  21.479  0.00  0.00    +0.000 A 
ATOM      6  C   UNL     1      -7.309  11.677  20.930  0.00  0.00    +0.000 A 
ATOM      7  C   UNL     1      -7.532  11.748  19.552  0.00  0.00    +0.000 A 
ATOM      8  C   UNL     1      -6.587  12.352  18.729  0.00  0.00    +0.000 A 
ATOM      9  C   UNL     1      -5.396  12.830  19.275  0.00  0.00    +0.000 A 
ATOM     10  C   UNL     1      -5.125  12.688  20.644  0.00  0.00    +0.000 A 
ATOM     11  C   UNL     1      -3.887  13.252  21.256  0.00  0.00    +0.000 C 
ATOM     12  N   UNL     1      -2.518  12.988  20.814  0.00  0.00    +0.000 N 
ATOM     13  C   UNL     1      -2.114  12.425  19.634  0.00  0.00    +0.000 C 
ATOM     14  O   UNL     1      -2.754  11.663  18.931  0.00  0.00    +0.000 OA
ATOM     15  C   UNL     1      -0.755  12.792  19.204  0.00  0.00    +0.000 A 
ATOM     16  C   UNL     1       0.181  11.775  19.017  0.00  0.00    +0.000 A 
ATOM     17  C   UNL     1       1.499  12.119  18.737  0.00  0.00    +0.000 A 
ATOM     18  C   UNL     1       1.847  13.460  18.506  0.00  0.00    +0.000 A 
ATOM     19  C   UNL     1       3.270  13.822  18.220  0.00  0.00    +0.000 C 
ATOM     20  C   UNL     1       0.874  14.466  18.615  0.00  0.00    +0.000 A 
ATOM     21  C   UNL     1      -0.381  14.146  19.122  0.00  0.00    +0.000 A 
ATOM     22  N   UNL     1      -1.077  15.184  19.789  0.00  0.00    +0.000 N 
ATOM     23  C   UNL     1      -1.589  15.089  21.078  0.00  0.00    +0.000 C 
ATOM     24  O   UNL     1      -2.043  16.099  21.623  0.00  0.00    +0.000 OA
ATOM     25  C   UNL     1      -1.617  13.682  21.763  0.00  0.00    +0.000 C 
ATOM     26  C   UNL     1      -0.192  13.125  22.007  0.00  0.00    +0.000 C 
ATOM     27  H   UNL     1      -0.915  16.142  19.495  0.00  0.00    +0.000 HD
ENDROOT
BRANCH   1  28
ATOM     28  C   UNL     1      -2.188  14.602  24.082  0.00  0.00    +0.000 C 
ATOM     29  O   UNL     1      -1.118  14.770  24.663  0.00  0.00    +0.000 OA
BRANCH  28  30
ATOM     30  O   UNL     1      -3.367  15.132  24.467  0.00  0.00    +0.000 OA
BRANCH  30  32
ATOM     31  C   UNL     1      -4.690  17.034  25.003  0.00  0.00    +0.000 C 
ATOM     32  C   UNL     1      -3.280  16.467  24.991  0.00  0.00    +0.000 C 
ENDBRANCH  30  32
ENDBRANCH  28  30
ENDBRANCH   1  28
TORSDOF 3
ENDMDL
MODEL 4
REMARK VINA RESULT:      -6.8      1.827      6.086
REMARK  Name = 
REMARK  6 active torsions:
REMARK  status: ('A' for Active; 'I' for Inactive)
REMARK    1  A    between atoms: C_1  and  C_2
REMARK    2  A    between atoms: C_2  and  O_3
REMARK    3  A    between atoms: O_3  and  C_4
REMARK    4  A    between atoms: C_4  and  C_6
REMARK    5  A    between atoms: C_23  and  C_24
REMARK    6  A    between atoms: C_30  and  C_31
REMARK                            x       y       z     vdW  Elec       q    Type
REMARK                         _______ _______ _______ _____ _____    ______ ____
ROOT
ATOM      1  C   UNL     1       0.089  11.951  20.326  0.00  0.00    +0.000 C 
ATOM      2  C   UNL     1       0.862  13.176  19.804  0.00  0.00    +0.000 C 
ATOM      3  C   UNL     1       1.973  13.144  18.791  0.00  0.00    +0.000 C 
ATOM      4  O   UNL     1       2.551  14.462  18.663  0.00  0.00    +0.000 OA
ATOM      5  C   UNL     1       1.662  15.505  18.538  0.00  0.00    +0.000 A 
ATOM      6  C   UNL     1       2.183  16.705  18.053  0.00  0.00    +0.000 A 
ATOM      7  C   UNL     1       1.334  17.780  17.776  0.00  0.00    +0.000 A 
ATOM      8  C   UNL     1      -0.037  17.645  17.964  0.00  0.00    +0.000 A 
ATOM      9  C   UNL     1      -0.552  16.457  18.484  0.00  0.00    +0.000 A 
ATOM     10  C   UNL     1       0.298  15.402  18.844  0.00  0.00    +0.000 A 
ATOM     11  C   UNL     1      -0.239  14.102  19.339  0.00  0.00    +0.000 C 
ATOM     12  N   UNL     1      -1.161  13.929  20.461  0.00  0.00    +0.000 N 
ATOM     13  C   UNL     1      -1.909  14.890  21.085  0.00  0.00    +0.000 C 
ATOM     14  O   UNL     1      -1.665  16.082  21.145  0.00  0.00    +0.000 OA
ATOM     15  C   UNL     1      -3.125  14.395  21.751  0.00  0.00    +0.000 A 
ATOM     16  C   UNL     1      -3.269  14.614  23.121  0.00  0.00    +0.000 A 
ATOM     17  C   UNL     1      -4.349  14.041  23.783  0.00  0.00    +0.000 A 
ATOM     18  C   UNL     1      -5.351  13.375  23.058  0.00  0.00    +0.000 A 
ATOM     19  C   UNL     1      -6.502  12.748  23.779  0.00  0.00    +0.000 C 
ATOM     20  C   UNL     1      -5.235  13.236  21.665  0.00  0.00    +0.000 A 
ATOM     21  C   UNL     1      -4.046  13.603  21.042  0.00  0.00    +0.000 A 
ATOM     22  N   UNL     1      -3.718  12.912  19.849  0.00  0.00    +0.000 N 
ATOM     23  C   UNL     1      -2.516  12.252  19.625  0.00  0.00    +0.000 C 
ATOM     24  O   UNL     1      -2.390  11.554  18.616  0.00  0.00    +0.000 OA
ATOM     25  C   UNL     1      -1.349  12.471  20.645  0.00  0.00    +0.000 C 
ATOM     26  C   UNL     1      -1.692  11.917  22.051  0.00  0.00    +0.000 C 
ATOM     27  H   UNL     1      -4.475  12.571  19.264  0.00  0.00    +0.000 HD
ENDROOT
BRANCH   1  28
ATOM     28  C   UNL     1       0.091  10.573  19.709  0.00  0.00    +0.000 C 
ATOM     29  O   UNL     1       0.201  10.410  18.496  0.00  0.00    +0.000 OA
BRANCH  28  30
ATOM     30  O   UNL     1      -0.377   9.648  20.573  0.00  0.00    +0.000 OA
BRANCH  30  32
ATOM     31  C   UNL     1       0.706   9.203  22.642  0.00  0.00    +0.000 C 
ATOM     32  C   UNL     1       0.636   8.823  21.173  0.00  0.00    +0.000 C 
ENDBRANCH  30  32
ENDBRANCH  28  30
ENDBRANCH   1  28
TORSDOF 3
ENDMDL
MODEL 5
REMARK VINA RESULT:      -6.7      2.040      6.177
REMARK  Name = 
REMARK  6 active torsions:
REMARK  status: ('A' for Active; 'I' for Inactive)
REMARK    1  A    between atoms: C_1  and  C_2
REMARK    2  A    between atoms: C_2  and  O_3
REMARK    3  A    between atoms: O_3  and  C_4
REMARK    4  A    between atoms: C_4  and  C_6
REMARK    5  A    between atoms: C_23  and  C_24
REMARK    6  A    between atoms: C_30  and  C_31
REMARK                            x       y       z     vdW  Elec       q    Type
REMARK                         _______ _______ _______ _____ _____    ______ ____
ROOT
ATOM      1  C   UNL     1       0.788  13.024  20.866  0.00  0.00    +0.000 C 
ATOM      2  C   UNL     1       1.318  14.262  20.120  0.00  0.00    +0.000 C 
ATOM      3  C   UNL     1       2.484  14.279  19.169  0.00  0.00    +0.000 C 
ATOM      4  O   UNL     1       2.775  15.641  18.782  0.00  0.00    +0.000 OA
ATOM      5  C   UNL     1       1.695  16.410  18.413  0.00  0.00    +0.000 A 
ATOM      6  C   UNL     1       1.983  17.575  17.700  0.00  0.00    +0.000 A 
ATOM      7  C   UNL     1       0.947  18.354  17.177  0.00  0.00    +0.000 A 
ATOM      8  C   UNL     1      -0.373  17.954  17.348  0.00  0.00    +0.000 A 
ATOM      9  C   UNL     1      -0.661  16.810  18.093  0.00  0.00    +0.000 A 
ATOM     10  C   UNL     1       0.366  16.067  18.693  0.00  0.00    +0.000 A 
ATOM     11  C   UNL     1       0.083  14.805  19.437  0.00  0.00    +0.000 C 
ATOM     12  N   UNL     1      -0.862  14.657  20.542  0.00  0.00    +0.000 N 
ATOM     13  C   UNL     1      -1.844  15.530  20.925  0.00  0.00    +0.000 C 
ATOM     14  O   UNL     1      -1.866  16.734  20.739  0.00  0.00    +0.000 OA
ATOM     15  C   UNL     1      -2.973  14.918  21.645  0.00  0.00    +0.000 A 
ATOM     16  C   UNL     1      -3.264  15.368  22.933  0.00  0.00    +0.000 A 
ATOM     17  C   UNL     1      -4.243  14.711  23.669  0.00  0.00    +0.000 A 
ATOM     18  C   UNL     1      -5.022  13.706  23.073  0.00  0.00    +0.000 A 
ATOM     19  C   UNL     1      -6.064  12.993  23.876  0.00  0.00    +0.000 C 
ATOM     20  C   UNL     1      -4.774  13.321  21.745  0.00  0.00    +0.000 A 
ATOM     21  C   UNL     1      -3.647  13.813  21.094  0.00  0.00    +0.000 A 
ATOM     22  N   UNL     1      -3.090  12.990  20.085  0.00  0.00    +0.000 N 
ATOM     23  C   UNL     1      -1.761  12.586  20.041  0.00  0.00    +0.000 C 
ATOM     24  O   UNL     1      -1.412  11.746  19.206  0.00  0.00    +0.000 OA
ATOM     25  C   UNL     1      -0.748  13.261  21.025  0.00  0.00    +0.000 C 
ATOM     26  C   UNL     1      -1.070  12.938  22.506  0.00  0.00    +0.000 C 
ATOM     27  H   UNL     1      -3.710  12.378  19.563  0.00  0.00    +0.000 HD
ENDROOT
BRANCH   1  28
ATOM     28  C   UNL     1       1.130  11.588  20.555  0.00  0.00    +0.000 C 
ATOM     29  O   UNL     1       1.160  11.167  19.401  0.00  0.00    +0.000 OA
BRANCH  28  30
ATOM     30  O   UNL     1       1.046  10.813  21.657  0.00  0.00    +0.000 OA
BRANCH  30  32
ATOM     31  C   UNL     1      -0.421   9.288  22.738  0.00  0.00    +0.000 C 
ATOM     32  C   UNL     1       0.354   9.569  21.463  0.00  0.00    +0.000 C 
ENDBRANCH  30  32
ENDBRANCH  28  30
ENDBRANCH   1  28
TORSDOF 3
ENDMDL
MODEL 6
REMARK VINA RESULT:      -6.7      2.900      5.150
REMARK  Name = 
REMARK  6 active torsions:
REMARK  status: ('A' for Active; 'I' for Inactive)
REMARK    1  A    between atoms: C_1  and  C_2
REMARK    2  A    between atoms: C_2  and  O_3
REMARK    3  A    between atoms: O_3  and  C_4
REMARK    4  A    between atoms: C_4  and  C_6
REMARK    5  A    between atoms: C_23  and  C_24
REMARK    6  A    between atoms: C_30  and  C_31
REMARK                            x       y       z     vdW  Elec       q    Type
REMARK                         _______ _______ _______ _____ _____    ______ ____
ROOT
ATOM      1  C   UNL     1      -2.541  13.453  22.965  0.00  0.00    +0.000 C 
ATOM      2  C   UNL     1      -3.855  12.797  22.501  0.00  0.00    +0.000 C 
ATOM      3  C   UNL     1      -5.198  12.966  23.158  0.00  0.00    +0.000 C 
ATOM      4  O   UNL     1      -6.158  12.084  22.533  0.00  0.00    +0.000 OA
ATOM      5  C   UNL     1      -6.165  12.074  21.157  0.00  0.00    +0.000 A 
ATOM      6  C   UNL     1      -7.299  11.532  20.550  0.00  0.00    +0.000 A 
ATOM      7  C   UNL     1      -7.452  11.591  19.163  0.00  0.00    +0.000 A 
ATOM      8  C   UNL     1      -6.480  12.214  18.386  0.00  0.00    +0.000 A 
ATOM      9  C   UNL     1      -5.331  12.722  18.990  0.00  0.00    +0.000 A 
ATOM     10  C   UNL     1      -5.128  12.594  20.372  0.00  0.00    +0.000 A 
ATOM     11  C   UNL     1      -3.937  13.190  21.044  0.00  0.00    +0.000 C 
ATOM     12  N   UNL     1      -2.541  12.958  20.675  0.00  0.00    +0.000 N 
ATOM     13  C   UNL     1      -2.063  12.398  19.520  0.00  0.00    +0.000 C 
ATOM     14  O   UNL     1      -2.647  11.618  18.789  0.00  0.00    +0.000 OA
ATOM     15  C   UNL     1      -0.692  12.797  19.159  0.00  0.00    +0.000 A 
ATOM     16  C   UNL     1       0.276  11.802  19.026  0.00  0.00    +0.000 A 
ATOM     17  C   UNL     1       1.598  12.175  18.812  0.00  0.00    +0.000 A 
ATOM     18  C   UNL     1       1.926  13.523  18.592  0.00  0.00    +0.000 A 
ATOM     19  C   UNL     1       3.353  13.919  18.378  0.00  0.00    +0.000 C 
ATOM     20  C   UNL     1       0.924  14.507  18.644  0.00  0.00    +0.000 A 
ATOM     21  C   UNL     1      -0.348  14.159  19.088  0.00  0.00    +0.000 A 
ATOM     22  N   UNL     1      -1.101  15.183  19.713  0.00  0.00    +0.000 N 
ATOM     23  C   UNL     1      -1.677  15.081  20.973  0.00  0.00    +0.000 C 
ATOM     24  O   UNL     1      -2.183  16.082  21.488  0.00  0.00    +0.000 OA
ATOM     25  C   UNL     1      -1.707  13.677  21.664  0.00  0.00    +0.000 C 
ATOM     26  C   UNL     1      -0.283  13.156  21.985  0.00  0.00    +0.000 C 
ATOM     27  H   UNL     1      -0.947  16.143  19.421  0.00  0.00    +0.000 HD
ENDROOT
BRANCH   1  28
ATOM     28  C   UNL     1      -2.419  14.594  23.945  0.00  0.00    +0.000 C 
ATOM     29  O   UNL     1      -3.276  15.471  24.025  0.00  0.00    +0.000 OA
BRANCH  28  30
ATOM     30  O   UNL     1      -1.160  14.699  24.421  0.00  0.00    +0.000 OA
BRANCH  30  32
ATOM     31  C   UNL     1      -0.755  15.930  26.414  0.00  0.00    +0.000 C 
ATOM     32  C   UNL     1      -0.808  16.008  24.898  0.00  0.00    +0.000 C 
ENDBRANCH  30  32
ENDBRANCH  28  30
ENDBRANCH   1  28
TORSDOF 3
ENDMDL
MODEL 7
REMARK VINA RESULT:      -6.6      2.907      6.076
REMARK  Name = 
REMARK  6 active torsions:
REMARK  status: ('A' for Active; 'I' for Inactive)
REMARK    1  A    between atoms: C_1  and  C_2
REMARK    2  A    between atoms: C_2  and  O_3
REMARK    3  A    between atoms: O_3  and  C_4
REMARK    4  A    between atoms: C_4  and  C_6
REMARK    5  A    between atoms: C_23  and  C_24
REMARK    6  A    between atoms: C_30  and  C_31
REMARK                            x       y       z     vdW  Elec       q    Type
REMARK                         _______ _______ _______ _____ _____    ______ ____
ROOT
ATOM      1  C   UNL     1      -0.760  12.373  20.324  0.00  0.00    +0.000 C 
ATOM      2  C   UNL     1      -1.923  12.227  19.325  0.00  0.00    +0.000 C 
ATOM      3  C   UNL     1      -2.084  11.114  18.325  0.00  0.00    +0.000 C 
ATOM      4  O   UNL     1      -3.212  11.394  17.466  0.00  0.00    +0.000 OA
ATOM      5  C   UNL     1      -4.366  11.802  18.093  0.00  0.00    +0.000 A 
ATOM      6  C   UNL     1      -5.539  11.720  17.342  0.00  0.00    +0.000 A 
ATOM      7  C   UNL     1      -6.775  11.994  17.933  0.00  0.00    +0.000 A 
ATOM      8  C   UNL     1      -6.837  12.328  19.282  0.00  0.00    +0.000 A 
ATOM      9  C   UNL     1      -5.661  12.447  20.022  0.00  0.00    +0.000 A 
ATOM     10  C   UNL     1      -4.410  12.256  19.419  0.00  0.00    +0.000 A 
ATOM     11  C   UNL     1      -3.146  12.313  20.208  0.00  0.00    +0.000 C 
ATOM     12  N   UNL     1      -2.722  13.420  21.064  0.00  0.00    +0.000 N 
ATOM     13  C   UNL     1      -3.482  14.463  21.522  0.00  0.00    +0.000 C 
ATOM     14  O   UNL     1      -4.484  14.920  21.003  0.00  0.00    +0.000 OA
ATOM     15  C   UNL     1      -3.003  15.079  22.770  0.00  0.00    +0.000 A 
ATOM     16  C   UNL     1      -2.687  16.437  22.763  0.00  0.00    +0.000 A 
ATOM     17  C   UNL     1      -2.114  17.000  23.898  0.00  0.00    +0.000 A 
ATOM     18  C   UNL     1      -1.989  16.245  25.076  0.00  0.00    +0.000 A 
ATOM     19  C   UNL     1      -1.357  16.854  26.288  0.00  0.00    +0.000 C 
ATOM     20  C   UNL     1      -2.391  14.900  25.093  0.00  0.00    +0.000 A 
ATOM     21  C   UNL     1      -2.743  14.280  23.898  0.00  0.00    +0.000 A 
ATOM     22  N   UNL     1      -2.529  12.881  23.825  0.00  0.00    +0.000 N 
ATOM     23  C   UNL     1      -1.798  12.246  22.829  0.00  0.00    +0.000 C 
ATOM     24  O   UNL     1      -1.544  11.043  22.940  0.00  0.00    +0.000 OA
ATOM     25  C   UNL     1      -1.374  13.080  21.574  0.00  0.00    +0.000 C 
ATOM     26  C   UNL     1      -0.386  14.218  21.938  0.00  0.00    +0.000 C 
ATOM     27  H   UNL     1      -2.596  12.337  24.680  0.00  0.00    +0.000 HD
ENDROOT
BRANCH   1  28
ATOM     28  C   UNL     1       0.236  11.299  20.687  0.00  0.00    +0.000 C 
ATOM     29  O   UNL     1       1.320  11.571  21.199  0.00  0.00    +0.000 OA
BRANCH  28  30
ATOM     30  O   UNL     1      -0.060  10.130  20.081  0.00  0.00    +0.000 OA
BRANCH  30  32
ATOM     31  C   UNL     1       1.294   9.605  18.200  0.00  0.00    +0.000 C 
ATOM     32  C   UNL     1       1.083   9.356  19.683  0.00  0.00    +0.000 C 
ENDBRANCH  30  32
ENDBRANCH  28  30
ENDBRANCH   1  28
TORSDOF 3
ENDMDL
MODEL 8
REMARK VINA RESULT:      -6.5      2.937      7.036
REMARK  Name = 
REMARK  6 active torsions:
REMARK  status: ('A' for Active; 'I' for Inactive)
REMARK    1  A    between atoms: C_1  and  C_2
REMARK    2  A    between atoms: C_2  and  O_3
REMARK    3  A    between atoms: O_3  and  C_4
REMARK    4  A    between atoms: C_4  and  C_6
REMARK    5  A    between atoms: C_23  and  C_24
REMARK    6  A    between atoms: C_30  and  C_31
REMARK                            x       y       z     vdW  Elec       q    Type
REMARK                         _______ _______ _______ _____ _____    ______ ____
ROOT
ATOM      1  C   UNL     1      -4.448  13.971  22.509  0.00  0.00    +0.000 C 
ATOM      2  C   UNL     1      -4.061  15.239  23.292  0.00  0.00    +0.000 C 
ATOM      3  C   UNL     1      -4.973  16.020  24.199  0.00  0.00    +0.000 C 
ATOM      4  O   UNL     1      -4.304  17.225  24.637  0.00  0.00    +0.000 OA
ATOM      5  C   UNL     1      -3.011  17.073  25.082  0.00  0.00    +0.000 A 
ATOM      6  C   UNL     1      -2.491  18.125  25.837  0.00  0.00    +0.000 A 
ATOM      7  C   UNL     1      -1.233  18.008  26.434  0.00  0.00    +0.000 A 
ATOM      8  C   UNL     1      -0.508  16.830  26.293  0.00  0.00    +0.000 A 
ATOM      9  C   UNL     1      -1.013  15.794  25.508  0.00  0.00    +0.000 A 
ATOM     10  C   UNL     1      -2.235  15.932  24.835  0.00  0.00    +0.000 A 
ATOM     11  C   UNL     1      -2.822  14.811  24.045  0.00  0.00    +0.000 C 
ATOM     12  N   UNL     1      -2.153  14.081  22.970  0.00  0.00    +0.000 N 
ATOM     13  C   UNL     1      -0.818  14.079  22.665  0.00  0.00    +0.000 C 
ATOM     14  O   UNL     1      -0.012  14.959  22.907  0.00  0.00    +0.000 OA
ATOM     15  C   UNL     1      -0.345  12.876  21.959  0.00  0.00    +0.000 A 
ATOM     16  C   UNL     1       0.247  13.030  20.706  0.00  0.00    +0.000 A 
ATOM     17  C   UNL     1       0.581  11.894  19.977  0.00  0.00    +0.000 A 
ATOM     18  C   UNL     1       0.455  10.620  20.555  0.00  0.00    +0.000 A 
ATOM     19  C   UNL     1       0.802   9.402  19.758  0.00  0.00    +0.000 C 
ATOM     20  C   UNL     1      -0.064  10.486  21.853  0.00  0.00    +0.000 A 
ATOM     21  C   UNL     1      -0.612  11.599  22.484  0.00  0.00    +0.000 A 
ATOM     22  N   UNL     1      -1.634  11.348  23.432  0.00  0.00    +0.000 N 
ATOM     23  C   UNL     1      -2.894  11.934  23.407  0.00  0.00    +0.000 C 
ATOM     24  O   UNL     1      -3.761  11.534  24.188  0.00  0.00    +0.000 OA
ATOM     25  C   UNL     1      -3.139  13.123  22.419  0.00  0.00    +0.000 C 
ATOM     26  C   UNL     1      -3.028  12.682  20.938  0.00  0.00    +0.000 C 
ATOM     27  H   UNL     1      -1.612  10.473  23.947  0.00  0.00    +0.000 HD
ENDROOT
BRANCH   1  28
ATOM     28  C   UNL     1      -5.678  13.128  22.740  0.00  0.00    +0.000 C 
ATOM     29  O   UNL     1      -6.233  13.082  23.836  0.00  0.00    +0.000 OA
BRANCH  28  30
ATOM     30  O   UNL     1      -5.846  12.224  21.752  0.00  0.00    +0.000 OA
BRANCH  30  32
ATOM     31  C   UNL     1      -7.560  10.907  20.762  0.00  0.00    +0.000 C 
ATOM     32  C   UNL     1      -7.100  12.324  21.057  0.00  0.00    +0.000 C 
ENDBRANCH  30  32
ENDBRANCH  28  30
ENDBRANCH   1  28
TORSDOF 3
ENDMDL
MODEL 9
REMARK VINA RESULT:      -6.5      2.800      6.825
REMARK  Name = 
REMARK  6 active torsions:
REMARK  status: ('A' for Active; 'I' for Inactive)
REMARK    1  A    between atoms: C_1  and  C_2
REMARK    2  A    between atoms: C_2  and  O_3
REMARK    3  A    between atoms: O_3  and  C_4
REMARK    4  A    between atoms: C_4  and  C_6
REMARK    5  A    between atoms: C_23  and  C_24
REMARK    6  A    between atoms: C_30  and  C_31
REMARK                            x       y       z     vdW  Elec       q    Type
REMARK                         _______ _______ _______ _____ _____    ______ ____
ROOT
ATOM      1  C   UNL     1      -4.201  14.035  22.314  0.00  0.00    +0.000 C 
ATOM      2  C   UNL     1      -3.812  15.274  23.143  0.00  0.00    +0.000 C 
ATOM      3  C   UNL     1      -4.730  16.039  24.057  0.00  0.00    +0.000 C 
ATOM      4  O   UNL     1      -4.053  17.220  24.544  0.00  0.00    +0.000 OA
ATOM      5  C   UNL     1      -2.771  17.037  25.006  0.00  0.00    +0.000 A 
ATOM      6  C   UNL     1      -2.250  18.059  25.802  0.00  0.00    +0.000 A 
ATOM      7  C   UNL     1      -1.005  17.907  26.417  0.00  0.00    +0.000 A 
ATOM      8  C   UNL     1      -0.292  16.724  26.253  0.00  0.00    +0.000 A 
ATOM      9  C   UNL     1      -0.796  15.719  25.427  0.00  0.00    +0.000 A 
ATOM     10  C   UNL     1      -2.005  15.895  24.738  0.00  0.00    +0.000 A 
ATOM     11  C   UNL     1      -2.592  14.807  23.904  0.00  0.00    +0.000 C 
ATOM     12  N   UNL     1      -1.913  14.100  22.819  0.00  0.00    +0.000 N 
ATOM     13  C   UNL     1      -0.573  14.090  22.536  0.00  0.00    +0.000 C 
ATOM     14  O   UNL     1       0.240  14.951  22.820  0.00  0.00    +0.000 OA
ATOM     15  C   UNL     1      -0.103  12.903  21.803  0.00  0.00    +0.000 A 
ATOM     16  C   UNL     1       0.513  13.088  20.565  0.00  0.00    +0.000 A 
ATOM     17  C   UNL     1       0.846  11.970  19.807  0.00  0.00    +0.000 A 
ATOM     18  C   UNL     1       0.693  10.681  20.343  0.00  0.00    +0.000 A 
ATOM     19  C   UNL     1       1.038   9.483  19.515  0.00  0.00    +0.000 C 
ATOM     20  C   UNL     1       0.149  10.514  21.627  0.00  0.00    +0.000 A 
ATOM     21  C   UNL     1      -0.395  11.614  22.283  0.00  0.00    +0.000 A 
ATOM     22  N   UNL     1      -1.438  11.348  23.205  0.00  0.00    +0.000 N 
ATOM     23  C   UNL     1      -2.689  11.952  23.176  0.00  0.00    +0.000 C 
ATOM     24  O   UNL     1      -3.576  11.540  23.929  0.00  0.00    +0.000 OA
ATOM     25  C   UNL     1      -2.901  13.173  22.221  0.00  0.00    +0.000 C 
ATOM     26  C   UNL     1      -2.770  12.776  20.729  0.00  0.00    +0.000 C 
ATOM     27  H   UNL     1      -1.436  10.458  23.693  0.00  0.00    +0.000 HD
ENDROOT
BRANCH   1  28
ATOM     28  C   UNL     1      -5.445  13.202  22.497  0.00  0.00    +0.000 C 
ATOM     29  O   UNL     1      -6.153  12.881  21.545  0.00  0.00    +0.000 OA
BRANCH  28  30
ATOM     30  O   UNL     1      -5.833  13.176  23.790  0.00  0.00    +0.000 OA
BRANCH  30  32
ATOM     31  C   UNL     1      -7.915  14.193  24.318  0.00  0.00    +0.000 C 
ATOM     32  C   UNL     1      -7.224  12.880  23.992  0.00  0.00    +0.000 C 
ENDBRANCH  30  32
ENDBRANCH  28  30
ENDBRANCH   1  28
TORSDOF 3
ENDMDL
