MODEL 1
REMARK VINA RESULT:      -7.7      0.000      0.000
REMARK  Name = 
REMARK  10 active torsions:
REMARK  status: ('A' for Active; 'I' for Inactive)
REMARK    1  A    between atoms: C_2  and  C_4
REMARK    2  A    between atoms: C_4  and  C_5
REMARK    3  A    between atoms: C_5  and  C_6
REMARK    4  A    between atoms: C_6  and  C_7
REMARK    5  A    between atoms: C_8  and  C_9
REMARK    6  A    between atoms: C_9  and  C_10
REMARK    7  A    between atoms: C_11  and  N_12
REMARK    8  A    between atoms: N_12  and  S_13
REMARK    9  A    between atoms: S_13  and  C_16
REMARK   10  A    between atoms: C_19  and  N_20
REMARK                            x       y       z     vdW  Elec       q    Type
REMARK                         _______ _______ _______ _____ _____    ______ ____
ROOT
ATOM      1  C   UNL     1       5.220   4.574  17.450  0.00  0.00    +0.000 C 
ATOM      2  C   UNL     1       4.856   5.922  16.787  0.00  0.00    +0.000 C 
ATOM      3  C   UNL     1       6.248   6.478  16.357  0.00  0.00    +0.000 C 
ATOM      4  C   UNL     1       7.101   6.914  17.562  0.00  0.00    +0.000 C 
ATOM      5  C   UNL     1       7.350   5.590  18.294  0.00  0.00    +0.000 C 
ATOM      6  C   UNL     1       6.764   4.542  17.324  0.00  0.00    +0.000 C 
ATOM      7  C   UNL     1       6.995   5.199  15.964  0.00  0.00    +0.000 C 
ENDROOT
BRANCH   2   8
ATOM      8  N   UNL     1       4.160   6.874  17.661  0.00  0.00    +0.000 NA
ATOM      9  H   UNL     1       4.724   7.577  18.129  0.00  0.00    +0.000 HD
BRANCH   8  10
ATOM     10  S   UNL     1       2.870   6.399  18.658  0.00  0.00    +0.000 S 
ATOM     11  O   UNL     1       1.923   5.707  17.809  0.00  0.00    +0.000 OA
ATOM     12  O   UNL     1       3.407   5.811  19.858  0.00  0.00    +0.000 OA
BRANCH  10  13
ATOM     13  C   UNL     1       2.100   7.963  19.061  0.00  0.00    +0.000 A 
ATOM     14  C   UNL     1       1.554   8.166  20.329  0.00  0.00    +0.000 A 
ATOM     15  C   UNL     1       0.878   9.359  20.610  0.00  0.00    +0.000 A 
ATOM     16  C   UNL     1       0.754  10.339  19.610  0.00  0.00    +0.000 A 
ATOM     17  C   UNL     1       1.328  10.145  18.350  0.00  0.00    +0.000 A 
ATOM     18  C   UNL     1       2.032   8.966  18.092  0.00  0.00    +0.000 A 
BRANCH  16  19
ATOM     19  N   UNL     1       0.016  11.584  19.894  0.00  0.00    +0.000 N 
ATOM     20  O   UNL     1      -0.822  11.954  19.064  0.00  0.00    +0.000 OA
ATOM     21  O   UNL     1       0.285  12.176  20.947  0.00  0.00    +0.000 OA
ENDBRANCH  16  19
ENDBRANCH  10  13
ENDBRANCH   8  10
ENDBRANCH   2   8
BRANCH   1  22
ATOM     22  C   UNL     1       4.522   3.407  16.726  0.00  0.00    +0.000 C 
BRANCH  22  24
ATOM     23  C   UNL     1       3.159   1.877  18.221  0.00  0.00    +0.000 C 
ATOM     24  C   UNL     1       4.314   2.227  17.634  0.00  0.00    +0.000 C 
BRANCH  23  25
ATOM     25  C   UNL     1       1.836   2.581  18.088  0.00  0.00    +0.000 C 
BRANCH  25  26
ATOM     26  C   UNL     1       0.888   2.309  19.253  0.00  0.00    +0.000 C 
BRANCH  26  27
ATOM     27  C   UNL     1       1.091   3.294  20.385  0.00  0.00    +0.000 C 
BRANCH  27  29
ATOM     28  O   UNL     1       1.090   2.377  22.610  0.00  0.00    +0.000 OA
ATOM     29  C   UNL     1       1.760   2.755  21.622  0.00  0.00    +0.000 C 
ATOM     30  O   UNL     1       3.033   2.711  21.567  0.00  0.00    +0.000 OA
ENDBRANCH  27  29
ENDBRANCH  26  27
ENDBRANCH  25  26
ENDBRANCH  23  25
ENDBRANCH  22  24
ENDBRANCH   1  22
TORSDOF 10
ENDMDL
MODEL 2
REMARK VINA RESULT:      -7.6      3.685      6.626
REMARK  Name = 
REMARK  10 active torsions:
REMARK  status: ('A' for Active; 'I' for Inactive)
REMARK    1  A    between atoms: C_2  and  C_4
REMARK    2  A    between atoms: C_4  and  C_5
REMARK    3  A    between atoms: C_5  and  C_6
REMARK    4  A    between atoms: C_6  and  C_7
REMARK    5  A    between atoms: C_8  and  C_9
REMARK    6  A    between atoms: C_9  and  C_10
REMARK    7  A    between atoms: C_11  and  N_12
REMARK    8  A    between atoms: N_12  and  S_13
REMARK    9  A    between atoms: S_13  and  C_16
REMARK   10  A    between atoms: C_19  and  N_20
REMARK                            x       y       z     vdW  Elec       q    Type
REMARK                         _______ _______ _______ _____ _____    ______ ____
ROOT
ATOM      1  C   UNL     1       6.720   6.650  16.993  0.00  0.00    +0.000 C 
ATOM      2  C   UNL     1       5.670   5.982  17.910  0.00  0.00    +0.000 C 
ATOM      3  C   UNL     1       5.885   4.464  17.627  0.00  0.00    +0.000 C 
ATOM      4  C   UNL     1       5.411   4.058  16.219  0.00  0.00    +0.000 C 
ATOM      5  C   UNL     1       6.372   4.829  15.306  0.00  0.00    +0.000 C 
ATOM      6  C   UNL     1       7.385   5.434  16.301  0.00  0.00    +0.000 C 
ATOM      7  C   UNL     1       7.402   4.391  17.416  0.00  0.00    +0.000 C 
ENDROOT
BRANCH   2   8
ATOM      8  N   UNL     1       4.279   6.370  17.645  0.00  0.00    +0.000 NA
ATOM      9  H   UNL     1       4.117   7.295  17.258  0.00  0.00    +0.000 HD
BRANCH   8  10
ATOM     10  S   UNL     1       3.014   5.944  18.694  0.00  0.00    +0.000 S 
ATOM     11  O   UNL     1       2.067   5.176  17.913  0.00  0.00    +0.000 OA
ATOM     12  O   UNL     1       3.580   5.454  19.924  0.00  0.00    +0.000 OA
BRANCH  10  13
ATOM     13  C   UNL     1       2.220   7.519  18.997  0.00  0.00    +0.000 A 
ATOM     14  C   UNL     1       1.724   7.818  20.267  0.00  0.00    +0.000 A 
ATOM     15  C   UNL     1       1.028   9.015  20.475  0.00  0.00    +0.000 A 
ATOM     16  C   UNL     1       0.835   9.902  19.402  0.00  0.00    +0.000 A 
ATOM     17  C   UNL     1       1.360   9.614  18.139  0.00  0.00    +0.000 A 
ATOM     18  C   UNL     1       2.083   8.434  17.951  0.00  0.00    +0.000 A 
BRANCH  16  19
ATOM     19  N   UNL     1       0.077  11.149  19.611  0.00  0.00    +0.000 N 
ATOM     20  O   UNL     1       0.188  12.037  18.760  0.00  0.00    +0.000 OA
ATOM     21  O   UNL     1      -0.624  11.224  20.630  0.00  0.00    +0.000 OA
ENDBRANCH  16  19
ENDBRANCH  10  13
ENDBRANCH   8  10
ENDBRANCH   2   8
BRANCH   1  22
ATOM     22  C   UNL     1       7.703   7.498  17.821  0.00  0.00    +0.000 C 
BRANCH  22  24
ATOM     23  C   UNL     1       8.265   9.955  18.102  0.00  0.00    +0.000 C 
ATOM     24  C   UNL     1       7.583   8.963  17.509  0.00  0.00    +0.000 C 
BRANCH  23  25
ATOM     25  C   UNL     1       9.293   9.810  19.191  0.00  0.00    +0.000 C 
BRANCH  25  26
ATOM     26  C   UNL     1       9.880  11.143  19.647  0.00  0.00    +0.000 C 
BRANCH  26  27
ATOM     27  C   UNL     1       9.719  12.219  18.593  0.00  0.00    +0.000 C 
BRANCH  27  29
ATOM     28  O   UNL     1      11.057  13.659  17.205  0.00  0.00    +0.000 OA
ATOM     29  C   UNL     1      10.956  12.566  17.806  0.00  0.00    +0.000 C 
ATOM     30  O   UNL     1      11.867  11.673  17.819  0.00  0.00    +0.000 OA
ENDBRANCH  27  29
ENDBRANCH  26  27
ENDBRANCH  25  26
ENDBRANCH  23  25
ENDBRANCH  22  24
ENDBRANCH   1  22
TORSDOF 10
ENDMDL
MODEL 3
REMARK VINA RESULT:      -7.6      1.932      4.965
REMARK  Name = 
REMARK  10 active torsions:
REMARK  status: ('A' for Active; 'I' for Inactive)
REMARK    1  A    between atoms: C_2  and  C_4
REMARK    2  A    between atoms: C_4  and  C_5
REMARK    3  A    between atoms: C_5  and  C_6
REMARK    4  A    between atoms: C_6  and  C_7
REMARK    5  A    between atoms: C_8  and  C_9
REMARK    6  A    between atoms: C_9  and  C_10
REMARK    7  A    between atoms: C_11  and  N_12
REMARK    8  A    between atoms: N_12  and  S_13
REMARK    9  A    between atoms: S_13  and  C_16
REMARK   10  A    between atoms: C_19  and  N_20
REMARK                            x       y       z     vdW  Elec       q    Type
REMARK                         _______ _______ _______ _____ _____    ______ ____
ROOT
ATOM      1  C   UNL     1       2.979   3.693  18.417  0.00  0.00    +0.000 C 
ATOM      2  C   UNL     1       3.534   4.401  19.674  0.00  0.00    +0.000 C 
ATOM      3  C   UNL     1       2.792   3.671  20.834  0.00  0.00    +0.000 C 
ATOM      4  C   UNL     1       1.293   4.022  20.882  0.00  0.00    +0.000 C 
ATOM      5  C   UNL     1       0.768   3.433  19.568  0.00  0.00    +0.000 C 
ATOM      6  C   UNL     1       1.989   2.665  19.020  0.00  0.00    +0.000 C 
ATOM      7  C   UNL     1       2.701   2.236  20.302  0.00  0.00    +0.000 C 
ENDROOT
BRANCH   2   8
ATOM      8  N   UNL     1       3.291   5.848  19.728  0.00  0.00    +0.000 NA
ATOM      9  H   UNL     1       2.850   6.217  20.564  0.00  0.00    +0.000 HD
BRANCH   8  10
ATOM     10  S   UNL     1       2.785   6.723  18.363  0.00  0.00    +0.000 S 
ATOM     11  O   UNL     1       3.975   7.305  17.778  0.00  0.00    +0.000 OA
ATOM     12  O   UNL     1       1.870   5.909  17.607  0.00  0.00    +0.000 OA
BRANCH  10  13
ATOM     13  C   UNL     1       1.892   8.091  19.094  0.00  0.00    +0.000 A 
ATOM     14  C   UNL     1       1.523   9.183  18.307  0.00  0.00    +0.000 A 
ATOM     15  C   UNL     1       0.901  10.288  18.902  0.00  0.00    +0.000 A 
ATOM     16  C   UNL     1       0.656  10.284  20.286  0.00  0.00    +0.000 A 
ATOM     17  C   UNL     1       0.999   9.176  21.066  0.00  0.00    +0.000 A 
ATOM     18  C   UNL     1       1.587   8.065  20.456  0.00  0.00    +0.000 A 
BRANCH  16  19
ATOM     19  N   UNL     1       0.029  11.459  20.920  0.00  0.00    +0.000 N 
ATOM     20  O   UNL     1       0.716  12.121  21.705  0.00  0.00    +0.000 OA
ATOM     21  O   UNL     1      -1.148  11.704  20.623  0.00  0.00    +0.000 OA
ENDBRANCH  16  19
ENDBRANCH  10  13
ENDBRANCH   8  10
ENDBRANCH   2   8
BRANCH   1  22
ATOM     22  C   UNL     1       4.121   3.045  17.611  0.00  0.00    +0.000 C 
BRANCH  22  24
ATOM     23  C   UNL     1       5.875   4.629  16.693  0.00  0.00    +0.000 C 
ATOM     24  C   UNL     1       4.699   3.991  16.596  0.00  0.00    +0.000 C 
BRANCH  23  25
ATOM     25  C   UNL     1       6.861   4.527  17.824  0.00  0.00    +0.000 C 
BRANCH  25  26
ATOM     26  C   UNL     1       6.821   5.725  18.770  0.00  0.00    +0.000 C 
BRANCH  26  27
ATOM     27  C   UNL     1       8.056   6.590  18.634  0.00  0.00    +0.000 C 
BRANCH  27  29
ATOM     28  O   UNL     1       8.379   8.950  18.289  0.00  0.00    +0.000 OA
ATOM     29  C   UNL     1       7.883   7.879  17.872  0.00  0.00    +0.000 C 
ATOM     30  O   UNL     1       7.213   7.776  16.792  0.00  0.00    +0.000 OA
ENDBRANCH  27  29
ENDBRANCH  26  27
ENDBRANCH  25  26
ENDBRANCH  23  25
ENDBRANCH  22  24
ENDBRANCH   1  22
TORSDOF 10
ENDMDL
MODEL 4
REMARK VINA RESULT:      -7.5      1.582      1.913
REMARK  Name = 
REMARK  10 active torsions:
REMARK  status: ('A' for Active; 'I' for Inactive)
REMARK    1  A    between atoms: C_2  and  C_4
REMARK    2  A    between atoms: C_4  and  C_5
REMARK    3  A    between atoms: C_5  and  C_6
REMARK    4  A    between atoms: C_6  and  C_7
REMARK    5  A    between atoms: C_8  and  C_9
REMARK    6  A    between atoms: C_9  and  C_10
REMARK    7  A    between atoms: C_11  and  N_12
REMARK    8  A    between atoms: N_12  and  S_13
REMARK    9  A    between atoms: S_13  and  C_16
REMARK   10  A    between atoms: C_19  and  N_20
REMARK                            x       y       z     vdW  Elec       q    Type
REMARK                         _______ _______ _______ _____ _____    ______ ____
ROOT
ATOM      1  C   UNL     1       5.182   4.962  18.708  0.00  0.00    +0.000 C 
ATOM      2  C   UNL     1       4.400   5.899  17.758  0.00  0.00    +0.000 C 
ATOM      3  C   UNL     1       5.478   6.291  16.702  0.00  0.00    +0.000 C 
ATOM      4  C   UNL     1       6.556   7.224  17.286  0.00  0.00    +0.000 C 
ATOM      5  C   UNL     1       7.245   6.332  18.325  0.00  0.00    +0.000 C 
ATOM      6  C   UNL     1       6.598   4.952  18.081  0.00  0.00    +0.000 C 
ATOM      7  C   UNL     1       6.295   5.000  16.585  0.00  0.00    +0.000 C 
ENDROOT
BRANCH   2   8
ATOM      8  N   UNL     1       3.833   7.094  18.395  0.00  0.00    +0.000 NA
ATOM      9  H   UNL     1       3.899   7.161  19.406  0.00  0.00    +0.000 HD
BRANCH   8  10
ATOM     10  S   UNL     1       2.384   7.795  17.854  0.00  0.00    +0.000 S 
ATOM     11  O   UNL     1       2.753   8.923  17.025  0.00  0.00    +0.000 OA
ATOM     12  O   UNL     1       1.509   6.749  17.393  0.00  0.00    +0.000 OA
BRANCH  10  13
ATOM     13  C   UNL     1       1.717   8.504  19.356  0.00  0.00    +0.000 A 
ATOM     14  C   UNL     1       1.766   7.781  20.550  0.00  0.00    +0.000 A 
ATOM     15  C   UNL     1       1.166   8.305  21.702  0.00  0.00    +0.000 A 
ATOM     16  C   UNL     1       0.520   9.552  21.642  0.00  0.00    +0.000 A 
ATOM     17  C   UNL     1       0.499  10.286  20.453  0.00  0.00    +0.000 A 
ATOM     18  C   UNL     1       1.132   9.771  19.319  0.00  0.00    +0.000 A 
BRANCH  16  19
ATOM     19  N   UNL     1      -0.140  10.091  22.846  0.00  0.00    +0.000 N 
ATOM     20  O   UNL     1      -1.051  10.909  22.682  0.00  0.00    +0.000 OA
ATOM     21  O   UNL     1       0.266   9.688  23.945  0.00  0.00    +0.000 OA
ENDBRANCH  16  19
ENDBRANCH  10  13
ENDBRANCH   8  10
ENDBRANCH   2   8
BRANCH   1  22
ATOM     22  C   UNL     1       4.524   3.570  18.760  0.00  0.00    +0.000 C 
BRANCH  22  24
ATOM     23  C   UNL     1       2.499   3.235  17.271  0.00  0.00    +0.000 C 
ATOM     24  C   UNL     1       3.825   3.231  17.473  0.00  0.00    +0.000 C 
BRANCH  23  25
ATOM     25  C   UNL     1       1.439   3.586  18.280  0.00  0.00    +0.000 C 
BRANCH  25  26
ATOM     26  C   UNL     1       1.132   2.450  19.252  0.00  0.00    +0.000 C 
BRANCH  26  27
ATOM     27  C   UNL     1       0.889   2.962  20.657  0.00  0.00    +0.000 C 
BRANCH  27  29
ATOM     28  O   UNL     1       2.793   2.427  22.028  0.00  0.00    +0.000 OA
ATOM     29  C   UNL     1       2.116   3.312  21.457  0.00  0.00    +0.000 C 
ATOM     30  O   UNL     1       2.398   4.556  21.489  0.00  0.00    +0.000 OA
ENDBRANCH  27  29
ENDBRANCH  26  27
ENDBRANCH  25  26
ENDBRANCH  23  25
ENDBRANCH  22  24
ENDBRANCH   1  22
TORSDOF 10
ENDMDL
MODEL 5
REMARK VINA RESULT:      -7.5      3.240      6.164
REMARK  Name = 
REMARK  10 active torsions:
REMARK  status: ('A' for Active; 'I' for Inactive)
REMARK    1  A    between atoms: C_2  and  C_4
REMARK    2  A    between atoms: C_4  and  C_5
REMARK    3  A    between atoms: C_5  and  C_6
REMARK    4  A    between atoms: C_6  and  C_7
REMARK    5  A    between atoms: C_8  and  C_9
REMARK    6  A    between atoms: C_9  and  C_10
REMARK    7  A    between atoms: C_11  and  N_12
REMARK    8  A    between atoms: N_12  and  S_13
REMARK    9  A    between atoms: S_13  and  C_16
REMARK   10  A    between atoms: C_19  and  N_20
REMARK                            x       y       z     vdW  Elec       q    Type
REMARK                         _______ _______ _______ _____ _____    ______ ____
ROOT
ATOM      1  C   UNL     1       6.822   6.738  17.086  0.00  0.00    +0.000 C 
ATOM      2  C   UNL     1       5.760   6.063  17.985  0.00  0.00    +0.000 C 
ATOM      3  C   UNL     1       6.001   4.546  17.720  0.00  0.00    +0.000 C 
ATOM      4  C   UNL     1       5.565   4.123  16.305  0.00  0.00    +0.000 C 
ATOM      5  C   UNL     1       6.537   4.898  15.408  0.00  0.00    +0.000 C 
ATOM      6  C   UNL     1       7.519   5.525  16.420  0.00  0.00    +0.000 C 
ATOM      7  C   UNL     1       7.523   4.491  17.545  0.00  0.00    +0.000 C 
ENDROOT
BRANCH   2   8
ATOM      8  N   UNL     1       4.371   6.431  17.684  0.00  0.00    +0.000 NA
ATOM      9  H   UNL     1       4.204   7.358  17.305  0.00  0.00    +0.000 HD
BRANCH   8  10
ATOM     10  S   UNL     1       3.083   5.970  18.691  0.00  0.00    +0.000 S 
ATOM     11  O   UNL     1       2.176   5.191  17.875  0.00  0.00    +0.000 OA
ATOM     12  O   UNL     1       3.622   5.480  19.933  0.00  0.00    +0.000 OA
BRANCH  10  13
ATOM     13  C   UNL     1       2.249   7.526  18.984  0.00  0.00    +0.000 A 
ATOM     14  C   UNL     1       1.764   7.828  20.257  0.00  0.00    +0.000 A 
ATOM     15  C   UNL     1       1.037   9.008  20.460  0.00  0.00    +0.000 A 
ATOM     16  C   UNL     1       0.803   9.873  19.377  0.00  0.00    +0.000 A 
ATOM     17  C   UNL     1       1.316   9.582  18.110  0.00  0.00    +0.000 A 
ATOM     18  C   UNL     1       2.070   8.421  17.927  0.00  0.00    +0.000 A 
BRANCH  16  19
ATOM     19  N   UNL     1       0.011  11.101  19.581  0.00  0.00    +0.000 N 
ATOM     20  O   UNL     1      -0.399  11.692  18.576  0.00  0.00    +0.000 OA
ATOM     21  O   UNL     1      -0.190  11.460  20.749  0.00  0.00    +0.000 OA
ENDBRANCH  16  19
ENDBRANCH  10  13
ENDBRANCH   8  10
ENDBRANCH   2   8
BRANCH   1  22
ATOM     22  C   UNL     1       7.775   7.605  17.930  0.00  0.00    +0.000 C 
BRANCH  22  24
ATOM     23  C   UNL     1       8.404  10.056  18.097  0.00  0.00    +0.000 C 
ATOM     24  C   UNL     1       7.744   9.047  17.509  0.00  0.00    +0.000 C 
BRANCH  23  25
ATOM     25  C   UNL     1       9.317   9.955  19.289  0.00  0.00    +0.000 C 
BRANCH  25  26
ATOM     26  C   UNL     1      10.332  11.093  19.369  0.00  0.00    +0.000 C 
BRANCH  26  27
ATOM     27  C   UNL     1      10.340  11.745  20.736  0.00  0.00    +0.000 C 
BRANCH  27  29
ATOM     28  O   UNL     1       8.531  13.324  20.574  0.00  0.00    +0.000 OA
ATOM     29  C   UNL     1       9.039  12.357  21.186  0.00  0.00    +0.000 C 
ATOM     30  O   UNL     1       8.516  11.808  22.211  0.00  0.00    +0.000 OA
ENDBRANCH  27  29
ENDBRANCH  26  27
ENDBRANCH  25  26
ENDBRANCH  23  25
ENDBRANCH  22  24
ENDBRANCH   1  22
TORSDOF 10
ENDMDL
MODEL 6
REMARK VINA RESULT:      -7.5      3.029      7.734
REMARK  Name = 
REMARK  10 active torsions:
REMARK  status: ('A' for Active; 'I' for Inactive)
REMARK    1  A    between atoms: C_2  and  C_4
REMARK    2  A    between atoms: C_4  and  C_5
REMARK    3  A    between atoms: C_5  and  C_6
REMARK    4  A    between atoms: C_6  and  C_7
REMARK    5  A    between atoms: C_8  and  C_9
REMARK    6  A    between atoms: C_9  and  C_10
REMARK    7  A    between atoms: C_11  and  N_12
REMARK    8  A    between atoms: N_12  and  S_13
REMARK    9  A    between atoms: S_13  and  C_16
REMARK   10  A    between atoms: C_19  and  N_20
REMARK                            x       y       z     vdW  Elec       q    Type
REMARK                         _______ _______ _______ _____ _____    ______ ____
ROOT
ATOM      1  C   UNL     1       2.523   4.046  20.100  0.00  0.00    +0.000 C 
ATOM      2  C   UNL     1       3.177   4.379  18.739  0.00  0.00    +0.000 C 
ATOM      3  C   UNL     1       2.289   3.587  17.731  0.00  0.00    +0.000 C 
ATOM      4  C   UNL     1       2.495   2.065  17.841  0.00  0.00    +0.000 C 
ATOM      5  C   UNL     1       1.968   1.755  19.247  0.00  0.00    +0.000 C 
ATOM      6  C   UNL     1       1.363   3.103  19.695  0.00  0.00    +0.000 C 
ATOM      7  C   UNL     1       0.900   3.703  18.368  0.00  0.00    +0.000 C 
ENDROOT
BRANCH   2   8
ATOM      8  N   UNL     1       4.586   3.986  18.615  0.00  0.00    +0.000 NA
ATOM      9  H   UNL     1       4.945   3.318  19.290  0.00  0.00    +0.000 HD
BRANCH   8  10
ATOM     10  S   UNL     1       5.794   5.102  18.194  0.00  0.00    +0.000 S 
ATOM     11  O   UNL     1       5.192   6.416  18.277  0.00  0.00    +0.000 OA
ATOM     12  O   UNL     1       7.003   4.759  18.896  0.00  0.00    +0.000 OA
BRANCH  10  13
ATOM     13  C   UNL     1       6.016   4.786  16.447  0.00  0.00    +0.000 A 
ATOM     14  C   UNL     1       4.982   4.212  15.705  0.00  0.00    +0.000 A 
ATOM     15  C   UNL     1       5.193   3.888  14.359  0.00  0.00    +0.000 A 
ATOM     16  C   UNL     1       6.443   4.145  13.770  0.00  0.00    +0.000 A 
ATOM     17  C   UNL     1       7.466   4.748  14.508  0.00  0.00    +0.000 A 
ATOM     18  C   UNL     1       7.234   5.099  15.840  0.00  0.00    +0.000 A 
BRANCH  16  19
ATOM     19  N   UNL     1       6.677   3.777  12.361  0.00  0.00    +0.000 N 
ATOM     20  O   UNL     1       6.103   2.772  11.929  0.00  0.00    +0.000 OA
ATOM     21  O   UNL     1       7.435   4.502  11.703  0.00  0.00    +0.000 OA
ENDBRANCH  16  19
ENDBRANCH  10  13
ENDBRANCH   8  10
ENDBRANCH   2   8
BRANCH   1  22
ATOM     22  C   UNL     1       2.051   5.332  20.804  0.00  0.00    +0.000 C 
BRANCH  22  24
ATOM     23  C   UNL     1       1.780   7.770  20.163  0.00  0.00    +0.000 C 
ATOM     24  C   UNL     1       2.322   6.557  19.977  0.00  0.00    +0.000 C 
BRANCH  23  25
ATOM     25  C   UNL     1       0.802   8.160  21.237  0.00  0.00    +0.000 C 
BRANCH  25  26
ATOM     26  C   UNL     1       0.180   9.537  21.016  0.00  0.00    +0.000 C 
BRANCH  26  27
ATOM     27  C   UNL     1       0.346  10.006  19.585  0.00  0.00    +0.000 C 
BRANCH  27  29
ATOM     28  O   UNL     1      -0.482  12.263  19.671  0.00  0.00    +0.000 OA
ATOM     29  C   UNL     1       0.463  11.494  19.384  0.00  0.00    +0.000 C 
ATOM     30  O   UNL     1       1.583  11.885  18.918  0.00  0.00    +0.000 OA
ENDBRANCH  27  29
ENDBRANCH  26  27
ENDBRANCH  25  26
ENDBRANCH  23  25
ENDBRANCH  22  24
ENDBRANCH   1  22
TORSDOF 10
ENDMDL
MODEL 7
REMARK VINA RESULT:      -7.4      3.122      7.435
REMARK  Name = 
REMARK  10 active torsions:
REMARK  status: ('A' for Active; 'I' for Inactive)
REMARK    1  A    between atoms: C_2  and  C_4
REMARK    2  A    between atoms: C_4  and  C_5
REMARK    3  A    between atoms: C_5  and  C_6
REMARK    4  A    between atoms: C_6  and  C_7
REMARK    5  A    between atoms: C_8  and  C_9
REMARK    6  A    between atoms: C_9  and  C_10
REMARK    7  A    between atoms: C_11  and  N_12
REMARK    8  A    between atoms: N_12  and  S_13
REMARK    9  A    between atoms: S_13  and  C_16
REMARK   10  A    between atoms: C_19  and  N_20
REMARK                            x       y       z     vdW  Elec       q    Type
REMARK                         _______ _______ _______ _____ _____    ______ ____
ROOT
ATOM      1  C   UNL     1       2.589   4.867  20.069  0.00  0.00    +0.000 C 
ATOM      2  C   UNL     1       3.339   4.716  18.726  0.00  0.00    +0.000 C 
ATOM      3  C   UNL     1       2.501   3.627  17.988  0.00  0.00    +0.000 C 
ATOM      4  C   UNL     1       2.663   2.234  18.624  0.00  0.00    +0.000 C 
ATOM      5  C   UNL     1       2.036   2.423  20.011  0.00  0.00    +0.000 C 
ATOM      6  C   UNL     1       1.435   3.843  19.929  0.00  0.00    +0.000 C 
ATOM      7  C   UNL     1       1.076   3.954  18.448  0.00  0.00    +0.000 C 
ENDROOT
BRANCH   2   8
ATOM      8  N   UNL     1       4.743   4.304  18.843  0.00  0.00    +0.000 NA
ATOM      9  H   UNL     1       5.017   3.815  19.689  0.00  0.00    +0.000 HD
BRANCH   8  10
ATOM     10  S   UNL     1       6.014   5.289  18.297  0.00  0.00    +0.000 S 
ATOM     11  O   UNL     1       5.494   6.638  18.228  0.00  0.00    +0.000 OA
ATOM     12  O   UNL     1       7.205   4.956  19.034  0.00  0.00    +0.000 OA
BRANCH  10  13
ATOM     13  C   UNL     1       6.205   4.761  16.598  0.00  0.00    +0.000 A 
ATOM     14  C   UNL     1       7.231   5.292  15.814  0.00  0.00    +0.000 A 
ATOM     15  C   UNL     1       7.322   4.939  14.462  0.00  0.00    +0.000 A 
ATOM     16  C   UNL     1       6.379   4.056  13.909  0.00  0.00    +0.000 A 
ATOM     17  C   UNL     1       5.372   3.502  14.705  0.00  0.00    +0.000 A 
ATOM     18  C   UNL     1       5.311   3.833  16.061  0.00  0.00    +0.000 A 
BRANCH  16  19
ATOM     19  N   UNL     1       6.455   3.707  12.478  0.00  0.00    +0.000 N 
ATOM     20  O   UNL     1       7.328   4.258  11.800  0.00  0.00    +0.000 OA
ATOM     21  O   UNL     1       5.636   2.882  12.050  0.00  0.00    +0.000 OA
ENDBRANCH  16  19
ENDBRANCH  10  13
ENDBRANCH   8  10
ENDBRANCH   2   8
BRANCH   1  22
ATOM     22  C   UNL     1       2.101   6.316  20.259  0.00  0.00    +0.000 C 
BRANCH  22  24
ATOM     23  C   UNL     1       1.954   8.353  18.755  0.00  0.00    +0.000 C 
ATOM     24  C   UNL     1       2.543   7.209  19.133  0.00  0.00    +0.000 C 
BRANCH  23  25
ATOM     25  C   UNL     1       0.741   8.986  19.381  0.00  0.00    +0.000 C 
BRANCH  25  26
ATOM     26  C   UNL     1       1.083  10.009  20.461  0.00  0.00    +0.000 C 
BRANCH  26  27
ATOM     27  C   UNL     1       1.254   9.358  21.818  0.00  0.00    +0.000 C 
BRANCH  27  29
ATOM     28  O   UNL     1      -0.061  10.064  23.706  0.00  0.00    +0.000 OA
ATOM     29  C   UNL     1       0.031   9.328  22.697  0.00  0.00    +0.000 C 
ATOM     30  O   UNL     1      -0.877   8.514  22.324  0.00  0.00    +0.000 OA
ENDBRANCH  27  29
ENDBRANCH  26  27
ENDBRANCH  25  26
ENDBRANCH  23  25
ENDBRANCH  22  24
ENDBRANCH   1  22
TORSDOF 10
ENDMDL
MODEL 8
REMARK VINA RESULT:      -7.3      2.035      4.763
REMARK  Name = 
REMARK  10 active torsions:
REMARK  status: ('A' for Active; 'I' for Inactive)
REMARK    1  A    between atoms: C_2  and  C_4
REMARK    2  A    between atoms: C_4  and  C_5
REMARK    3  A    between atoms: C_5  and  C_6
REMARK    4  A    between atoms: C_6  and  C_7
REMARK    5  A    between atoms: C_8  and  C_9
REMARK    6  A    between atoms: C_9  and  C_10
REMARK    7  A    between atoms: C_11  and  N_12
REMARK    8  A    between atoms: N_12  and  S_13
REMARK    9  A    between atoms: S_13  and  C_16
REMARK   10  A    between atoms: C_19  and  N_20
REMARK                            x       y       z     vdW  Elec       q    Type
REMARK                         _______ _______ _______ _____ _____    ______ ____
ROOT
ATOM      1  C   UNL     1       3.125   3.748  18.312  0.00  0.00    +0.000 C 
ATOM      2  C   UNL     1       2.891   4.409  19.690  0.00  0.00    +0.000 C 
ATOM      3  C   UNL     1       2.237   3.259  20.514  0.00  0.00    +0.000 C 
ATOM      4  C   UNL     1       0.805   2.942  20.044  0.00  0.00    +0.000 C 
ATOM      5  C   UNL     1       1.029   2.410  18.623  0.00  0.00    +0.000 C 
ATOM      6  C   UNL     1       2.566   2.319  18.525  0.00  0.00    +0.000 C 
ATOM      7  C   UNL     1       2.964   2.023  19.970  0.00  0.00    +0.000 C 
ENDROOT
BRANCH   2   8
ATOM      8  N   UNL     1       2.025   5.594  19.669  0.00  0.00    +0.000 NA
ATOM      9  H   UNL     1       1.024   5.440  19.602  0.00  0.00    +0.000 HD
BRANCH   8  10
ATOM     10  S   UNL     1       2.458   7.006  18.831  0.00  0.00    +0.000 S 
ATOM     11  O   UNL     1       3.869   7.219  19.077  0.00  0.00    +0.000 OA
ATOM     12  O   UNL     1       1.905   6.943  17.503  0.00  0.00    +0.000 OA
BRANCH  10  13
ATOM     13  C   UNL     1       1.612   8.279  19.762  0.00  0.00    +0.000 A 
ATOM     14  C   UNL     1       1.233   9.467  19.135  0.00  0.00    +0.000 A 
ATOM     15  C   UNL     1       0.649  10.493  19.888  0.00  0.00    +0.000 A 
ATOM     16  C   UNL     1       0.453  10.315  21.268  0.00  0.00    +0.000 A 
ATOM     17  C   UNL     1       0.806   9.113  21.887  0.00  0.00    +0.000 A 
ATOM     18  C   UNL     1       1.355   8.083  21.120  0.00  0.00    +0.000 A 
BRANCH  16  19
ATOM     19  N   UNL     1      -0.134  11.406  22.069  0.00  0.00    +0.000 N 
ATOM     20  O   UNL     1      -0.207  12.524  21.548  0.00  0.00    +0.000 OA
ATOM     21  O   UNL     1      -0.515  11.128  23.214  0.00  0.00    +0.000 OA
ENDBRANCH  16  19
ENDBRANCH  10  13
ENDBRANCH   8  10
ENDBRANCH   2   8
BRANCH   1  22
ATOM     22  C   UNL     1       4.621   3.773  17.945  0.00  0.00    +0.000 C 
BRANCH  22  24
ATOM     23  C   UNL     1       5.203   4.853  15.726  0.00  0.00    +0.000 C 
ATOM     24  C   UNL     1       4.834   3.791  16.457  0.00  0.00    +0.000 C 
BRANCH  23  25
ATOM     25  C   UNL     1       5.490   6.238  16.237  0.00  0.00    +0.000 C 
BRANCH  25  26
ATOM     26  C   UNL     1       6.961   6.463  16.578  0.00  0.00    +0.000 C 
BRANCH  26  27
ATOM     27  C   UNL     1       7.216   6.356  18.068  0.00  0.00    +0.000 C 
BRANCH  27  29
ATOM     28  O   UNL     1       8.206   4.188  17.736  0.00  0.00    +0.000 OA
ATOM     29  C   UNL     1       7.948   5.122  18.528  0.00  0.00    +0.000 C 
ATOM     30  O   UNL     1       8.277   5.124  19.760  0.00  0.00    +0.000 OA
ENDBRANCH  27  29
ENDBRANCH  26  27
ENDBRANCH  25  26
ENDBRANCH  23  25
ENDBRANCH  22  24
ENDBRANCH   1  22
TORSDOF 10
ENDMDL
MODEL 9
REMARK VINA RESULT:      -7.3      0.814      1.131
REMARK  Name = 
REMARK  10 active torsions:
REMARK  status: ('A' for Active; 'I' for Inactive)
REMARK    1  A    between atoms: C_2  and  C_4
REMARK    2  A    between atoms: C_4  and  C_5
REMARK    3  A    between atoms: C_5  and  C_6
REMARK    4  A    between atoms: C_6  and  C_7
REMARK    5  A    between atoms: C_8  and  C_9
REMARK    6  A    between atoms: C_9  and  C_10
REMARK    7  A    between atoms: C_11  and  N_12
REMARK    8  A    between atoms: N_12  and  S_13
REMARK    9  A    between atoms: S_13  and  C_16
REMARK   10  A    between atoms: C_19  and  N_20
REMARK                            x       y       z     vdW  Elec       q    Type
REMARK                         _______ _______ _______ _____ _____    ______ ____
ROOT
ATOM      1  C   UNL     1       5.498   4.768  18.322  0.00  0.00    +0.000 C 
ATOM      2  C   UNL     1       4.879   5.806  17.357  0.00  0.00    +0.000 C 
ATOM      3  C   UNL     1       6.126   6.350  16.596  0.00  0.00    +0.000 C 
ATOM      4  C   UNL     1       7.026   7.219  17.494  0.00  0.00    +0.000 C 
ATOM      5  C   UNL     1       7.535   6.213  18.533  0.00  0.00    +0.000 C 
ATOM      6  C   UNL     1       7.009   4.865  17.996  0.00  0.00    +0.000 C 
ATOM      7  C   UNL     1       7.005   5.100  16.487  0.00  0.00    +0.000 C 
ENDROOT
BRANCH   2   8
ATOM      8  N   UNL     1       4.147   6.898  18.009  0.00  0.00    +0.000 NA
ATOM      9  H   UNL     1       4.690   7.585  18.521  0.00  0.00    +0.000 HD
BRANCH   8  10
ATOM     10  S   UNL     1       2.652   6.644  18.775  0.00  0.00    +0.000 S 
ATOM     11  O   UNL     1       1.790   6.008  17.801  0.00  0.00    +0.000 OA
ATOM     12  O   UNL     1       2.892   6.083  20.079  0.00  0.00    +0.000 OA
BRANCH  10  13
ATOM     13  C   UNL     1       2.025   8.310  18.955  0.00  0.00    +0.000 A 
ATOM     14  C   UNL     1       1.359   8.682  20.124  0.00  0.00    +0.000 A 
ATOM     15  C   UNL     1       0.796   9.960  20.225  0.00  0.00    +0.000 A 
ATOM     16  C   UNL     1       0.907  10.854  19.146  0.00  0.00    +0.000 A 
ATOM     17  C   UNL     1       1.602  10.489  17.988  0.00  0.00    +0.000 A 
ATOM     18  C   UNL     1       2.190   9.225  17.913  0.00  0.00    +0.000 A 
BRANCH  16  19
ATOM     19  N   UNL     1       0.289  12.190  19.237  0.00  0.00    +0.000 N 
ATOM     20  O   UNL     1       0.950  13.092  19.762  0.00  0.00    +0.000 OA
ATOM     21  O   UNL     1      -0.855  12.319  18.780  0.00  0.00    +0.000 OA
ENDBRANCH  16  19
ENDBRANCH  10  13
ENDBRANCH   8  10
ENDBRANCH   2   8
BRANCH   1  22
ATOM     22  C   UNL     1       4.904   3.370  18.068  0.00  0.00    +0.000 C 
BRANCH  22  24
ATOM     23  C   UNL     1       2.628   2.843  17.082  0.00  0.00    +0.000 C 
ATOM     24  C   UNL     1       3.848   3.393  16.999  0.00  0.00    +0.000 C 
BRANCH  23  25
ATOM     25  C   UNL     1       2.058   2.100  18.260  0.00  0.00    +0.000 C 
BRANCH  25  26
ATOM     26  C   UNL     1       1.366   3.012  19.271  0.00  0.00    +0.000 C 
BRANCH  26  27
ATOM     27  C   UNL     1       1.377   2.417  20.664  0.00  0.00    +0.000 C 
BRANCH  27  29
ATOM     28  O   UNL     1       3.706   2.254  21.247  0.00  0.00    +0.000 OA
ATOM     29  C   UNL     1       2.582   2.735  21.511  0.00  0.00    +0.000 C 
ATOM     30  O   UNL     1       2.356   3.525  22.487  0.00  0.00    +0.000 OA
ENDBRANCH  27  29
ENDBRANCH  26  27
ENDBRANCH  25  26
ENDBRANCH  23  25
ENDBRANCH  22  24
ENDBRANCH   1  22
TORSDOF 10
ENDMDL
