MODEL 1
REMARK VINA RESULT:      -8.8      0.000      0.000
REMARK  Name = 
REMARK  5 active torsions:
REMARK  status: ('A' for Active; 'I' for Inactive)
REMARK    1  A    between atoms: C_1  and  C_2
REMARK    2  A    between atoms: C_7  and  N_8
REMARK    3  A    between atoms: C_12  and  C_14
REMARK    4  A    between atoms: C_21  and  C_22
REMARK    5  A    between atoms: C_26  and  C_27
REMARK                            x       y       z     vdW  Elec       q    Type
REMARK                         _______ _______ _______ _____ _____    ______ ____
ROOT
ATOM      1  N   UNL     1       2.410   6.617  18.798  0.00  0.00    +0.000 N 
ATOM      2  N   UNL     1       1.497   7.609  18.839  0.00  0.00    +0.000 NA
ATOM      3  C   UNL     1       2.039   8.646  18.228  0.00  0.00    +0.000 A 
ATOM      4  N   UNL     1       1.440   9.882  18.087  0.00  0.00    +0.000 N 
ATOM      5  C   UNL     1       0.174  10.203  18.541  0.00  0.00    +0.000 C 
ATOM      6  O   UNL     1      -0.602   9.468  19.147  0.00  0.00    +0.000 OA
ATOM      7  C   UNL     1       3.306   8.317  17.714  0.00  0.00    +0.000 A 
ATOM      8  C   UNL     1       3.533   6.987  18.042  0.00  0.00    +0.000 A 
ATOM      9  H   UNL     1       2.001  10.581  17.622  0.00  0.00    +0.000 HD
ENDROOT
BRANCH   1  16
ATOM     10  C   UNL     1       1.425   4.206  17.309  0.00  0.00    +0.000 C 
ATOM     11  C   UNL     1       1.716   4.236  18.789  0.00  0.00    +0.000 A 
ATOM     12  C   UNL     1       1.623   3.027  19.500  0.00  0.00    +0.000 A 
ATOM     13  C   UNL     1       1.937   2.958  20.858  0.00  0.00    +0.000 A 
ATOM     14  C   UNL     1       2.299   4.110  21.545  0.00  0.00    +0.000 A 
ATOM     15  C   UNL     1       2.374   5.325  20.870  0.00  0.00    +0.000 A 
ATOM     16  C   UNL     1       2.143   5.391  19.485  0.00  0.00    +0.000 A 
ENDBRANCH   1  16
BRANCH   5  17
ATOM     17  C   UNL     1      -0.266  11.635  18.240  0.00  0.00    +0.000 C 
ATOM     18  C   UNL     1      -1.709  11.700  17.779  0.00  0.00    +0.000 C 
ATOM     19  N   UNL     1      -2.430  11.947  18.995  0.00  0.00    +0.000 N 
ATOM     20  C   UNL     1      -1.634  12.504  19.974  0.00  0.00    +0.000 C 
ATOM     21  O   UNL     1      -2.028  12.864  21.068  0.00  0.00    +0.000 OA
ATOM     22  C   UNL     1      -0.212  12.538  19.473  0.00  0.00    +0.000 C 
ATOM     23  H   UNL     1      -3.441  11.951  19.088  0.00  0.00    +0.000 HD
ENDBRANCH   5  17
BRANCH   8  24
ATOM     24  C   UNL     1       4.660   6.130  17.628  0.00  0.00    +0.000 A 
ATOM     25  C   UNL     1       5.521   5.589  18.592  0.00  0.00    +0.000 A 
ATOM     26  C   UNL     1       6.560   4.729  18.227  0.00  0.00    +0.000 A 
ATOM     27  C   UNL     1       6.735   4.368  16.892  0.00  0.00    +0.000 A 
ATOM     28  C   UNL     1       5.904   4.905  15.903  0.00  0.00    +0.000 A 
ATOM     29  C   UNL     1       4.912   5.827  16.280  0.00  0.00    +0.000 A 
BRANCH  28  30
ATOM     30  C   UNL     1       6.013   4.479  14.460  0.00  0.00    +0.000 C 
ATOM     31  F   UNL     1       6.953   5.173  13.758  0.00  0.00    +0.000 F 
ATOM     32  F   UNL     1       6.355   3.165  14.334  0.00  0.00    +0.000 F 
ATOM     33  F   UNL     1       4.847   4.631  13.776  0.00  0.00    +0.000 F 
ENDBRANCH  28  30
ENDBRANCH   8  24
TORSDOF 4
ENDMDL
MODEL 2
REMARK VINA RESULT:      -8.8      0.794      1.091
REMARK  Name = 
REMARK  5 active torsions:
REMARK  status: ('A' for Active; 'I' for Inactive)
REMARK    1  A    between atoms: C_1  and  C_2
REMARK    2  A    between atoms: C_7  and  N_8
REMARK    3  A    between atoms: C_12  and  C_14
REMARK    4  A    between atoms: C_21  and  C_22
REMARK    5  A    between atoms: C_26  and  C_27
REMARK                            x       y       z     vdW  Elec       q    Type
REMARK                         _______ _______ _______ _____ _____    ______ ____
ROOT
ATOM      1  N   UNL     1       2.428   6.493  18.965  0.00  0.00    +0.000 N 
ATOM      2  N   UNL     1       1.540   7.504  19.071  0.00  0.00    +0.000 NA
ATOM      3  C   UNL     1       2.109   8.564  18.526  0.00  0.00    +0.000 A 
ATOM      4  N   UNL     1       1.542   9.820  18.465  0.00  0.00    +0.000 N 
ATOM      5  C   UNL     1       0.284  10.143  18.939  0.00  0.00    +0.000 C 
ATOM      6  O   UNL     1      -0.511   9.392  19.498  0.00  0.00    +0.000 OA
ATOM      7  C   UNL     1       3.368   8.236  17.991  0.00  0.00    +0.000 A 
ATOM      8  C   UNL     1       3.561   6.882  18.233  0.00  0.00    +0.000 A 
ATOM      9  H   UNL     1       2.120  10.533  18.045  0.00  0.00    +0.000 HD
ENDROOT
BRANCH   1  16
ATOM     10  C   UNL     1       1.442   4.189  17.317  0.00  0.00    +0.000 C 
ATOM     11  C   UNL     1       1.702   4.128  18.802  0.00  0.00    +0.000 A 
ATOM     12  C   UNL     1       1.577   2.880  19.438  0.00  0.00    +0.000 A 
ATOM     13  C   UNL     1       1.861   2.727  20.795  0.00  0.00    +0.000 A 
ATOM     14  C   UNL     1       2.225   3.831  21.557  0.00  0.00    +0.000 A 
ATOM     15  C   UNL     1       2.331   5.083  20.956  0.00  0.00    +0.000 A 
ATOM     16  C   UNL     1       2.130   5.233  19.573  0.00  0.00    +0.000 A 
ENDBRANCH   1  16
BRANCH   5  17
ATOM     17  C   UNL     1      -0.119  11.603  18.730  0.00  0.00    +0.000 C 
ATOM     18  C   UNL     1      -1.448  11.923  19.387  0.00  0.00    +0.000 C 
ATOM     19  N   UNL     1      -1.064  12.423  20.676  0.00  0.00    +0.000 N 
ATOM     20  C   UNL     1       0.234  12.889  20.694  0.00  0.00    +0.000 C 
ATOM     21  O   UNL     1       0.768  13.419  21.650  0.00  0.00    +0.000 OA
ATOM     22  C   UNL     1       0.871  12.583  19.362  0.00  0.00    +0.000 C 
ATOM     23  H   UNL     1      -1.702  12.645  21.434  0.00  0.00    +0.000 HD
ENDBRANCH   5  17
BRANCH   8  24
ATOM     24  C   UNL     1       4.666   6.025  17.764  0.00  0.00    +0.000 A 
ATOM     25  C   UNL     1       5.538   5.436  18.690  0.00  0.00    +0.000 A 
ATOM     26  C   UNL     1       6.557   4.575  18.271  0.00  0.00    +0.000 A 
ATOM     27  C   UNL     1       6.699   4.262  16.921  0.00  0.00    +0.000 A 
ATOM     28  C   UNL     1       5.856   4.847  15.970  0.00  0.00    +0.000 A 
ATOM     29  C   UNL     1       4.886   5.769  16.402  0.00  0.00    +0.000 A 
BRANCH  28  30
ATOM     30  C   UNL     1       5.929   4.474  14.510  0.00  0.00    +0.000 C 
ATOM     31  F   UNL     1       6.294   3.179  14.298  0.00  0.00    +0.000 F 
ATOM     32  F   UNL     1       4.730   4.627  13.877  0.00  0.00    +0.000 F 
ATOM     33  F   UNL     1       6.819   5.233  13.816  0.00  0.00    +0.000 F 
ENDBRANCH  28  30
ENDBRANCH   8  24
TORSDOF 4
ENDMDL
MODEL 3
REMARK VINA RESULT:      -8.7      0.998      1.556
REMARK  Name = 
REMARK  5 active torsions:
REMARK  status: ('A' for Active; 'I' for Inactive)
REMARK    1  A    between atoms: C_1  and  C_2
REMARK    2  A    between atoms: C_7  and  N_8
REMARK    3  A    between atoms: C_12  and  C_14
REMARK    4  A    between atoms: C_21  and  C_22
REMARK    5  A    between atoms: C_26  and  C_27
REMARK                            x       y       z     vdW  Elec       q    Type
REMARK                         _______ _______ _______ _____ _____    ______ ____
ROOT
ATOM      1  N   UNL     1       2.696   6.420  18.160  0.00  0.00    +0.000 N 
ATOM      2  N   UNL     1       1.833   7.444  18.327  0.00  0.00    +0.000 NA
ATOM      3  C   UNL     1       2.488   8.545  18.006  0.00  0.00    +0.000 A 
ATOM      4  N   UNL     1       1.970   9.822  18.078  0.00  0.00    +0.000 N 
ATOM      5  C   UNL     1       0.680  10.131  18.467  0.00  0.00    +0.000 C 
ATOM      6  O   UNL     1      -0.193   9.343  18.826  0.00  0.00    +0.000 OA
ATOM      7  C   UNL     1       3.786   8.241  17.556  0.00  0.00    +0.000 A 
ATOM      8  C   UNL     1       3.911   6.859  17.611  0.00  0.00    +0.000 A 
ATOM      9  H   UNL     1       2.611  10.561  17.828  0.00  0.00    +0.000 HD
ENDROOT
BRANCH   1  16
ATOM     10  C   UNL     1       1.733   5.850  20.943  0.00  0.00    +0.000 C 
ATOM     11  C   UNL     1       1.803   4.827  19.837  0.00  0.00    +0.000 A 
ATOM     12  C   UNL     1       1.283   3.547  20.096  0.00  0.00    +0.000 A 
ATOM     13  C   UNL     1       1.253   2.563  19.106  0.00  0.00    +0.000 A 
ATOM     14  C   UNL     1       1.792   2.823  17.853  0.00  0.00    +0.000 A 
ATOM     15  C   UNL     1       2.337   4.076  17.579  0.00  0.00    +0.000 A 
ATOM     16  C   UNL     1       2.296   5.101  18.540  0.00  0.00    +0.000 A 
ENDBRANCH   1  16
BRANCH   5  17
ATOM     17  C   UNL     1       0.346  11.622  18.440  0.00  0.00    +0.000 C 
ATOM     18  C   UNL     1      -1.106  11.884  18.786  0.00  0.00    +0.000 C 
ATOM     19  N   UNL     1      -1.067  12.124  20.200  0.00  0.00    +0.000 N 
ATOM     20  C   UNL     1       0.183  12.514  20.634  0.00  0.00    +0.000 C 
ATOM     21  O   UNL     1       0.453  12.836  21.775  0.00  0.00    +0.000 OA
ATOM     22  C   UNL     1       1.141  12.421  19.473  0.00  0.00    +0.000 C 
ATOM     23  H   UNL     1      -1.879  12.237  20.800  0.00  0.00    +0.000 HD
ENDBRANCH   5  17
BRANCH   8  24
ATOM     24  C   UNL     1       5.032   6.029  17.131  0.00  0.00    +0.000 A 
ATOM     25  C   UNL     1       6.010   5.585  18.031  0.00  0.00    +0.000 A 
ATOM     26  C   UNL     1       7.050   4.751  17.609  0.00  0.00    +0.000 A 
ATOM     27  C   UNL     1       7.108   4.319  16.285  0.00  0.00    +0.000 A 
ATOM     28  C   UNL     1       6.157   4.759  15.359  0.00  0.00    +0.000 A 
ATOM     29  C   UNL     1       5.162   5.658  15.784  0.00  0.00    +0.000 A 
BRANCH  28  30
ATOM     30  C   UNL     1       6.143   4.253  13.938  0.00  0.00    +0.000 C 
ATOM     31  F   UNL     1       7.074   4.847  13.140  0.00  0.00    +0.000 F 
ATOM     32  F   UNL     1       6.395   2.915  13.863  0.00  0.00    +0.000 F 
ATOM     33  F   UNL     1       4.945   4.444  13.322  0.00  0.00    +0.000 F 
ENDBRANCH  28  30
ENDBRANCH   8  24
TORSDOF 4
ENDMDL
MODEL 4
REMARK VINA RESULT:      -8.2      0.902      1.235
REMARK  Name = 
REMARK  5 active torsions:
REMARK  status: ('A' for Active; 'I' for Inactive)
REMARK    1  A    between atoms: C_1  and  C_2
REMARK    2  A    between atoms: C_7  and  N_8
REMARK    3  A    between atoms: C_12  and  C_14
REMARK    4  A    between atoms: C_21  and  C_22
REMARK    5  A    between atoms: C_26  and  C_27
REMARK                            x       y       z     vdW  Elec       q    Type
REMARK                         _______ _______ _______ _____ _____    ______ ____
ROOT
ATOM      1  N   UNL     1       2.330   6.413  19.192  0.00  0.00    +0.000 N 
ATOM      2  N   UNL     1       1.429   7.406  19.351  0.00  0.00    +0.000 NA
ATOM      3  C   UNL     1       1.988   8.502  18.871  0.00  0.00    +0.000 A 
ATOM      4  N   UNL     1       1.407   9.753  18.879  0.00  0.00    +0.000 N 
ATOM      5  C   UNL     1       0.143  10.035  19.364  0.00  0.00    +0.000 C 
ATOM      6  O   UNL     1      -0.646   9.243  19.876  0.00  0.00    +0.000 OA
ATOM      7  C   UNL     1       3.253   8.220  18.324  0.00  0.00    +0.000 A 
ATOM      8  C   UNL     1       3.461   6.856  18.490  0.00  0.00    +0.000 A 
ATOM      9  H   UNL     1       1.979  10.496  18.503  0.00  0.00    +0.000 HD
ENDROOT
BRANCH   1  16
ATOM     10  C   UNL     1       1.391   4.193  17.408  0.00  0.00    +0.000 C 
ATOM     11  C   UNL     1       1.638   4.051  18.889  0.00  0.00    +0.000 A 
ATOM     12  C   UNL     1       1.524   2.769  19.453  0.00  0.00    +0.000 A 
ATOM     13  C   UNL     1       1.798   2.543  20.803  0.00  0.00    +0.000 A 
ATOM     14  C   UNL     1       2.138   3.607  21.629  0.00  0.00    +0.000 A 
ATOM     15  C   UNL     1       2.233   4.892  21.100  0.00  0.00    +0.000 A 
ATOM     16  C   UNL     1       2.043   5.118  19.725  0.00  0.00    +0.000 A 
ENDBRANCH   1  16
BRANCH   5  17
ATOM     17  C   UNL     1      -0.276  11.499  19.237  0.00  0.00    +0.000 C 
ATOM     18  C   UNL     1      -0.178  11.994  17.808  0.00  0.00    +0.000 C 
ATOM     19  N   UNL     1      -1.501  11.780  17.296  0.00  0.00    +0.000 N 
ATOM     20  C   UNL     1      -2.447  11.701  18.297  0.00  0.00    +0.000 C 
ATOM     21  O   UNL     1      -3.644  11.587  18.114  0.00  0.00    +0.000 OA
ATOM     22  C   UNL     1      -1.737  11.728  19.627  0.00  0.00    +0.000 C 
ATOM     23  H   UNL     1      -1.784  11.903  16.328  0.00  0.00    +0.000 HD
ENDBRANCH   5  17
BRANCH   8  24
ATOM     24  C   UNL     1       4.578   6.040  17.978  0.00  0.00    +0.000 A 
ATOM     25  C   UNL     1       5.484   5.453  18.872  0.00  0.00    +0.000 A 
ATOM     26  C   UNL     1       6.515   4.629  18.412  0.00  0.00    +0.000 A 
ATOM     27  C   UNL     1       6.638   4.352  17.052  0.00  0.00    +0.000 A 
ATOM     28  C   UNL     1       5.761   4.937  16.133  0.00  0.00    +0.000 A 
ATOM     29  C   UNL     1       4.776   5.823  16.605  0.00  0.00    +0.000 A 
BRANCH  28  30
ATOM     30  C   UNL     1       5.813   4.601  14.663  0.00  0.00    +0.000 C 
ATOM     31  F   UNL     1       4.620   4.762  14.025  0.00  0.00    +0.000 F 
ATOM     32  F   UNL     1       6.701   5.385  13.986  0.00  0.00    +0.000 F 
ATOM     33  F   UNL     1       6.193   3.316  14.429  0.00  0.00    +0.000 F 
ENDBRANCH  28  30
ENDBRANCH   8  24
TORSDOF 4
ENDMDL
MODEL 5
REMARK VINA RESULT:      -8.1      1.881      2.345
REMARK  Name = 
REMARK  5 active torsions:
REMARK  status: ('A' for Active; 'I' for Inactive)
REMARK    1  A    between atoms: C_1  and  C_2
REMARK    2  A    between atoms: C_7  and  N_8
REMARK    3  A    between atoms: C_12  and  C_14
REMARK    4  A    between atoms: C_21  and  C_22
REMARK    5  A    between atoms: C_26  and  C_27
REMARK                            x       y       z     vdW  Elec       q    Type
REMARK                         _______ _______ _______ _____ _____    ______ ____
ROOT
ATOM      1  N   UNL     1       2.209   6.947  18.725  0.00  0.00    +0.000 N 
ATOM      2  N   UNL     1       1.229   7.872  18.782  0.00  0.00    +0.000 NA
ATOM      3  C   UNL     1       1.688   8.946  18.166  0.00  0.00    +0.000 A 
ATOM      4  N   UNL     1       1.003  10.137  18.038  0.00  0.00    +0.000 N 
ATOM      5  C   UNL     1      -0.277  10.367  18.511  0.00  0.00    +0.000 C 
ATOM      6  O   UNL     1      -0.991   9.579  19.126  0.00  0.00    +0.000 OA
ATOM      7  C   UNL     1       2.968   8.708  17.634  0.00  0.00    +0.000 A 
ATOM      8  C   UNL     1       3.293   7.396  17.954  0.00  0.00    +0.000 A 
ATOM      9  H   UNL     1       1.506  10.874  17.567  0.00  0.00    +0.000 HD
ENDROOT
BRANCH   1  16
ATOM     10  C   UNL     1       1.406   4.469  17.238  0.00  0.00    +0.000 C 
ATOM     11  C   UNL     1       1.699   4.520  18.717  0.00  0.00    +0.000 A 
ATOM     12  C   UNL     1       1.701   3.307  19.427  0.00  0.00    +0.000 A 
ATOM     13  C   UNL     1       2.024   3.262  20.784  0.00  0.00    +0.000 A 
ATOM     14  C   UNL     1       2.299   4.437  21.471  0.00  0.00    +0.000 A 
ATOM     15  C   UNL     1       2.279   5.655  20.796  0.00  0.00    +0.000 A 
ATOM     16  C   UNL     1       2.039   5.704  19.412  0.00  0.00    +0.000 A 
ENDBRANCH   1  16
BRANCH   5  17
ATOM     17  C   UNL     1      -0.820  11.766  18.220  0.00  0.00    +0.000 C 
ATOM     18  C   UNL     1      -2.159  11.717  17.511  0.00  0.00    +0.000 C 
ATOM     19  N   UNL     1      -3.103  11.793  18.589  0.00  0.00    +0.000 N 
ATOM     20  C   UNL     1      -2.559  12.350  19.727  0.00  0.00    +0.000 C 
ATOM     21  O   UNL     1      -3.175  12.580  20.751  0.00  0.00    +0.000 OA
ATOM     22  C   UNL     1      -1.085  12.570  19.493  0.00  0.00    +0.000 C 
ATOM     23  H   UNL     1      -4.109  11.685  18.498  0.00  0.00    +0.000 HD
ENDBRANCH   5  17
BRANCH   8  24
ATOM     24  C   UNL     1       4.471   6.622  17.522  0.00  0.00    +0.000 A 
ATOM     25  C   UNL     1       4.564   6.168  16.199  0.00  0.00    +0.000 A 
ATOM     26  C   UNL     1       5.697   5.482  15.752  0.00  0.00    +0.000 A 
ATOM     27  C   UNL     1       6.771   5.267  16.613  0.00  0.00    +0.000 A 
ATOM     28  C   UNL     1       6.702   5.692  17.944  0.00  0.00    +0.000 A 
ATOM     29  C   UNL     1       5.524   6.313  18.397  0.00  0.00    +0.000 A 
BRANCH  28  30
ATOM     30  C   UNL     1       7.873   5.546  18.885  0.00  0.00    +0.000 C 
ATOM     31  F   UNL     1       8.699   4.510  18.567  0.00  0.00    +0.000 F 
ATOM     32  F   UNL     1       8.665   6.656  18.899  0.00  0.00    +0.000 F 
ATOM     33  F   UNL     1       7.491   5.340  20.174  0.00  0.00    +0.000 F 
ENDBRANCH  28  30
ENDBRANCH   8  24
TORSDOF 4
ENDMDL
MODEL 6
REMARK VINA RESULT:      -8.0      1.100      1.141
REMARK  Name = 
REMARK  5 active torsions:
REMARK  status: ('A' for Active; 'I' for Inactive)
REMARK    1  A    between atoms: C_1  and  C_2
REMARK    2  A    between atoms: C_7  and  N_8
REMARK    3  A    between atoms: C_12  and  C_14
REMARK    4  A    between atoms: C_21  and  C_22
REMARK    5  A    between atoms: C_26  and  C_27
REMARK                            x       y       z     vdW  Elec       q    Type
REMARK                         _______ _______ _______ _____ _____    ______ ____
ROOT
ATOM      1  N   UNL     1       3.028   6.232  18.357  0.00  0.00    +0.000 N 
ATOM      2  N   UNL     1       2.146   7.231  18.571  0.00  0.00    +0.000 NA
ATOM      3  C   UNL     1       2.695   8.329  18.083  0.00  0.00    +0.000 A 
ATOM      4  N   UNL     1       2.128   9.586  18.136  0.00  0.00    +0.000 N 
ATOM      5  C   UNL     1       0.890   9.872  18.681  0.00  0.00    +0.000 C 
ATOM      6  O   UNL     1       0.116   9.081  19.215  0.00  0.00    +0.000 OA
ATOM      7  C   UNL     1       3.932   8.043  17.477  0.00  0.00    +0.000 A 
ATOM      8  C   UNL     1       4.132   6.675  17.612  0.00  0.00    +0.000 A 
ATOM      9  H   UNL     1       2.690  10.328  17.747  0.00  0.00    +0.000 HD
ENDROOT
BRANCH   1  16
ATOM     10  C   UNL     1       1.035   4.431  17.025  0.00  0.00    +0.000 C 
ATOM     11  C   UNL     1       1.844   4.057  18.242  0.00  0.00    +0.000 A 
ATOM     12  C   UNL     1       1.736   2.740  18.721  0.00  0.00    +0.000 A 
ATOM     13  C   UNL     1       2.499   2.298  19.803  0.00  0.00    +0.000 A 
ATOM     14  C   UNL     1       3.345   3.180  20.463  0.00  0.00    +0.000 A 
ATOM     15  C   UNL     1       3.450   4.498  20.024  0.00  0.00    +0.000 A 
ATOM     16  C   UNL     1       2.752   4.931  18.883  0.00  0.00    +0.000 A 
ENDBRANCH   1  16
BRANCH   5  17
ATOM     17  C   UNL     1       0.481  11.342  18.595  0.00  0.00    +0.000 C 
ATOM     18  C   UNL     1      -1.005  11.532  18.826  0.00  0.00    +0.000 C 
ATOM     19  N   UNL     1      -1.087  11.799  20.233  0.00  0.00    +0.000 N 
ATOM     20  C   UNL     1       0.104  12.265  20.750  0.00  0.00    +0.000 C 
ATOM     21  O   UNL     1       0.270  12.622  21.901  0.00  0.00    +0.000 OA
ATOM     22  C   UNL     1       1.152  12.203  19.667  0.00  0.00    +0.000 C 
ATOM     23  H   UNL     1      -1.946  11.879  20.768  0.00  0.00    +0.000 HD
ENDBRANCH   5  17
BRANCH   8  24
ATOM     24  C   UNL     1       5.217   5.856  17.039  0.00  0.00    +0.000 A 
ATOM     25  C   UNL     1       6.257   5.397  17.859  0.00  0.00    +0.000 A 
ATOM     26  C   UNL     1       7.264   4.572  17.350  0.00  0.00    +0.000 A 
ATOM     27  C   UNL     1       7.229   4.165  16.017  0.00  0.00    +0.000 A 
ATOM     28  C   UNL     1       6.214   4.621  15.169  0.00  0.00    +0.000 A 
ATOM     29  C   UNL     1       5.252   5.510  15.679  0.00  0.00    +0.000 A 
BRANCH  28  30
ATOM     30  C   UNL     1       6.100   4.142  13.743  0.00  0.00    +0.000 C 
ATOM     31  F   UNL     1       7.004   4.718  12.901  0.00  0.00    +0.000 F 
ATOM     32  F   UNL     1       6.300   2.797  13.632  0.00  0.00    +0.000 F 
ATOM     33  F   UNL     1       4.876   4.385  13.201  0.00  0.00    +0.000 F 
ENDBRANCH  28  30
ENDBRANCH   8  24
TORSDOF 4
ENDMDL
MODEL 7
REMARK VINA RESULT:      -8.0      1.256      1.878
REMARK  Name = 
REMARK  5 active torsions:
REMARK  status: ('A' for Active; 'I' for Inactive)
REMARK    1  A    between atoms: C_1  and  C_2
REMARK    2  A    between atoms: C_7  and  N_8
REMARK    3  A    between atoms: C_12  and  C_14
REMARK    4  A    between atoms: C_21  and  C_22
REMARK    5  A    between atoms: C_26  and  C_27
REMARK                            x       y       z     vdW  Elec       q    Type
REMARK                         _______ _______ _______ _____ _____    ______ ____
ROOT
ATOM      1  N   UNL     1       3.014   6.149  17.949  0.00  0.00    +0.000 N 
ATOM      2  N   UNL     1       2.163   7.159  18.229  0.00  0.00    +0.000 NA
ATOM      3  C   UNL     1       2.770   8.274  17.865  0.00  0.00    +0.000 A 
ATOM      4  N   UNL     1       2.250   9.542  18.020  0.00  0.00    +0.000 N 
ATOM      5  C   UNL     1       1.005   9.827  18.551  0.00  0.00    +0.000 C 
ATOM      6  O   UNL     1       0.183   9.021  18.982  0.00  0.00    +0.000 OA
ATOM      7  C   UNL     1       4.016   7.996  17.274  0.00  0.00    +0.000 A 
ATOM      8  C   UNL     1       4.159   6.614  17.285  0.00  0.00    +0.000 A 
ATOM      9  H   UNL     1       2.853  10.294  17.721  0.00  0.00    +0.000 HD
ENDROOT
BRANCH   1  16
ATOM     10  C   UNL     1       4.614   4.699  20.031  0.00  0.00    +0.000 C 
ATOM     11  C   UNL     1       3.392   4.137  19.348  0.00  0.00    +0.000 A 
ATOM     12  C   UNL     1       2.907   2.894  19.792  0.00  0.00    +0.000 A 
ATOM     13  C   UNL     1       1.746   2.336  19.256  0.00  0.00    +0.000 A 
ATOM     14  C   UNL     1       1.076   2.984  18.225  0.00  0.00    +0.000 A 
ATOM     15  C   UNL     1       1.551   4.204  17.749  0.00  0.00    +0.000 A 
ATOM     16  C   UNL     1       2.670   4.817  18.340  0.00  0.00    +0.000 A 
ENDBRANCH   1  16
BRANCH   5  17
ATOM     17  C   UNL     1       0.655  11.314  18.592  0.00  0.00    +0.000 C 
ATOM     18  C   UNL     1      -0.838  11.542  18.719  0.00  0.00    +0.000 C 
ATOM     19  N   UNL     1      -1.032  11.662  20.135  0.00  0.00    +0.000 N 
ATOM     20  C   UNL     1       0.124  12.019  20.796  0.00  0.00    +0.000 C 
ATOM     21  O   UNL     1       0.201  12.245  21.989  0.00  0.00    +0.000 OA
ATOM     22  C   UNL     1       1.259  12.027  19.803  0.00  0.00    +0.000 C 
ATOM     23  H   UNL     1      -1.932  11.722  20.602  0.00  0.00    +0.000 HD
ENDBRANCH   5  17
BRANCH   8  24
ATOM     24  C   UNL     1       5.231   5.809  16.671  0.00  0.00    +0.000 A 
ATOM     25  C   UNL     1       6.348   5.433  17.430  0.00  0.00    +0.000 A 
ATOM     26  C   UNL     1       7.348   4.623  16.885  0.00  0.00    +0.000 A 
ATOM     27  C   UNL     1       7.231   4.145  15.581  0.00  0.00    +0.000 A 
ATOM     28  C   UNL     1       6.137   4.517  14.792  0.00  0.00    +0.000 A 
ATOM     29  C   UNL     1       5.179   5.393  15.331  0.00  0.00    +0.000 A 
BRANCH  28  30
ATOM     30  C   UNL     1       5.936   3.959  13.404  0.00  0.00    +0.000 C 
ATOM     31  F   UNL     1       6.204   2.627  13.309  0.00  0.00    +0.000 F 
ATOM     32  F   UNL     1       4.652   4.108  12.969  0.00  0.00    +0.000 F 
ATOM     33  F   UNL     1       6.721   4.567  12.473  0.00  0.00    +0.000 F 
ENDBRANCH  28  30
ENDBRANCH   8  24
TORSDOF 4
ENDMDL
MODEL 8
REMARK VINA RESULT:      -8.0      1.957      2.686
REMARK  Name = 
REMARK  5 active torsions:
REMARK  status: ('A' for Active; 'I' for Inactive)
REMARK    1  A    between atoms: C_1  and  C_2
REMARK    2  A    between atoms: C_7  and  N_8
REMARK    3  A    between atoms: C_12  and  C_14
REMARK    4  A    between atoms: C_21  and  C_22
REMARK    5  A    between atoms: C_26  and  C_27
REMARK                            x       y       z     vdW  Elec       q    Type
REMARK                         _______ _______ _______ _____ _____    ______ ____
ROOT
ATOM      1  N   UNL     1       2.145   6.921  18.250  0.00  0.00    +0.000 N 
ATOM      2  N   UNL     1       1.162   7.844  18.320  0.00  0.00    +0.000 NA
ATOM      3  C   UNL     1       1.697   8.992  17.948  0.00  0.00    +0.000 A 
ATOM      4  N   UNL     1       1.031  10.200  17.918  0.00  0.00    +0.000 N 
ATOM      5  C   UNL     1      -0.301  10.377  18.243  0.00  0.00    +0.000 C 
ATOM      6  O   UNL     1      -1.090   9.515  18.624  0.00  0.00    +0.000 OA
ATOM      7  C   UNL     1       3.039   8.818  17.563  0.00  0.00    +0.000 A 
ATOM      8  C   UNL     1       3.322   7.466  17.714  0.00  0.00    +0.000 A 
ATOM      9  H   UNL     1       1.591  10.993  17.641  0.00  0.00    +0.000 HD
ENDROOT
BRANCH   1  16
ATOM     10  C   UNL     1       1.715   6.349  21.163  0.00  0.00    +0.000 C 
ATOM     11  C   UNL     1       1.643   5.312  20.070  0.00  0.00    +0.000 A 
ATOM     12  C   UNL     1       1.244   4.012  20.424  0.00  0.00    +0.000 A 
ATOM     13  C   UNL     1       1.091   3.013  19.462  0.00  0.00    +0.000 A 
ATOM     14  C   UNL     1       1.389   3.279  18.132  0.00  0.00    +0.000 A 
ATOM     15  C   UNL     1       1.812   4.553  17.758  0.00  0.00    +0.000 A 
ATOM     16  C   UNL     1       1.887   5.589  18.704  0.00  0.00    +0.000 A 
ENDBRANCH   1  16
BRANCH   5  17
ATOM     17  C   UNL     1      -0.805  11.813  18.105  0.00  0.00    +0.000 C 
ATOM     18  C   UNL     1      -2.258  11.865  17.676  0.00  0.00    +0.000 C 
ATOM     19  N   UNL     1      -2.965  11.949  18.922  0.00  0.00    +0.000 N 
ATOM     20  C   UNL     1      -2.174  12.431  19.944  0.00  0.00    +0.000 C 
ATOM     21  O   UNL     1      -2.561  12.654  21.076  0.00  0.00    +0.000 OA
ATOM     22  C   UNL     1      -0.765  12.580  19.428  0.00  0.00    +0.000 C 
ATOM     23  H   UNL     1      -3.973  11.900  19.030  0.00  0.00    +0.000 HD
ENDBRANCH   5  17
BRANCH   8  24
ATOM     24  C   UNL     1       4.550   6.748  17.328  0.00  0.00    +0.000 A 
ATOM     25  C   UNL     1       4.760   6.386  15.990  0.00  0.00    +0.000 A 
ATOM     26  C   UNL     1       5.942   5.756  15.592  0.00  0.00    +0.000 A 
ATOM     27  C   UNL     1       6.951   5.507  16.522  0.00  0.00    +0.000 A 
ATOM     28  C   UNL     1       6.765   5.840  17.867  0.00  0.00    +0.000 A 
ATOM     29  C   UNL     1       5.540   6.405  18.263  0.00  0.00    +0.000 A 
BRANCH  28  30
ATOM     30  C   UNL     1       7.862   5.657  18.887  0.00  0.00    +0.000 C 
ATOM     31  F   UNL     1       8.680   4.600  18.622  0.00  0.00    +0.000 F 
ATOM     32  F   UNL     1       8.682   6.745  18.965  0.00  0.00    +0.000 F 
ATOM     33  F   UNL     1       7.385   5.457  20.145  0.00  0.00    +0.000 F 
ENDBRANCH  28  30
ENDBRANCH   8  24
TORSDOF 4
ENDMDL
MODEL 9
REMARK VINA RESULT:      -7.9      5.050      7.651
REMARK  Name = 
REMARK  5 active torsions:
REMARK  status: ('A' for Active; 'I' for Inactive)
REMARK    1  A    between atoms: C_1  and  C_2
REMARK    2  A    between atoms: C_7  and  N_8
REMARK    3  A    between atoms: C_12  and  C_14
REMARK    4  A    between atoms: C_21  and  C_22
REMARK    5  A    between atoms: C_26  and  C_27
REMARK                            x       y       z     vdW  Elec       q    Type
REMARK                         _______ _______ _______ _____ _____    ______ ____
ROOT
ATOM      1  N   UNL     1      -0.170  11.479  19.242  0.00  0.00    +0.000 N 
ATOM      2  N   UNL     1      -1.480  11.291  18.975  0.00  0.00    +0.000 NA
ATOM      3  C   UNL     1      -2.086  12.434  19.238  0.00  0.00    +0.000 A 
ATOM      4  N   UNL     1      -3.444  12.651  19.131  0.00  0.00    +0.000 N 
ATOM      5  C   UNL     1      -4.363  11.710  18.704  0.00  0.00    +0.000 C 
ATOM      6  O   UNL     1      -4.134  10.548  18.377  0.00  0.00    +0.000 OA
ATOM      7  C   UNL     1      -1.155  13.417  19.622  0.00  0.00    +0.000 A 
ATOM      8  C   UNL     1       0.096  12.814  19.583  0.00  0.00    +0.000 A 
ATOM      9  H   UNL     1      -3.756  13.572  19.400  0.00  0.00    +0.000 HD
ENDROOT
BRANCH   1  16
ATOM     10  C   UNL     1       0.281   9.680  21.598  0.00  0.00    +0.000 C 
ATOM     11  C   UNL     1       0.919   9.490  20.245  0.00  0.00    +0.000 A 
ATOM     12  C   UNL     1       1.693   8.334  20.042  0.00  0.00    +0.000 A 
ATOM     13  C   UNL     1       2.264   8.054  18.800  0.00  0.00    +0.000 A 
ATOM     14  C   UNL     1       2.119   8.953  17.750  0.00  0.00    +0.000 A 
ATOM     15  C   UNL     1       1.379  10.118  17.934  0.00  0.00    +0.000 A 
ATOM     16  C   UNL     1       0.728  10.369  19.154  0.00  0.00    +0.000 A 
ENDBRANCH   1  16
BRANCH   5  17
ATOM     17  C   UNL     1      -5.808  12.208  18.653  0.00  0.00    +0.000 C 
ATOM     18  C   UNL     1      -6.741  11.180  18.045  0.00  0.00    +0.000 C 
ATOM     19  N   UNL     1      -7.237  10.471  19.189  0.00  0.00    +0.000 N 
ATOM     20  C   UNL     1      -7.130  11.207  20.351  0.00  0.00    +0.000 C 
ATOM     21  O   UNL     1      -7.540  10.851  21.439  0.00  0.00    +0.000 OA
ATOM     22  C   UNL     1      -6.385  12.481  20.042  0.00  0.00    +0.000 C 
ATOM     23  H   UNL     1      -7.816   9.638  19.159  0.00  0.00    +0.000 HD
ENDBRANCH   5  17
BRANCH   8  24
ATOM     24  C   UNL     1       1.414  13.447  19.777  0.00  0.00    +0.000 A 
ATOM     25  C   UNL     1       2.105  13.269  20.984  0.00  0.00    +0.000 A 
ATOM     26  C   UNL     1       3.380  13.812  21.169  0.00  0.00    +0.000 A 
ATOM     27  C   UNL     1       3.999  14.514  20.136  0.00  0.00    +0.000 A 
ATOM     28  C   UNL     1       3.329  14.723  18.926  0.00  0.00    +0.000 A 
ATOM     29  C   UNL     1       2.018  14.235  18.785  0.00  0.00    +0.000 A 
BRANCH  28  30
ATOM     30  C   UNL     1       3.995  15.410  17.760  0.00  0.00    +0.000 C 
ATOM     31  F   UNL     1       5.164  14.821  17.378  0.00  0.00    +0.000 F 
ATOM     32  F   UNL     1       3.207  15.418  16.647  0.00  0.00    +0.000 F 
ATOM     33  F   UNL     1       4.297  16.711  18.016  0.00  0.00    +0.000 F 
ENDBRANCH  28  30
ENDBRANCH   8  24
TORSDOF 4
ENDMDL
