MODEL 1
REMARK VINA RESULT:      -7.5      0.000      0.000
REMARK  Name = 
REMARK  6 active torsions:
REMARK  status: ('A' for Active; 'I' for Inactive)
REMARK    1  A    between atoms: C_1  and  O_2
REMARK    2  A    between atoms: O_2  and  C_3
REMARK    3  A    between atoms: C_5  and  C_6
REMARK    4  A    between atoms: C_7  and  C_8
REMARK    5  A    between atoms: C_10  and  N_11
REMARK    6  A    between atoms: C_15  and  N_16
REMARK                            x       y       z     vdW  Elec       q    Type
REMARK                         _______ _______ _______ _____ _____    ______ ____
ROOT
ATOM      1  C   UNL     1      -0.043  10.940  20.331  0.00  0.00    +0.000 C 
ATOM      2  C   UNL     1      -0.312  10.704  21.807  0.00  0.00    +0.000 C 
ATOM      3  C   UNL     1       0.077   9.570  22.427  0.00  0.00    +0.000 C 
ATOM      4  O   UNL     1       0.712   8.537  21.756  0.00  0.00    +0.000 OA
ATOM      5  C   UNL     1       1.120   8.714  20.460  0.00  0.00    +0.000 A 
ATOM      6  C   UNL     1       1.908   7.692  19.923  0.00  0.00    +0.000 A 
ATOM      7  C   UNL     1       2.439   7.772  18.631  0.00  0.00    +0.000 A 
ATOM      8  C   UNL     1       2.102   8.905  17.881  0.00  0.00    +0.000 A 
ATOM      9  C   UNL     1       1.283   9.916  18.399  0.00  0.00    +0.000 A 
ATOM     10  C   UNL     1       0.804   9.844  19.716  0.00  0.00    +0.000 A 
ENDROOT
BRANCH   1  13
ATOM     11  C   UNL     1       2.417  13.922  20.238  0.00  0.00    +0.000 A 
ATOM     12  C   UNL     1       1.858  12.659  20.487  0.00  0.00    +0.000 A 
ATOM     13  C   UNL     1       0.545  12.331  20.067  0.00  0.00    +0.000 A 
ATOM     14  C   UNL     1      -0.212  13.293  19.378  0.00  0.00    +0.000 A 
ATOM     15  C   UNL     1       0.364  14.521  19.131  0.00  0.00    +0.000 A 
ATOM     16  C   UNL     1       1.640  14.835  19.548  0.00  0.00    +0.000 A 
ATOM     17  O   UNL     1       1.985  16.098  19.171  0.00  0.00    +0.000 OA
ATOM     18  C   UNL     1       0.833  16.505  18.420  0.00  0.00    +0.000 C 
ATOM     19  O   UNL     1      -0.231  15.537  18.448  0.00  0.00    +0.000 OA
BRANCH  11  21
ATOM     20  C   UNL     1       3.819  14.734  21.965  0.00  0.00    +0.000 C 
ATOM     21  O   UNL     1       3.691  14.098  20.698  0.00  0.00    +0.000 OA
ENDBRANCH  11  21
ENDBRANCH   1  13
BRANCH   7  22
ATOM     22  N   UNL     1       3.270   6.789  18.144  0.00  0.00    +0.000 N 
ATOM     23  C   UNL     1       3.440   5.485  18.798  0.00  0.00    +0.000 C 
ATOM     24  C   UNL     1       4.908   5.279  19.193  0.00  0.00    +0.000 C 
ATOM     25  O   UNL     1       5.790   5.461  18.072  0.00  0.00    +0.000 OA
ATOM     26  C   UNL     1       5.646   6.787  17.533  0.00  0.00    +0.000 C 
ATOM     27  C   UNL     1       4.212   7.052  17.046  0.00  0.00    +0.000 C 
ENDBRANCH   7  22
BRANCH   3  28
ATOM     28  N   UNL     1      -0.111   9.280  23.761  0.00  0.00    +0.000 N 
ATOM     29  H   UNL     1      -1.067   9.115  24.058  0.00  0.00    +0.000 HD
ATOM     30  H   UNL     1       0.553   8.593  24.105  0.00  0.00    +0.000 HD
ENDBRANCH   3  28
BRANCH   2  31
ATOM     31  C   UNL     1      -1.002  11.720  22.538  0.00  0.00    +0.000 C 
ATOM     32  N   UNL     1      -1.536  12.549  23.146  0.00  0.00    +0.000 NA
ENDBRANCH   2  31
TORSDOF 5
ENDMDL
MODEL 2
REMARK VINA RESULT:      -7.4      0.533      1.949
REMARK  Name = 
REMARK  6 active torsions:
REMARK  status: ('A' for Active; 'I' for Inactive)
REMARK    1  A    between atoms: C_1  and  O_2
REMARK    2  A    between atoms: O_2  and  C_3
REMARK    3  A    between atoms: C_5  and  C_6
REMARK    4  A    between atoms: C_7  and  C_8
REMARK    5  A    between atoms: C_10  and  N_11
REMARK    6  A    between atoms: C_15  and  N_16
REMARK                            x       y       z     vdW  Elec       q    Type
REMARK                         _______ _______ _______ _____ _____    ______ ____
ROOT
ATOM      1  C   UNL     1       0.070  10.982  20.277  0.00  0.00    +0.000 C 
ATOM      2  C   UNL     1      -0.222  10.768  21.752  0.00  0.00    +0.000 C 
ATOM      3  C   UNL     1       0.126   9.628  22.386  0.00  0.00    +0.000 C 
ATOM      4  O   UNL     1       0.736   8.571  21.731  0.00  0.00    +0.000 OA
ATOM      5  C   UNL     1       1.162   8.723  20.437  0.00  0.00    +0.000 A 
ATOM      6  C   UNL     1       1.924   7.672  19.917  0.00  0.00    +0.000 A 
ATOM      7  C   UNL     1       2.470   7.724  18.630  0.00  0.00    +0.000 A 
ATOM      8  C   UNL     1       2.175   8.859  17.867  0.00  0.00    +0.000 A 
ATOM      9  C   UNL     1       1.383   9.900  18.367  0.00  0.00    +0.000 A 
ATOM     10  C   UNL     1       0.888   9.855  19.680  0.00  0.00    +0.000 A 
ENDROOT
BRANCH   1  13
ATOM     11  C   UNL     1       0.533  14.636  19.103  0.00  0.00    +0.000 A 
ATOM     12  C   UNL     1      -0.025  13.372  19.343  0.00  0.00    +0.000 A 
ATOM     13  C   UNL     1       0.702  12.352  20.006  0.00  0.00    +0.000 A 
ATOM     14  C   UNL     1       2.012  12.618  20.440  0.00  0.00    +0.000 A 
ATOM     15  C   UNL     1       2.533  13.873  20.206  0.00  0.00    +0.000 A 
ATOM     16  C   UNL     1       1.822  14.858  19.556  0.00  0.00    +0.000 A 
ATOM     17  O   UNL     1       2.545  16.009  19.462  0.00  0.00    +0.000 OA
ATOM     18  C   UNL     1       3.738  15.664  20.180  0.00  0.00    +0.000 C 
ATOM     19  O   UNL     1       3.770  14.288  20.597  0.00  0.00    +0.000 OA
BRANCH  11  21
ATOM     20  C   UNL     1      -0.860  16.545  19.260  0.00  0.00    +0.000 C 
ATOM     21  O   UNL     1      -0.282  15.522  18.456  0.00  0.00    +0.000 OA
ENDBRANCH  11  21
ENDBRANCH   1  13
BRANCH   7  22
ATOM     22  N   UNL     1       3.275   6.711  18.161  0.00  0.00    +0.000 N 
ATOM     23  C   UNL     1       3.409   5.414  18.835  0.00  0.00    +0.000 C 
ATOM     24  C   UNL     1       4.871   5.175  19.237  0.00  0.00    +0.000 C 
ATOM     25  O   UNL     1       5.759   5.316  18.115  0.00  0.00    +0.000 OA
ATOM     26  C   UNL     1       5.652   6.636  17.556  0.00  0.00    +0.000 C 
ATOM     27  C   UNL     1       4.226   6.932  17.061  0.00  0.00    +0.000 C 
ENDBRANCH   7  22
BRANCH   3  28
ATOM     28  N   UNL     1      -0.083   9.356  23.720  0.00  0.00    +0.000 N 
ATOM     29  H   UNL     1      -0.635   8.531  23.933  0.00  0.00    +0.000 HD
ATOM     30  H   UNL     1       0.766   9.439  24.270  0.00  0.00    +0.000 HD
ENDBRANCH   3  28
BRANCH   2  31
ATOM     31  C   UNL     1      -0.887  11.812  22.467  0.00  0.00    +0.000 C 
ATOM     32  N   UNL     1      -1.400  12.670  23.050  0.00  0.00    +0.000 NA
ENDBRANCH   2  31
TORSDOF 5
ENDMDL
MODEL 3
REMARK VINA RESULT:      -6.9      0.831      2.255
REMARK  Name = 
REMARK  6 active torsions:
REMARK  status: ('A' for Active; 'I' for Inactive)
REMARK    1  A    between atoms: C_1  and  O_2
REMARK    2  A    between atoms: O_2  and  C_3
REMARK    3  A    between atoms: C_5  and  C_6
REMARK    4  A    between atoms: C_7  and  C_8
REMARK    5  A    between atoms: C_10  and  N_11
REMARK    6  A    between atoms: C_15  and  N_16
REMARK                            x       y       z     vdW  Elec       q    Type
REMARK                         _______ _______ _______ _____ _____    ______ ____
ROOT
ATOM      1  C   UNL     1       0.055  10.798  20.194  0.00  0.00    +0.000 C 
ATOM      2  C   UNL     1      -0.340  10.655  21.654  0.00  0.00    +0.000 C 
ATOM      3  C   UNL     1      -0.025   9.555  22.369  0.00  0.00    +0.000 C 
ATOM      4  O   UNL     1       0.643   8.475  21.815  0.00  0.00    +0.000 OA
ATOM      5  C   UNL     1       1.160   8.568  20.549  0.00  0.00    +0.000 A 
ATOM      6  C   UNL     1       1.970   7.504  20.140  0.00  0.00    +0.000 A 
ATOM      7  C   UNL     1       2.607   7.499  18.894  0.00  0.00    +0.000 A 
ATOM      8  C   UNL     1       2.354   8.589  18.054  0.00  0.00    +0.000 A 
ATOM      9  C   UNL     1       1.515   9.641  18.442  0.00  0.00    +0.000 A 
ATOM     10  C   UNL     1       0.928   9.656  19.716  0.00  0.00    +0.000 A 
ENDROOT
BRANCH   1  13
ATOM     11  C   UNL     1       0.526  14.426  18.942  0.00  0.00    +0.000 A 
ATOM     12  C   UNL     1      -0.033  13.167  19.205  0.00  0.00    +0.000 A 
ATOM     13  C   UNL     1       0.689  12.163  19.899  0.00  0.00    +0.000 A 
ATOM     14  C   UNL     1       1.994  12.440  20.338  0.00  0.00    +0.000 A 
ATOM     15  C   UNL     1       2.516  13.690  20.082  0.00  0.00    +0.000 A 
ATOM     16  C   UNL     1       1.810  14.659  19.402  0.00  0.00    +0.000 A 
ATOM     17  O   UNL     1       2.534  15.809  19.290  0.00  0.00    +0.000 OA
ATOM     18  C   UNL     1       3.720  15.481  20.027  0.00  0.00    +0.000 C 
ATOM     19  O   UNL     1       3.749  14.115  20.475  0.00  0.00    +0.000 OA
BRANCH  11  21
ATOM     20  C   UNL     1      -0.710  16.445  18.992  0.00  0.00    +0.000 C 
ATOM     21  O   UNL     1      -0.284  15.296  18.268  0.00  0.00    +0.000 OA
ENDBRANCH  11  21
ENDBRANCH   1  13
BRANCH   7  22
ATOM     22  N   UNL     1       3.456   6.477  18.537  0.00  0.00    +0.000 N 
ATOM     23  C   UNL     1       4.683   6.686  17.759  0.00  0.00    +0.000 C 
ATOM     24  C   UNL     1       4.620   5.889  16.449  0.00  0.00    +0.000 C 
ATOM     25  O   UNL     1       4.340   4.499  16.685  0.00  0.00    +0.000 OA
ATOM     26  C   UNL     1       3.082   4.353  17.367  0.00  0.00    +0.000 C 
ATOM     27  C   UNL     1       3.084   5.067  18.728  0.00  0.00    +0.000 C 
ENDBRANCH   7  22
BRANCH   3  28
ATOM     28  N   UNL     1      -0.327   9.348  23.697  0.00  0.00    +0.000 N 
ATOM     29  H   UNL     1      -1.290   9.107  23.910  0.00  0.00    +0.000 HD
ATOM     30  H   UNL     1       0.359   8.762  24.164  0.00  0.00    +0.000 HD
ENDBRANCH   3  28
BRANCH   2  31
ATOM     31  C   UNL     1      -1.068  11.724  22.264  0.00  0.00    +0.000 C 
ATOM     32  N   UNL     1      -1.667  12.570  22.779  0.00  0.00    +0.000 NA
ENDBRANCH   2  31
TORSDOF 5
ENDMDL
MODEL 4
REMARK VINA RESULT:      -6.9      0.617      1.124
REMARK  Name = 
REMARK  6 active torsions:
REMARK  status: ('A' for Active; 'I' for Inactive)
REMARK    1  A    between atoms: C_1  and  O_2
REMARK    2  A    between atoms: O_2  and  C_3
REMARK    3  A    between atoms: C_5  and  C_6
REMARK    4  A    between atoms: C_7  and  C_8
REMARK    5  A    between atoms: C_10  and  N_11
REMARK    6  A    between atoms: C_15  and  N_16
REMARK                            x       y       z     vdW  Elec       q    Type
REMARK                         _______ _______ _______ _____ _____    ______ ____
ROOT
ATOM      1  C   UNL     1      -0.069  10.773  20.260  0.00  0.00    +0.000 C 
ATOM      2  C   UNL     1      -0.443  10.579  21.719  0.00  0.00    +0.000 C 
ATOM      3  C   UNL     1      -0.071   9.478  22.406  0.00  0.00    +0.000 C 
ATOM      4  O   UNL     1       0.641   8.443  21.822  0.00  0.00    +0.000 OA
ATOM      5  C   UNL     1       1.141   8.588  20.554  0.00  0.00    +0.000 A 
ATOM      6  C   UNL     1       1.995   7.573  20.114  0.00  0.00    +0.000 A 
ATOM      7  C   UNL     1       2.620   7.626  18.863  0.00  0.00    +0.000 A 
ATOM      8  C   UNL     1       2.309   8.722  18.051  0.00  0.00    +0.000 A 
ATOM      9  C   UNL     1       1.427   9.725  18.470  0.00  0.00    +0.000 A 
ATOM     10  C   UNL     1       0.851   9.683  19.748  0.00  0.00    +0.000 A 
ENDROOT
BRANCH   1  13
ATOM     11  C   UNL     1       2.351  13.786  20.145  0.00  0.00    +0.000 A 
ATOM     12  C   UNL     1       1.811  12.516  20.399  0.00  0.00    +0.000 A 
ATOM     13  C   UNL     1       0.498  12.172  19.990  0.00  0.00    +0.000 A 
ATOM     14  C   UNL     1      -0.278  13.124  19.308  0.00  0.00    +0.000 A 
ATOM     15  C   UNL     1       0.281  14.360  19.057  0.00  0.00    +0.000 A 
ATOM     16  C   UNL     1       1.556  14.689  19.462  0.00  0.00    +0.000 A 
ATOM     17  O   UNL     1       1.882  15.957  19.082  0.00  0.00    +0.000 OA
ATOM     18  C   UNL     1       0.718  16.349  18.342  0.00  0.00    +0.000 C 
ATOM     19  O   UNL     1      -0.333  15.368  18.379  0.00  0.00    +0.000 OA
BRANCH  11  21
ATOM     20  C   UNL     1       3.758  14.618  21.859  0.00  0.00    +0.000 C 
ATOM     21  O   UNL     1       3.627  13.979  20.594  0.00  0.00    +0.000 OA
ENDBRANCH  11  21
ENDBRANCH   1  13
BRANCH   7  22
ATOM     22  N   UNL     1       3.512   6.652  18.476  0.00  0.00    +0.000 N 
ATOM     23  C   UNL     1       4.701   6.930  17.660  0.00  0.00    +0.000 C 
ATOM     24  C   UNL     1       4.641   6.134  16.349  0.00  0.00    +0.000 C 
ATOM     25  O   UNL     1       4.444   4.731  16.589  0.00  0.00    +0.000 OA
ATOM     26  C   UNL     1       3.218   4.514  17.309  0.00  0.00    +0.000 C 
ATOM     27  C   UNL     1       3.224   5.224  18.673  0.00  0.00    +0.000 C 
ENDBRANCH   7  22
BRANCH   3  28
ATOM     28  N   UNL     1      -0.351   9.228  23.732  0.00  0.00    +0.000 N 
ATOM     29  H   UNL     1       0.444   9.185  24.362  0.00  0.00    +0.000 HD
ATOM     30  H   UNL     1      -1.123   9.789  24.077  0.00  0.00    +0.000 HD
ENDBRANCH   3  28
BRANCH   2  31
ATOM     31  C   UNL     1      -1.214  11.598  22.360  0.00  0.00    +0.000 C 
ATOM     32  N   UNL     1      -1.817  12.443  22.873  0.00  0.00    +0.000 NA
ENDBRANCH   2  31
TORSDOF 5
ENDMDL
MODEL 5
REMARK VINA RESULT:      -6.6      1.271      1.341
REMARK  Name = 
REMARK  6 active torsions:
REMARK  status: ('A' for Active; 'I' for Inactive)
REMARK    1  A    between atoms: C_1  and  O_2
REMARK    2  A    between atoms: O_2  and  C_3
REMARK    3  A    between atoms: C_5  and  C_6
REMARK    4  A    between atoms: C_7  and  C_8
REMARK    5  A    between atoms: C_10  and  N_11
REMARK    6  A    between atoms: C_15  and  N_16
REMARK                            x       y       z     vdW  Elec       q    Type
REMARK                         _______ _______ _______ _____ _____    ______ ____
ROOT
ATOM      1  C   UNL     1       0.489  11.001  20.089  0.00  0.00    +0.000 C 
ATOM      2  C   UNL     1      -0.024  10.839  21.509  0.00  0.00    +0.000 C 
ATOM      3  C   UNL     1       0.041   9.656  22.156  0.00  0.00    +0.000 C 
ATOM      4  O   UNL     1       0.542   8.510  21.560  0.00  0.00    +0.000 OA
ATOM      5  C   UNL     1       1.152   8.589  20.335  0.00  0.00    +0.000 A 
ATOM      6  C   UNL     1       1.786   7.424  19.892  0.00  0.00    +0.000 A 
ATOM      7  C   UNL     1       2.496   7.383  18.687  0.00  0.00    +0.000 A 
ATOM      8  C   UNL     1       2.499   8.553  17.919  0.00  0.00    +0.000 A 
ATOM      9  C   UNL     1       1.837   9.713  18.338  0.00  0.00    +0.000 A 
ATOM     10  C   UNL     1       1.175   9.752  19.575  0.00  0.00    +0.000 A 
ENDROOT
BRANCH   1  13
ATOM     11  C   UNL     1       2.922  13.893  20.907  0.00  0.00    +0.000 A 
ATOM     12  C   UNL     1       2.094  12.768  21.036  0.00  0.00    +0.000 A 
ATOM     13  C   UNL     1       1.375  12.244  19.933  0.00  0.00    +0.000 A 
ATOM     14  C   UNL     1       1.499  12.864  18.678  0.00  0.00    +0.000 A 
ATOM     15  C   UNL     1       2.331  13.959  18.573  0.00  0.00    +0.000 A 
ATOM     16  C   UNL     1       3.023  14.466  19.651  0.00  0.00    +0.000 A 
ATOM     17  O   UNL     1       3.786  15.536  19.288  0.00  0.00    +0.000 OA
ATOM     18  C   UNL     1       3.555  15.594  17.874  0.00  0.00    +0.000 C 
ATOM     19  O   UNL     1       2.578  14.640  17.420  0.00  0.00    +0.000 OA
BRANCH  11  21
ATOM     20  C   UNL     1       4.946  13.989  22.132  0.00  0.00    +0.000 C 
ATOM     21  O   UNL     1       3.556  14.287  22.051  0.00  0.00    +0.000 OA
ENDBRANCH  11  21
ENDBRANCH   1  13
BRANCH   7  22
ATOM     22  N   UNL     1       3.172   6.248  18.301  0.00  0.00    +0.000 N 
ATOM     23  C   UNL     1       2.622   4.895  18.452  0.00  0.00    +0.000 C 
ATOM     24  C   UNL     1       3.534   4.050  19.350  0.00  0.00    +0.000 C 
ATOM     25  O   UNL     1       4.892   4.051  18.878  0.00  0.00    +0.000 OA
ATOM     26  C   UNL     1       5.407   5.393  18.842  0.00  0.00    +0.000 C 
ATOM     27  C   UNL     1       4.587   6.294  17.904  0.00  0.00    +0.000 C 
ENDBRANCH   7  22
BRANCH   3  28
ATOM     28  N   UNL     1      -0.384   9.423  23.445  0.00  0.00    +0.000 N 
ATOM     29  H   UNL     1      -0.206   8.496  23.820  0.00  0.00    +0.000 HD
ATOM     30  H   UNL     1      -0.137  10.178  24.077  0.00  0.00    +0.000 HD
ENDBRANCH   3  28
BRANCH   2  31
ATOM     31  C   UNL     1      -0.590  11.981  22.157  0.00  0.00    +0.000 C 
ATOM     32  N   UNL     1      -1.075  12.897  22.674  0.00  0.00    +0.000 NA
ENDBRANCH   2  31
TORSDOF 5
ENDMDL
MODEL 6
REMARK VINA RESULT:      -6.4      1.360      1.675
REMARK  Name = 
REMARK  6 active torsions:
REMARK  status: ('A' for Active; 'I' for Inactive)
REMARK    1  A    between atoms: C_1  and  O_2
REMARK    2  A    between atoms: O_2  and  C_3
REMARK    3  A    between atoms: C_5  and  C_6
REMARK    4  A    between atoms: C_7  and  C_8
REMARK    5  A    between atoms: C_10  and  N_11
REMARK    6  A    between atoms: C_15  and  N_16
REMARK                            x       y       z     vdW  Elec       q    Type
REMARK                         _______ _______ _______ _____ _____    ______ ____
ROOT
ATOM      1  C   UNL     1       0.396  10.830  20.053  0.00  0.00    +0.000 C 
ATOM      2  C   UNL     1      -0.204  10.741  21.446  0.00  0.00    +0.000 C 
ATOM      3  C   UNL     1      -0.161   9.599  22.164  0.00  0.00    +0.000 C 
ATOM      4  O   UNL     1       0.396   8.431  21.670  0.00  0.00    +0.000 OA
ATOM      5  C   UNL     1       1.082   8.450  20.483  0.00  0.00    +0.000 A 
ATOM      6  C   UNL     1       1.761   7.274  20.151  0.00  0.00    +0.000 A 
ATOM      7  C   UNL     1       2.547   7.177  18.997  0.00  0.00    +0.000 A 
ATOM      8  C   UNL     1       2.580   8.300  18.163  0.00  0.00    +0.000 A 
ATOM      9  C   UNL     1       1.873   9.469  18.470  0.00  0.00    +0.000 A 
ATOM     10  C   UNL     1       1.134   9.567  19.658  0.00  0.00    +0.000 A 
ENDROOT
BRANCH   1  13
ATOM     11  C   UNL     1       2.776  13.775  20.835  0.00  0.00    +0.000 A 
ATOM     12  C   UNL     1       1.960  12.643  20.980  0.00  0.00    +0.000 A 
ATOM     13  C   UNL     1       1.269  12.079  19.879  0.00  0.00    +0.000 A 
ATOM     14  C   UNL     1       1.411  12.664  18.610  0.00  0.00    +0.000 A 
ATOM     15  C   UNL     1       2.231  13.766  18.489  0.00  0.00    +0.000 A 
ATOM     16  C   UNL     1       2.896  14.313  19.565  0.00  0.00    +0.000 A 
ATOM     17  O   UNL     1       3.652  15.382  19.187  0.00  0.00    +0.000 OA
ATOM     18  C   UNL     1       3.449  15.396  17.768  0.00  0.00    +0.000 C 
ATOM     19  O   UNL     1       2.493  14.418  17.322  0.00  0.00    +0.000 OA
BRANCH  11  21
ATOM     20  C   UNL     1       4.795  14.040  22.044  0.00  0.00    +0.000 C 
ATOM     21  O   UNL     1       3.383  14.209  21.980  0.00  0.00    +0.000 OA
ENDBRANCH  11  21
ENDBRANCH   1  13
BRANCH   7  22
ATOM     22  N   UNL     1       3.264   6.035  18.723  0.00  0.00    +0.000 N 
ATOM     23  C   UNL     1       4.584   6.051  18.078  0.00  0.00    +0.000 C 
ATOM     24  C   UNL     1       4.539   5.262  16.763  0.00  0.00    +0.000 C 
ATOM     25  O   UNL     1       4.028   3.932  16.958  0.00  0.00    +0.000 OA
ATOM     26  C   UNL     1       2.699   3.983  17.503  0.00  0.00    +0.000 C 
ATOM     27  C   UNL     1       2.666   4.699  18.863  0.00  0.00    +0.000 C 
ENDBRANCH   7  22
BRANCH   3  28
ATOM     28  N   UNL     1      -0.662   9.433  23.436  0.00  0.00    +0.000 N 
ATOM     29  H   UNL     1      -0.159   8.791  24.041  0.00  0.00    +0.000 HD
ATOM     30  H   UNL     1      -0.901  10.316  23.877  0.00  0.00    +0.000 HD
ENDBRANCH   3  28
BRANCH   2  31
ATOM     31  C   UNL     1      -0.828  11.907  21.988  0.00  0.00    +0.000 C 
ATOM     32  N   UNL     1      -1.359  12.836  22.429  0.00  0.00    +0.000 NA
ENDBRANCH   2  31
TORSDOF 5
ENDMDL
MODEL 7
REMARK VINA RESULT:      -6.3      7.300     10.299
REMARK  Name = 
REMARK  6 active torsions:
REMARK  status: ('A' for Active; 'I' for Inactive)
REMARK    1  A    between atoms: C_1  and  O_2
REMARK    2  A    between atoms: O_2  and  C_3
REMARK    3  A    between atoms: C_5  and  C_6
REMARK    4  A    between atoms: C_7  and  C_8
REMARK    5  A    between atoms: C_10  and  N_11
REMARK    6  A    between atoms: C_15  and  N_16
REMARK                            x       y       z     vdW  Elec       q    Type
REMARK                         _______ _______ _______ _____ _____    ______ ____
ROOT
ATOM      1  C   UNL     1      10.605  13.466  20.506  0.00  0.00    +0.000 C 
ATOM      2  C   UNL     1      10.333  12.162  19.775  0.00  0.00    +0.000 C 
ATOM      3  C   UNL     1       9.556  11.197  20.312  0.00  0.00    +0.000 C 
ATOM      4  O   UNL     1       8.988  11.315  21.570  0.00  0.00    +0.000 OA
ATOM      5  C   UNL     1       9.062  12.506  22.244  0.00  0.00    +0.000 A 
ATOM      6  C   UNL     1       8.310  12.591  23.420  0.00  0.00    +0.000 A 
ATOM      7  C   UNL     1       8.251  13.769  24.173  0.00  0.00    +0.000 A 
ATOM      8  C   UNL     1       9.021  14.845  23.720  0.00  0.00    +0.000 A 
ATOM      9  C   UNL     1       9.805  14.757  22.563  0.00  0.00    +0.000 A 
ATOM     10  C   UNL     1       9.811  13.586  21.790  0.00  0.00    +0.000 A 
ENDROOT
BRANCH   1  13
ATOM     11  C   UNL     1       8.930  16.147  18.280  0.00  0.00    +0.000 A 
ATOM     12  C   UNL     1       9.128  15.024  19.096  0.00  0.00    +0.000 A 
ATOM     13  C   UNL     1      10.410  14.687  19.598  0.00  0.00    +0.000 A 
ATOM     14  C   UNL     1      11.508  15.502  19.274  0.00  0.00    +0.000 A 
ATOM     15  C   UNL     1      11.285  16.609  18.483  0.00  0.00    +0.000 A 
ATOM     16  C   UNL     1      10.037  16.928  17.994  0.00  0.00    +0.000 A 
ATOM     17  O   UNL     1      10.074  18.072  17.254  0.00  0.00    +0.000 OA
ATOM     18  C   UNL     1      11.446  18.467  17.395  0.00  0.00    +0.000 C 
ATOM     19  O   UNL     1      12.240  17.507  18.115  0.00  0.00    +0.000 OA
BRANCH  11  21
ATOM     20  C   UNL     1       6.644  15.582  18.530  0.00  0.00    +0.000 C 
ATOM     21  O   UNL     1       7.643  16.353  17.870  0.00  0.00    +0.000 OA
ENDBRANCH  11  21
ENDBRANCH   1  13
BRANCH   7  22
ATOM     22  N   UNL     1       7.451  13.855  25.290  0.00  0.00    +0.000 N 
ATOM     23  C   UNL     1       6.976  12.679  26.031  0.00  0.00    +0.000 C 
ATOM     24  C   UNL     1       5.442  12.642  26.036  0.00  0.00    +0.000 C 
ATOM     25  O   UNL     1       4.882  13.873  26.524  0.00  0.00    +0.000 OA
ATOM     26  C   UNL     1       5.307  14.975  25.703  0.00  0.00    +0.000 C 
ATOM     27  C   UNL     1       6.837  15.127  25.699  0.00  0.00    +0.000 C 
ENDBRANCH   7  22
BRANCH   3  28
ATOM     28  N   UNL     1       9.244   9.995  19.716  0.00  0.00    +0.000 N 
ATOM     29  H   UNL     1       9.982   9.551  19.179  0.00  0.00    +0.000 HD
ATOM     30  H   UNL     1       8.755   9.366  20.346  0.00  0.00    +0.000 HD
ENDBRANCH   3  28
BRANCH   2  31
ATOM     31  C   UNL     1      10.929  11.971  18.491  0.00  0.00    +0.000 C 
ATOM     32  N   UNL     1      11.386  11.817  17.438  0.00  0.00    +0.000 NA
ENDBRANCH   2  31
TORSDOF 5
ENDMDL
MODEL 8
REMARK VINA RESULT:      -6.3      7.132      9.993
REMARK  Name = 
REMARK  6 active torsions:
REMARK  status: ('A' for Active; 'I' for Inactive)
REMARK    1  A    between atoms: C_1  and  O_2
REMARK    2  A    between atoms: O_2  and  C_3
REMARK    3  A    between atoms: C_5  and  C_6
REMARK    4  A    between atoms: C_7  and  C_8
REMARK    5  A    between atoms: C_10  and  N_11
REMARK    6  A    between atoms: C_15  and  N_16
REMARK                            x       y       z     vdW  Elec       q    Type
REMARK                         _______ _______ _______ _____ _____    ______ ____
ROOT
ATOM      1  C   UNL     1      10.351  13.122  20.510  0.00  0.00    +0.000 C 
ATOM      2  C   UNL     1      10.246  11.872  19.654  0.00  0.00    +0.000 C 
ATOM      3  C   UNL     1       9.493  10.816  20.029  0.00  0.00    +0.000 C 
ATOM      4  O   UNL     1       8.798  10.788  21.227  0.00  0.00    +0.000 OA
ATOM      5  C   UNL     1       8.721  11.919  21.999  0.00  0.00    +0.000 A 
ATOM      6  C   UNL     1       7.855  11.853  23.094  0.00  0.00    +0.000 A 
ATOM      7  C   UNL     1       7.637  12.954  23.929  0.00  0.00    +0.000 A 
ATOM      8  C   UNL     1       8.368  14.113  23.645  0.00  0.00    +0.000 A 
ATOM      9  C   UNL     1       9.265  14.176  22.572  0.00  0.00    +0.000 A 
ATOM     10  C   UNL     1       9.430  13.079  21.712  0.00  0.00    +0.000 A 
ENDROOT
BRANCH   1  13
ATOM     11  C   UNL     1       8.706  15.884  18.361  0.00  0.00    +0.000 A 
ATOM     12  C   UNL     1       8.904  14.708  19.101  0.00  0.00    +0.000 A 
ATOM     13  C   UNL     1      10.157  14.402  19.688  0.00  0.00    +0.000 A 
ATOM     14  C   UNL     1      11.225  15.302  19.530  0.00  0.00    +0.000 A 
ATOM     15  C   UNL     1      11.001  16.458  18.811  0.00  0.00    +0.000 A 
ATOM     16  C   UNL     1       9.781  16.746  18.239  0.00  0.00    +0.000 A 
ATOM     17  O   UNL     1       9.809  17.948  17.598  0.00  0.00    +0.000 OA
ATOM     18  C   UNL     1      11.136  18.406  17.892  0.00  0.00    +0.000 C 
ATOM     19  O   UNL     1      11.925  17.436  18.603  0.00  0.00    +0.000 OA
BRANCH  11  21
ATOM     20  C   UNL     1       6.419  16.312  18.804  0.00  0.00    +0.000 C 
ATOM     21  O   UNL     1       7.448  16.050  17.855  0.00  0.00    +0.000 OA
ENDBRANCH  11  21
ENDBRANCH   1  13
BRANCH   7  22
ATOM     22  N   UNL     1       6.729  12.892  24.961  0.00  0.00    +0.000 N 
ATOM     23  C   UNL     1       6.271  14.075  25.701  0.00  0.00    +0.000 C 
ATOM     24  C   UNL     1       6.618  13.934  27.189  0.00  0.00    +0.000 C 
ATOM     25  O   UNL     1       6.115  12.704  27.738  0.00  0.00    +0.000 OA
ATOM     26  C   UNL     1       6.671  11.580  27.034  0.00  0.00    +0.000 C 
ATOM     27  C   UNL     1       6.309  11.606  25.540  0.00  0.00    +0.000 C 
ENDBRANCH   7  22
BRANCH   3  28
ATOM     28  N   UNL     1       9.327   9.653  19.310  0.00  0.00    +0.000 N 
ATOM     29  H   UNL     1      10.173   9.145  19.069  0.00  0.00    +0.000 HD
ATOM     30  H   UNL     1       8.587   9.068  19.685  0.00  0.00    +0.000 HD
ENDBRANCH   3  28
BRANCH   2  31
ATOM     31  C   UNL     1      10.976  11.831  18.426  0.00  0.00    +0.000 C 
ATOM     32  N   UNL     1      11.582  11.822  17.439  0.00  0.00    +0.000 NA
ENDBRANCH   2  31
TORSDOF 5
ENDMDL
MODEL 9
REMARK VINA RESULT:      -6.3      3.875      7.765
REMARK  Name = 
REMARK  6 active torsions:
REMARK  status: ('A' for Active; 'I' for Inactive)
REMARK    1  A    between atoms: C_1  and  O_2
REMARK    2  A    between atoms: O_2  and  C_3
REMARK    3  A    between atoms: C_5  and  C_6
REMARK    4  A    between atoms: C_7  and  C_8
REMARK    5  A    between atoms: C_10  and  N_11
REMARK    6  A    between atoms: C_15  and  N_16
REMARK                            x       y       z     vdW  Elec       q    Type
REMARK                         _______ _______ _______ _____ _____    ______ ____
ROOT
ATOM      1  C   UNL     1       0.014  11.814  18.441  0.00  0.00    +0.000 C 
ATOM      2  C   UNL     1       0.552  12.999  19.225  0.00  0.00    +0.000 C 
ATOM      3  C   UNL     1      -0.271  13.877  19.837  0.00  0.00    +0.000 C 
ATOM      4  O   UNL     1      -1.651  13.778  19.762  0.00  0.00    +0.000 OA
ATOM      5  C   UNL     1      -2.227  12.671  19.196  0.00  0.00    +0.000 A 
ATOM      6  C   UNL     1      -3.615  12.571  19.325  0.00  0.00    +0.000 A 
ATOM      7  C   UNL     1      -4.322  11.463  18.844  0.00  0.00    +0.000 A 
ATOM      8  C   UNL     1      -3.578  10.481  18.182  0.00  0.00    +0.000 A 
ATOM      9  C   UNL     1      -2.192  10.591  18.017  0.00  0.00    +0.000 A 
ATOM     10  C   UNL     1      -1.492  11.682  18.553  0.00  0.00    +0.000 A 
ENDROOT
BRANCH   1  13
ATOM     11  C   UNL     1       1.215   8.726  20.433  0.00  0.00    +0.000 A 
ATOM     12  C   UNL     1       0.581   9.929  20.090  0.00  0.00    +0.000 A 
ATOM     13  C   UNL     1       0.730  10.508  18.805  0.00  0.00    +0.000 A 
ATOM     14  C   UNL     1       1.527   9.856  17.850  0.00  0.00    +0.000 A 
ATOM     15  C   UNL     1       2.128   8.666  18.206  0.00  0.00    +0.000 A 
ATOM     16  C   UNL     1       1.983   8.112  19.459  0.00  0.00    +0.000 A 
ATOM     17  O   UNL     1       2.658   6.933  19.558  0.00  0.00    +0.000 OA
ATOM     18  C   UNL     1       3.170   6.776  18.228  0.00  0.00    +0.000 C 
ATOM     19  O   UNL     1       2.898   7.906  17.380  0.00  0.00    +0.000 OA
BRANCH  11  21
ATOM     20  C   UNL     1       0.998   9.274  22.727  0.00  0.00    +0.000 C 
ATOM     21  O   UNL     1       0.981   8.283  21.705  0.00  0.00    +0.000 OA
ENDBRANCH  11  21
ENDBRANCH   1  13
BRANCH   7  22
ATOM     22  N   UNL     1      -5.680  11.350  19.041  0.00  0.00    +0.000 N 
ATOM     23  C   UNL     1      -6.447  12.265  19.896  0.00  0.00    +0.000 C 
ATOM     24  C   UNL     1      -7.123  11.485  21.032  0.00  0.00    +0.000 C 
ATOM     25  O   UNL     1      -7.914  10.395  20.530  0.00  0.00    +0.000 OA
ATOM     26  C   UNL     1      -7.091   9.484  19.781  0.00  0.00    +0.000 C 
ATOM     27  C   UNL     1      -6.428  10.172  18.576  0.00  0.00    +0.000 C 
ENDBRANCH   7  22
BRANCH   3  28
ATOM     28  N   UNL     1       0.129  14.966  20.580  0.00  0.00    +0.000 N 
ATOM     29  H   UNL     1       0.826  14.793  21.298  0.00  0.00    +0.000 HD
ATOM     30  H   UNL     1       0.321  15.779  20.003  0.00  0.00    +0.000 HD
ENDBRANCH   3  28
BRANCH   2  31
ATOM     31  C   UNL     1       1.969  13.171  19.300  0.00  0.00    +0.000 C 
ATOM     32  N   UNL     1       3.113  13.335  19.376  0.00  0.00    +0.000 NA
ENDBRANCH   2  31
TORSDOF 5
ENDMDL
