MODEL 1
REMARK VINA RESULT:      -7.8      0.000      0.000
REMARK  Name = 
REMARK  4 active torsions:
REMARK  status: ('A' for Active; 'I' for Inactive)
REMARK    1  A    between atoms: C_1  and  C_2
REMARK    2  A    between atoms: C_2  and  C_3
REMARK    3  A    between atoms: C_8  and  N_9
REMARK    4  A    between atoms: N_9  and  C_10
REMARK                            x       y       z     vdW  Elec       q    Type
REMARK                         _______ _______ _______ _____ _____    ______ ____
ROOT
ATOM      1  C   UNL     1       2.205   6.910  19.422  0.00  0.00    +0.000 C 
ATOM      2  C   UNL     1       3.241   6.174  18.553  0.00  0.00    +0.000 C 
ATOM      3  C   UNL     1       2.527   5.009  17.835  0.00  0.00    +0.000 C 
ATOM      4  C   UNL     1       3.821   7.169  17.539  0.00  0.00    +0.000 C 
ATOM      5  C   UNL     1       4.927   6.576  16.697  0.00  0.00    +0.000 C 
ATOM      6  O   UNL     1       5.113   6.974  15.545  0.00  0.00    +0.000 OA
ATOM      7  C   UNL     1       5.803   5.554  17.335  0.00  0.00    +0.000 C 
ATOM      8  C   UNL     1       6.897   5.099  16.692  0.00  0.00    +0.000 C 
ATOM      9  C   UNL     1       5.522   5.039  18.701  0.00  0.00    +0.000 C 
ATOM     10  O   UNL     1       6.237   4.191  19.239  0.00  0.00    +0.000 OA
ATOM     11  C   UNL     1       4.364   5.649  19.462  0.00  0.00    +0.000 C 
ENDROOT
BRANCH   8  12
ATOM     12  N   UNL     1       7.348   5.446  15.446  0.00  0.00    +0.000 N 
ATOM     13  H   UNL     1       7.915   6.300  15.400  0.00  0.00    +0.000 HD
BRANCH  12  14
ATOM     14  C   UNL     1       7.067   4.833  14.219  0.00  0.00    +0.000 A 
ATOM     15  C   UNL     1       7.797   5.232  13.092  0.00  0.00    +0.000 A 
ATOM     16  C   UNL     1       7.540   4.678  11.837  0.00  0.00    +0.000 A 
ATOM     17  C   UNL     1       6.546   3.715  11.696  0.00  0.00    +0.000 A 
ATOM     18  C   UNL     1       5.805   3.313  12.806  0.00  0.00    +0.000 A 
ATOM     19  C   UNL     1       6.055   3.885  14.055  0.00  0.00    +0.000 A 
ENDBRANCH  12  14
ENDBRANCH   8  12
TORSDOF 2
ENDMDL
MODEL 2
REMARK VINA RESULT:      -7.7      2.431      3.585
REMARK  Name = 
REMARK  4 active torsions:
REMARK  status: ('A' for Active; 'I' for Inactive)
REMARK    1  A    between atoms: C_1  and  C_2
REMARK    2  A    between atoms: C_2  and  C_3
REMARK    3  A    between atoms: C_8  and  N_9
REMARK    4  A    between atoms: N_9  and  C_10
REMARK                            x       y       z     vdW  Elec       q    Type
REMARK                         _______ _______ _______ _____ _____    ______ ____
ROOT
ATOM      1  C   UNL     1       1.490   2.655  21.738  0.00  0.00    +0.000 C 
ATOM      2  C   UNL     1       2.127   3.399  20.551  0.00  0.00    +0.000 C 
ATOM      3  C   UNL     1       2.186   4.901  20.900  0.00  0.00    +0.000 C 
ATOM      4  C   UNL     1       3.535   2.834  20.320  0.00  0.00    +0.000 C 
ATOM      5  C   UNL     1       4.217   3.425  19.109  0.00  0.00    +0.000 C 
ATOM      6  O   UNL     1       5.444   3.537  19.078  0.00  0.00    +0.000 OA
ATOM      7  C   UNL     1       3.357   3.800  17.951  0.00  0.00    +0.000 C 
ATOM      8  C   UNL     1       3.915   4.189  16.787  0.00  0.00    +0.000 C 
ATOM      9  C   UNL     1       1.875   3.720  18.031  0.00  0.00    +0.000 C 
ATOM     10  O   UNL     1       1.152   4.030  17.082  0.00  0.00    +0.000 OA
ATOM     11  C   UNL     1       1.265   3.163  19.300  0.00  0.00    +0.000 C 
ENDROOT
BRANCH   8  12
ATOM     12  N   UNL     1       5.246   4.317  16.491  0.00  0.00    +0.000 N 
ATOM     13  H   UNL     1       5.869   4.452  17.294  0.00  0.00    +0.000 HD
BRANCH  12  14
ATOM     14  C   UNL     1       5.855   4.368  15.231  0.00  0.00    +0.000 A 
ATOM     15  C   UNL     1       5.288   3.627  14.187  0.00  0.00    +0.000 A 
ATOM     16  C   UNL     1       5.869   3.616  12.918  0.00  0.00    +0.000 A 
ATOM     17  C   UNL     1       7.027   4.349  12.680  0.00  0.00    +0.000 A 
ATOM     18  C   UNL     1       7.609   5.085  13.711  0.00  0.00    +0.000 A 
ATOM     19  C   UNL     1       7.033   5.077  14.983  0.00  0.00    +0.000 A 
ENDBRANCH  12  14
ENDBRANCH   8  12
TORSDOF 2
ENDMDL
MODEL 3
REMARK VINA RESULT:      -7.6      2.504      3.544
REMARK  Name = 
REMARK  4 active torsions:
REMARK  status: ('A' for Active; 'I' for Inactive)
REMARK    1  A    between atoms: C_1  and  C_2
REMARK    2  A    between atoms: C_2  and  C_3
REMARK    3  A    between atoms: C_8  and  N_9
REMARK    4  A    between atoms: N_9  and  C_10
REMARK                            x       y       z     vdW  Elec       q    Type
REMARK                         _______ _______ _______ _____ _____    ______ ____
ROOT
ATOM      1  C   UNL     1       1.421   2.488  21.760  0.00  0.00    +0.000 C 
ATOM      2  C   UNL     1       2.051   3.279  20.599  0.00  0.00    +0.000 C 
ATOM      3  C   UNL     1       2.089   4.770  20.998  0.00  0.00    +0.000 C 
ATOM      4  C   UNL     1       3.468   2.742  20.356  0.00  0.00    +0.000 C 
ATOM      5  C   UNL     1       4.146   3.381  19.167  0.00  0.00    +0.000 C 
ATOM      6  O   UNL     1       5.372   3.512  19.145  0.00  0.00    +0.000 OA
ATOM      7  C   UNL     1       3.285   3.781  18.019  0.00  0.00    +0.000 C 
ATOM      8  C   UNL     1       3.841   4.215  16.870  0.00  0.00    +0.000 C 
ATOM      9  C   UNL     1       1.803   3.678  18.091  0.00  0.00    +0.000 C 
ATOM     10  O   UNL     1       1.079   4.008  17.149  0.00  0.00    +0.000 OA
ATOM     11  C   UNL     1       1.197   3.072  19.338  0.00  0.00    +0.000 C 
ENDROOT
BRANCH   8  12
ATOM     12  N   UNL     1       5.171   4.371  16.584  0.00  0.00    +0.000 N 
ATOM     13  H   UNL     1       5.776   4.590  17.383  0.00  0.00    +0.000 HD
BRANCH  12  14
ATOM     14  C   UNL     1       5.799   4.352  15.332  0.00  0.00    +0.000 A 
ATOM     15  C   UNL     1       6.949   5.130  15.151  0.00  0.00    +0.000 A 
ATOM     16  C   UNL     1       7.599   5.173  13.916  0.00  0.00    +0.000 A 
ATOM     17  C   UNL     1       7.103   4.435  12.847  0.00  0.00    +0.000 A 
ATOM     18  C   UNL     1       5.955   3.663  13.008  0.00  0.00    +0.000 A 
ATOM     19  C   UNL     1       5.299   3.638  14.240  0.00  0.00    +0.000 A 
ENDBRANCH  12  14
ENDBRANCH   8  12
TORSDOF 2
ENDMDL
MODEL 4
REMARK VINA RESULT:      -7.6      3.323      4.833
REMARK  Name = 
REMARK  4 active torsions:
REMARK  status: ('A' for Active; 'I' for Inactive)
REMARK    1  A    between atoms: C_1  and  C_2
REMARK    2  A    between atoms: C_2  and  C_3
REMARK    3  A    between atoms: C_8  and  N_9
REMARK    4  A    between atoms: N_9  and  C_10
REMARK                            x       y       z     vdW  Elec       q    Type
REMARK                         _______ _______ _______ _____ _____    ______ ____
ROOT
ATOM      1  C   UNL     1       1.127   2.441  21.808  0.00  0.00    +0.000 C 
ATOM      2  C   UNL     1       1.908   3.189  20.711  0.00  0.00    +0.000 C 
ATOM      3  C   UNL     1       1.922   4.690  21.070  0.00  0.00    +0.000 C 
ATOM      4  C   UNL     1       3.334   2.625  20.658  0.00  0.00    +0.000 C 
ATOM      5  C   UNL     1       4.162   3.219  19.543  0.00  0.00    +0.000 C 
ATOM      6  O   UNL     1       5.383   3.331  19.667  0.00  0.00    +0.000 OA
ATOM      7  C   UNL     1       3.454   3.597  18.288  0.00  0.00    +0.000 C 
ATOM      8  C   UNL     1       4.153   3.989  17.204  0.00  0.00    +0.000 C 
ATOM      9  C   UNL     1       1.973   3.517  18.181  0.00  0.00    +0.000 C 
ATOM     10  O   UNL     1       1.375   3.830  17.150  0.00  0.00    +0.000 OA
ATOM     11  C   UNL     1       1.209   2.956  19.362  0.00  0.00    +0.000 C 
ENDROOT
BRANCH   8  12
ATOM     12  N   UNL     1       5.511   4.118  17.078  0.00  0.00    +0.000 N 
ATOM     13  H   UNL     1       6.012   3.277  16.772  0.00  0.00    +0.000 HD
BRANCH  12  14
ATOM     14  C   UNL     1       6.311   5.224  17.391  0.00  0.00    +0.000 A 
ATOM     15  C   UNL     1       7.308   5.071  18.363  0.00  0.00    +0.000 A 
ATOM     16  C   UNL     1       8.116   6.146  18.738  0.00  0.00    +0.000 A 
ATOM     17  C   UNL     1       7.934   7.389  18.141  0.00  0.00    +0.000 A 
ATOM     18  C   UNL     1       6.941   7.560  17.178  0.00  0.00    +0.000 A 
ATOM     19  C   UNL     1       6.124   6.485  16.821  0.00  0.00    +0.000 A 
ENDBRANCH  12  14
ENDBRANCH   8  12
TORSDOF 2
ENDMDL
MODEL 5
REMARK VINA RESULT:      -7.5      0.252      1.159
REMARK  Name = 
REMARK  4 active torsions:
REMARK  status: ('A' for Active; 'I' for Inactive)
REMARK    1  A    between atoms: C_1  and  C_2
REMARK    2  A    between atoms: C_2  and  C_3
REMARK    3  A    between atoms: C_8  and  N_9
REMARK    4  A    between atoms: N_9  and  C_10
REMARK                            x       y       z     vdW  Elec       q    Type
REMARK                         _______ _______ _______ _____ _____    ______ ____
ROOT
ATOM      1  C   UNL     1       2.183   7.234  19.362  0.00  0.00    +0.000 C 
ATOM      2  C   UNL     1       3.211   6.434  18.540  0.00  0.00    +0.000 C 
ATOM      3  C   UNL     1       2.477   5.253  17.871  0.00  0.00    +0.000 C 
ATOM      4  C   UNL     1       3.822   7.367  17.485  0.00  0.00    +0.000 C 
ATOM      5  C   UNL     1       4.922   6.710  16.684  0.00  0.00    +0.000 C 
ATOM      6  O   UNL     1       5.127   7.048  15.516  0.00  0.00    +0.000 OA
ATOM      7  C   UNL     1       5.769   5.702  17.379  0.00  0.00    +0.000 C 
ATOM      8  C   UNL     1       6.859   5.192  16.769  0.00  0.00    +0.000 C 
ATOM      9  C   UNL     1       5.464   5.258  18.765  0.00  0.00    +0.000 C 
ATOM     10  O   UNL     1       6.156   4.422  19.350  0.00  0.00    +0.000 OA
ATOM     11  C   UNL     1       4.313   5.929  19.484  0.00  0.00    +0.000 C 
ENDROOT
BRANCH   8  12
ATOM     12  N   UNL     1       7.329   5.469  15.513  0.00  0.00    +0.000 N 
ATOM     13  H   UNL     1       7.958   6.275  15.440  0.00  0.00    +0.000 HD
BRANCH  12  14
ATOM     14  C   UNL     1       6.996   4.844  14.304  0.00  0.00    +0.000 A 
ATOM     15  C   UNL     1       6.000   3.861  14.314  0.00  0.00    +0.000 A 
ATOM     16  C   UNL     1       5.648   3.183  13.146  0.00  0.00    +0.000 A 
ATOM     17  C   UNL     1       6.292   3.484  11.951  0.00  0.00    +0.000 A 
ATOM     18  C   UNL     1       7.292   4.454  11.925  0.00  0.00    +0.000 A 
ATOM     19  C   UNL     1       7.652   5.116  13.101  0.00  0.00    +0.000 A 
ENDBRANCH  12  14
ENDBRANCH   8  12
TORSDOF 2
ENDMDL
MODEL 6
REMARK VINA RESULT:      -7.3      2.955      6.122
REMARK  Name = 
REMARK  4 active torsions:
REMARK  status: ('A' for Active; 'I' for Inactive)
REMARK    1  A    between atoms: C_1  and  C_2
REMARK    2  A    between atoms: C_2  and  C_3
REMARK    3  A    between atoms: C_8  and  N_9
REMARK    4  A    between atoms: N_9  and  C_10
REMARK                            x       y       z     vdW  Elec       q    Type
REMARK                         _______ _______ _______ _____ _____    ______ ____
ROOT
ATOM      1  C   UNL     1       7.850   7.888  17.265  0.00  0.00    +0.000 C 
ATOM      2  C   UNL     1       6.964   6.649  17.485  0.00  0.00    +0.000 C 
ATOM      3  C   UNL     1       7.474   5.909  18.739  0.00  0.00    +0.000 C 
ATOM      4  C   UNL     1       5.514   7.115  17.677  0.00  0.00    +0.000 C 
ATOM      5  C   UNL     1       4.538   5.969  17.800  0.00  0.00    +0.000 C 
ATOM      6  O   UNL     1       3.514   6.094  18.475  0.00  0.00    +0.000 OA
ATOM      7  C   UNL     1       4.834   4.728  17.031  0.00  0.00    +0.000 C 
ATOM      8  C   UNL     1       3.931   3.728  16.977  0.00  0.00    +0.000 C 
ATOM      9  C   UNL     1       6.106   4.571  16.278  0.00  0.00    +0.000 C 
ATOM     10  O   UNL     1       6.365   3.548  15.640  0.00  0.00    +0.000 OA
ATOM     11  C   UNL     1       7.057   5.748  16.243  0.00  0.00    +0.000 C 
ENDROOT
BRANCH   8  12
ATOM     12  N   UNL     1       2.701   3.670  17.577  0.00  0.00    +0.000 N 
ATOM     13  H   UNL     1       1.913   4.000  17.010  0.00  0.00    +0.000 HD
BRANCH  12  14
ATOM     14  C   UNL     1       2.393   3.297  18.891  0.00  0.00    +0.000 A 
ATOM     15  C   UNL     1       1.080   3.474  19.344  0.00  0.00    +0.000 A 
ATOM     16  C   UNL     1       0.722   3.147  20.653  0.00  0.00    +0.000 A 
ATOM     17  C   UNL     1       1.678   2.639  21.526  0.00  0.00    +0.000 A 
ATOM     18  C   UNL     1       2.991   2.465  21.094  0.00  0.00    +0.000 A 
ATOM     19  C   UNL     1       3.347   2.810  19.788  0.00  0.00    +0.000 A 
ENDBRANCH  12  14
ENDBRANCH   8  12
TORSDOF 2
ENDMDL
MODEL 7
REMARK VINA RESULT:      -7.2      2.973      6.035
REMARK  Name = 
REMARK  4 active torsions:
REMARK  status: ('A' for Active; 'I' for Inactive)
REMARK    1  A    between atoms: C_1  and  C_2
REMARK    2  A    between atoms: C_2  and  C_3
REMARK    3  A    between atoms: C_8  and  N_9
REMARK    4  A    between atoms: N_9  and  C_10
REMARK                            x       y       z     vdW  Elec       q    Type
REMARK                         _______ _______ _______ _____ _____    ______ ____
ROOT
ATOM      1  C   UNL     1       7.834   7.949  17.371  0.00  0.00    +0.000 C 
ATOM      2  C   UNL     1       6.954   6.699  17.560  0.00  0.00    +0.000 C 
ATOM      3  C   UNL     1       7.450   5.947  18.812  0.00  0.00    +0.000 C 
ATOM      4  C   UNL     1       5.498   7.151  17.732  0.00  0.00    +0.000 C 
ATOM      5  C   UNL     1       4.529   5.995  17.824  0.00  0.00    +0.000 C 
ATOM      6  O   UNL     1       3.493   6.103  18.483  0.00  0.00    +0.000 OA
ATOM      7  C   UNL     1       4.850   4.767  17.044  0.00  0.00    +0.000 C 
ATOM      8  C   UNL     1       3.956   3.760  16.962  0.00  0.00    +0.000 C 
ATOM      9  C   UNL     1       6.135   4.630  16.311  0.00  0.00    +0.000 C 
ATOM     10  O   UNL     1       6.414   3.618  15.664  0.00  0.00    +0.000 OA
ATOM     11  C   UNL     1       7.077   5.816  16.308  0.00  0.00    +0.000 C 
ENDROOT
BRANCH   8  12
ATOM     12  N   UNL     1       2.717   3.684  17.540  0.00  0.00    +0.000 N 
ATOM     13  H   UNL     1       1.928   3.948  16.940  0.00  0.00    +0.000 HD
BRANCH  12  14
ATOM     14  C   UNL     1       2.396   3.372  18.867  0.00  0.00    +0.000 A 
ATOM     15  C   UNL     1       3.392   2.820  19.682  0.00  0.00    +0.000 A 
ATOM     16  C   UNL     1       3.122   2.461  21.003  0.00  0.00    +0.000 A 
ATOM     17  C   UNL     1       1.847   2.651  21.525  0.00  0.00    +0.000 A 
ATOM     18  C   UNL     1       0.841   3.190  20.725  0.00  0.00    +0.000 A 
ATOM     19  C   UNL     1       1.113   3.531  19.398  0.00  0.00    +0.000 A 
ENDBRANCH  12  14
ENDBRANCH   8  12
TORSDOF 2
ENDMDL
MODEL 8
REMARK VINA RESULT:      -7.1      5.274      7.117
REMARK  Name = 
REMARK  4 active torsions:
REMARK  status: ('A' for Active; 'I' for Inactive)
REMARK    1  A    between atoms: C_1  and  C_2
REMARK    2  A    between atoms: C_2  and  C_3
REMARK    3  A    between atoms: C_8  and  N_9
REMARK    4  A    between atoms: N_9  and  C_10
REMARK                            x       y       z     vdW  Elec       q    Type
REMARK                         _______ _______ _______ _____ _____    ______ ____
ROOT
ATOM      1  C   UNL     1      -0.262  12.562  18.671  0.00  0.00    +0.000 C 
ATOM      2  C   UNL     1      -0.086  11.090  19.087  0.00  0.00    +0.000 C 
ATOM      3  C   UNL     1      -1.272  10.283  18.518  0.00  0.00    +0.000 C 
ATOM      4  C   UNL     1       1.245  10.579  18.520  0.00  0.00    +0.000 C 
ATOM      5  C   UNL     1       1.570   9.169  18.955  0.00  0.00    +0.000 C 
ATOM      6  O   UNL     1       2.230   8.429  18.222  0.00  0.00    +0.000 OA
ATOM      7  C   UNL     1       1.118   8.747  20.310  0.00  0.00    +0.000 C 
ATOM      8  C   UNL     1       1.504   7.559  20.817  0.00  0.00    +0.000 C 
ATOM      9  C   UNL     1       0.266   9.629  21.150  0.00  0.00    +0.000 C 
ATOM     10  O   UNL     1      -0.118   9.291  22.272  0.00  0.00    +0.000 OA
ATOM     11  C   UNL     1      -0.058  11.011  20.622  0.00  0.00    +0.000 C 
ENDROOT
BRANCH   8  12
ATOM     12  N   UNL     1       2.293   6.607  20.227  0.00  0.00    +0.000 N 
ATOM     13  H   UNL     1       3.259   6.889  20.030  0.00  0.00    +0.000 HD
BRANCH  12  14
ATOM     14  C   UNL     1       1.928   5.330  19.784  0.00  0.00    +0.000 A 
ATOM     15  C   UNL     1       2.131   5.008  18.436  0.00  0.00    +0.000 A 
ATOM     16  C   UNL     1       1.759   3.761  17.932  0.00  0.00    +0.000 A 
ATOM     17  C   UNL     1       1.177   2.819  18.774  0.00  0.00    +0.000 A 
ATOM     18  C   UNL     1       0.959   3.127  20.116  0.00  0.00    +0.000 A 
ATOM     19  C   UNL     1       1.317   4.383  20.610  0.00  0.00    +0.000 A 
ENDBRANCH  12  14
ENDBRANCH   8  12
TORSDOF 2
ENDMDL
MODEL 9
REMARK VINA RESULT:      -7.1      5.245      7.219
REMARK  Name = 
REMARK  4 active torsions:
REMARK  status: ('A' for Active; 'I' for Inactive)
REMARK    1  A    between atoms: C_1  and  C_2
REMARK    2  A    between atoms: C_2  and  C_3
REMARK    3  A    between atoms: C_8  and  N_9
REMARK    4  A    between atoms: N_9  and  C_10
REMARK                            x       y       z     vdW  Elec       q    Type
REMARK                         _______ _______ _______ _____ _____    ______ ____
ROOT
ATOM      1  C   UNL     1      -0.425  12.585  18.669  0.00  0.00    +0.000 C 
ATOM      2  C   UNL     1      -0.212  11.120  19.094  0.00  0.00    +0.000 C 
ATOM      3  C   UNL     1      -1.380  10.282  18.536  0.00  0.00    +0.000 C 
ATOM      4  C   UNL     1       1.129  10.638  18.524  0.00  0.00    +0.000 C 
ATOM      5  C   UNL     1       1.490   9.240  18.967  0.00  0.00    +0.000 C 
ATOM      6  O   UNL     1       2.164   8.510  18.237  0.00  0.00    +0.000 OA
ATOM      7  C   UNL     1       1.054   8.816  20.327  0.00  0.00    +0.000 C 
ATOM      8  C   UNL     1       1.471   7.641  20.840  0.00  0.00    +0.000 C 
ATOM      9  C   UNL     1       0.184   9.683  21.165  0.00  0.00    +0.000 C 
ATOM     10  O   UNL     1      -0.186   9.343  22.291  0.00  0.00    +0.000 OA
ATOM     11  C   UNL     1      -0.175  11.053  20.629  0.00  0.00    +0.000 C 
ENDROOT
BRANCH   8  12
ATOM     12  N   UNL     1       2.280   6.704  20.253  0.00  0.00    +0.000 N 
ATOM     13  H   UNL     1       3.262   6.975  20.135  0.00  0.00    +0.000 HD
BRANCH  12  14
ATOM     14  C   UNL     1       1.922   5.460  19.720  0.00  0.00    +0.000 A 
ATOM     15  C   UNL     1       1.331   4.517  20.570  0.00  0.00    +0.000 A 
ATOM     16  C   UNL     1       0.981   3.249  20.102  0.00  0.00    +0.000 A 
ATOM     17  C   UNL     1       1.221   2.911  18.775  0.00  0.00    +0.000 A 
ATOM     18  C   UNL     1       1.817   3.835  17.918  0.00  0.00    +0.000 A 
ATOM     19  C   UNL     1       2.180   5.095  18.397  0.00  0.00    +0.000 A 
ENDBRANCH  12  14
ENDBRANCH   8  12
TORSDOF 2
ENDMDL
