MODEL 1
REMARK VINA RESULT:      -7.8      0.000      0.000
REMARK  Name = 
REMARK  6 active torsions:
REMARK  status: ('A' for Active; 'I' for Inactive)
REMARK    1  A    between atoms: N_10  and  O_11
REMARK    2  A    between atoms: O_11  and  C_12
REMARK    3  A    between atoms: C_12  and  C_13
REMARK    4  A    between atoms: C_13  and  C_14
REMARK    5  A    between atoms: C_14  and  O_15
REMARK    6  A    between atoms: O_15  and  C_16
REMARK                            x       y       z     vdW  Elec       q    Type
REMARK                         _______ _______ _______ _____ _____    ______ ____
ROOT
ATOM      1  N   UNL     1       5.098   1.713  20.401  0.00  0.00    +0.000 N 
ATOM      2  C   UNL     1       4.554   2.798  19.660  0.00  0.00    +0.000 C 
ATOM      3  N   UNL     1       5.300   3.447  18.861  0.00  0.00    +0.000 NA
ATOM      4  C   UNL     1       4.906   4.636  18.098  0.00  0.00    +0.000 C 
ATOM      5  C   UNL     1       5.983   5.693  18.463  0.00  0.00    +0.000 C 
ATOM      6  C   UNL     1       6.170   6.843  17.439  0.00  0.00    +0.000 C 
ATOM      7  O   UNL     1       6.291   6.355  16.119  0.00  0.00    +0.000 OA
ATOM      8  C   UNL     1       5.144   5.606  15.760  0.00  0.00    +0.000 C 
ATOM      9  C   UNL     1       5.080   4.316  16.597  0.00  0.00    +0.000 C 
ATOM     10  N   UNL     1       3.495   5.013  18.406  0.00  0.00    +0.000 N 
ATOM     11  C   UNL     1       2.682   4.156  19.223  0.00  0.00    +0.000 C 
ATOM     12  N   UNL     1       1.286   4.381  19.380  0.00  0.00    +0.000 N 
ATOM     13  N   UNL     1       3.195   3.132  19.823  0.00  0.00    +0.000 NA
ATOM     14  H   UNL     1       6.094   1.472  20.304  0.00  0.00    +0.000 HD
ATOM     15  H   UNL     1       4.509   1.182  21.056  0.00  0.00    +0.000 HD
ATOM     16  H   UNL     1       0.808   5.141  18.889  0.00  0.00    +0.000 HD
ATOM     17  H   UNL     1       0.716   3.723  19.949  0.00  0.00    +0.000 HD
ENDROOT
BRANCH  10  18
ATOM     18  O   UNL     1       2.893   6.059  17.781  0.00  0.00    +0.000 OA
BRANCH  18  19
ATOM     19  C   UNL     1       2.736   7.101  18.723  0.00  0.00    +0.000 C 
BRANCH  19  20
ATOM     20  C   UNL     1       1.990   8.306  18.123  0.00  0.00    +0.000 C 
BRANCH  20  21
ATOM     21  C   UNL     1       1.257   9.186  19.141  0.00  0.00    +0.000 C 
BRANCH  21  22
ATOM     22  O   UNL     1       0.733  10.313  18.530  0.00  0.00    +0.000 OA
BRANCH  22  23
ATOM     23  C   UNL     1      -0.592  10.557  18.327  0.00  0.00    +0.000 A 
ATOM     24  C   UNL     1      -1.353   9.825  17.390  0.00  0.00    +0.000 A 
ATOM     25  C   UNL     1      -2.714  10.092  17.219  0.00  0.00    +0.000 A 
ATOM     26  C   UNL     1      -3.334  11.090  17.974  0.00  0.00    +0.000 A 
ATOM     27 CL   UNL     1      -5.046  11.411  17.763  0.00  0.00    +0.000 Cl
ATOM     28  C   UNL     1      -2.587  11.828  18.900  0.00  0.00    +0.000 A 
ATOM     29  C   UNL     1      -1.223  11.567  19.075  0.00  0.00    +0.000 A 
ATOM     30 CL   UNL     1      -0.317  12.509  20.248  0.00  0.00    +0.000 Cl
ENDBRANCH  22  23
ENDBRANCH  21  22
ENDBRANCH  20  21
ENDBRANCH  19  20
ENDBRANCH  18  19
ENDBRANCH  10  18
TORSDOF 6
ENDMDL
MODEL 2
REMARK VINA RESULT:      -7.6      1.746      2.129
REMARK  Name = 
REMARK  6 active torsions:
REMARK  status: ('A' for Active; 'I' for Inactive)
REMARK    1  A    between atoms: N_10  and  O_11
REMARK    2  A    between atoms: O_11  and  C_12
REMARK    3  A    between atoms: C_12  and  C_13
REMARK    4  A    between atoms: C_13  and  C_14
REMARK    5  A    between atoms: C_14  and  O_15
REMARK    6  A    between atoms: O_15  and  C_16
REMARK                            x       y       z     vdW  Elec       q    Type
REMARK                         _______ _______ _______ _____ _____    ______ ____
ROOT
ATOM      1  N   UNL     1       5.145   1.672  20.568  0.00  0.00    +0.000 N 
ATOM      2  C   UNL     1       4.572   2.699  19.769  0.00  0.00    +0.000 C 
ATOM      3  N   UNL     1       5.313   3.368  18.982  0.00  0.00    +0.000 NA
ATOM      4  C   UNL     1       4.883   4.506  18.164  0.00  0.00    +0.000 C 
ATOM      5  C   UNL     1       5.877   5.638  18.540  0.00  0.00    +0.000 C 
ATOM      6  C   UNL     1       6.041   6.766  17.488  0.00  0.00    +0.000 C 
ATOM      7  O   UNL     1       6.250   6.246  16.191  0.00  0.00    +0.000 OA
ATOM      8  C   UNL     1       5.168   5.417  15.807  0.00  0.00    +0.000 C 
ATOM      9  C   UNL     1       5.144   4.152  16.683  0.00  0.00    +0.000 C 
ATOM     10  N   UNL     1       3.440   4.805  18.397  0.00  0.00    +0.000 N 
ATOM     11  C   UNL     1       2.643   3.925  19.206  0.00  0.00    +0.000 C 
ATOM     12  N   UNL     1       1.231   4.069  19.296  0.00  0.00    +0.000 N 
ATOM     13  N   UNL     1       3.189   2.953  19.862  0.00  0.00    +0.000 NA
ATOM     14  H   UNL     1       6.158   1.490  20.523  0.00  0.00    +0.000 HD
ATOM     15  H   UNL     1       4.561   1.126  21.214  0.00  0.00    +0.000 HD
ATOM     16  H   UNL     1       0.730   4.782  18.759  0.00  0.00    +0.000 HD
ATOM     17  H   UNL     1       0.676   3.394  19.860  0.00  0.00    +0.000 HD
ENDROOT
BRANCH  10  18
ATOM     18  O   UNL     1       2.805   5.792  17.713  0.00  0.00    +0.000 OA
BRANCH  18  19
ATOM     19  C   UNL     1       2.567   6.862  18.605  0.00  0.00    +0.000 C 
BRANCH  19  20
ATOM     20  C   UNL     1       2.610   8.224  17.890  0.00  0.00    +0.000 C 
BRANCH  20  21
ATOM     21  C   UNL     1       1.381   9.111  18.112  0.00  0.00    +0.000 C 
BRANCH  21  22
ATOM     22  O   UNL     1       1.574   9.958  19.190  0.00  0.00    +0.000 OA
BRANCH  22  23
ATOM     23  C   UNL     1       0.585  10.538  19.927  0.00  0.00    +0.000 A 
ATOM     24  C   UNL     1      -0.288  11.503  19.379  0.00  0.00    +0.000 A 
ATOM     25  C   UNL     1      -1.302  12.065  20.160  0.00  0.00    +0.000 A 
ATOM     26  C   UNL     1      -1.459  11.678  21.492  0.00  0.00    +0.000 A 
ATOM     27 CL   UNL     1      -2.742  12.379  22.463  0.00  0.00    +0.000 Cl
ATOM     28  C   UNL     1      -0.593  10.728  22.048  0.00  0.00    +0.000 A 
ATOM     29  C   UNL     1       0.425  10.163  21.272  0.00  0.00    +0.000 A 
ATOM     30 CL   UNL     1       1.490   8.970  22.000  0.00  0.00    +0.000 Cl
ENDBRANCH  22  23
ENDBRANCH  21  22
ENDBRANCH  20  21
ENDBRANCH  19  20
ENDBRANCH  18  19
ENDBRANCH  10  18
TORSDOF 6
ENDMDL
MODEL 3
REMARK VINA RESULT:      -7.4      1.518      2.183
REMARK  Name = 
REMARK  6 active torsions:
REMARK  status: ('A' for Active; 'I' for Inactive)
REMARK    1  A    between atoms: N_10  and  O_11
REMARK    2  A    between atoms: O_11  and  C_12
REMARK    3  A    between atoms: C_12  and  C_13
REMARK    4  A    between atoms: C_13  and  C_14
REMARK    5  A    between atoms: C_14  and  O_15
REMARK    6  A    between atoms: O_15  and  C_16
REMARK                            x       y       z     vdW  Elec       q    Type
REMARK                         _______ _______ _______ _____ _____    ______ ____
ROOT
ATOM      1  N   UNL     1       5.101   1.782  20.761  0.00  0.00    +0.000 N 
ATOM      2  C   UNL     1       4.581   2.785  19.897  0.00  0.00    +0.000 C 
ATOM      3  N   UNL     1       5.365   3.398  19.107  0.00  0.00    +0.000 NA
ATOM      4  C   UNL     1       4.992   4.507  18.223  0.00  0.00    +0.000 C 
ATOM      5  C   UNL     1       6.003   5.631  18.581  0.00  0.00    +0.000 C 
ATOM      6  C   UNL     1       6.231   6.704  17.485  0.00  0.00    +0.000 C 
ATOM      7  O   UNL     1       6.470   6.120  16.221  0.00  0.00    +0.000 OA
ATOM      8  C   UNL     1       5.380   5.301  15.839  0.00  0.00    +0.000 C 
ATOM      9  C   UNL     1       5.293   4.079  16.770  0.00  0.00    +0.000 C 
ATOM     10  N   UNL     1       3.551   4.852  18.393  0.00  0.00    +0.000 N 
ATOM     11  C   UNL     1       2.705   4.031  19.213  0.00  0.00    +0.000 C 
ATOM     12  N   UNL     1       1.295   4.213  19.248  0.00  0.00    +0.000 N 
ATOM     13  N   UNL     1       3.203   3.077  19.931  0.00  0.00    +0.000 NA
ATOM     14  H   UNL     1       6.110   1.573  20.759  0.00  0.00    +0.000 HD
ATOM     15  H   UNL     1       4.481   1.281  21.411  0.00  0.00    +0.000 HD
ATOM     16  H   UNL     1       0.831   4.913  18.663  0.00  0.00    +0.000 HD
ATOM     17  H   UNL     1       0.704   3.579  19.823  0.00  0.00    +0.000 HD
ENDROOT
BRANCH  10  18
ATOM     18  O   UNL     1       2.965   5.822  17.643  0.00  0.00    +0.000 OA
BRANCH  18  19
ATOM     19  C   UNL     1       2.782   6.960  18.462  0.00  0.00    +0.000 C 
BRANCH  19  20
ATOM     20  C   UNL     1       1.931   8.035  17.764  0.00  0.00    +0.000 C 
BRANCH  20  21
ATOM     21  C   UNL     1       2.233   9.476  18.189  0.00  0.00    +0.000 C 
BRANCH  21  22
ATOM     22  O   UNL     1       1.065  10.211  18.302  0.00  0.00    +0.000 OA
BRANCH  22  23
ATOM     23  C   UNL     1       0.413  10.486  19.467  0.00  0.00    +0.000 A 
ATOM     24  C   UNL     1       0.771   9.872  20.687  0.00  0.00    +0.000 A 
ATOM     25  C   UNL     1       0.090  10.189  21.866  0.00  0.00    +0.000 A 
ATOM     26  C   UNL     1      -0.953  11.117  21.846  0.00  0.00    +0.000 A 
ATOM     27 CL   UNL     1      -1.794  11.520  23.332  0.00  0.00    +0.000 Cl
ATOM     28  C   UNL     1      -1.321  11.726  20.640  0.00  0.00    +0.000 A 
ATOM     29  C   UNL     1      -0.645  11.411  19.456  0.00  0.00    +0.000 A 
ATOM     30 CL   UNL     1      -1.131  12.196  17.961  0.00  0.00    +0.000 Cl
ENDBRANCH  22  23
ENDBRANCH  21  22
ENDBRANCH  20  21
ENDBRANCH  19  20
ENDBRANCH  18  19
ENDBRANCH  10  18
TORSDOF 6
ENDMDL
MODEL 4
REMARK VINA RESULT:      -7.4      2.578      4.193
REMARK  Name = 
REMARK  6 active torsions:
REMARK  status: ('A' for Active; 'I' for Inactive)
REMARK    1  A    between atoms: N_10  and  O_11
REMARK    2  A    between atoms: O_11  and  C_12
REMARK    3  A    between atoms: C_12  and  C_13
REMARK    4  A    between atoms: C_13  and  C_14
REMARK    5  A    between atoms: C_14  and  O_15
REMARK    6  A    between atoms: O_15  and  C_16
REMARK                            x       y       z     vdW  Elec       q    Type
REMARK                         _______ _______ _______ _____ _____    ______ ____
ROOT
ATOM      1  N   UNL     1       6.489   4.067  14.775  0.00  0.00    +0.000 N 
ATOM      2  C   UNL     1       5.890   4.041  16.063  0.00  0.00    +0.000 C 
ATOM      3  N   UNL     1       4.740   3.520  16.209  0.00  0.00    +0.000 NA
ATOM      4  C   UNL     1       3.964   3.496  17.453  0.00  0.00    +0.000 C 
ATOM      5  C   UNL     1       2.594   4.110  17.056  0.00  0.00    +0.000 C 
ATOM      6  C   UNL     1       1.399   3.735  17.970  0.00  0.00    +0.000 C 
ATOM      7  O   UNL     1       1.339   2.344  18.211  0.00  0.00    +0.000 OA
ATOM      8  C   UNL     1       2.536   1.893  18.817  0.00  0.00    +0.000 C 
ATOM      9  C   UNL     1       3.704   2.019  17.822  0.00  0.00    +0.000 C 
ATOM     10  N   UNL     1       4.699   4.200  18.544  0.00  0.00    +0.000 N 
ATOM     11  C   UNL     1       6.046   4.650  18.332  0.00  0.00    +0.000 C 
ATOM     12  N   UNL     1       6.842   5.151  19.399  0.00  0.00    +0.000 N 
ATOM     13  N   UNL     1       6.587   4.590  17.158  0.00  0.00    +0.000 NA
ATOM     14  H   UNL     1       5.982   3.685  13.963  0.00  0.00    +0.000 HD
ATOM     15  H   UNL     1       7.417   4.490  14.638  0.00  0.00    +0.000 HD
ATOM     16  H   UNL     1       6.494   5.174  20.361  0.00  0.00    +0.000 HD
ATOM     17  H   UNL     1       7.826   5.435  19.222  0.00  0.00    +0.000 HD
ENDROOT
BRANCH  10  18
ATOM     18  O   UNL     1       4.195   4.265  19.805  0.00  0.00    +0.000 OA
BRANCH  18  19
ATOM     19  C   UNL     1       3.455   5.464  19.919  0.00  0.00    +0.000 C 
BRANCH  19  20
ATOM     20  C   UNL     1       2.276   5.316  20.897  0.00  0.00    +0.000 C 
BRANCH  20  21
ATOM     21  C   UNL     1       1.241   6.445  20.839  0.00  0.00    +0.000 C 
BRANCH  21  22
ATOM     22  O   UNL     1       1.830   7.632  20.438  0.00  0.00    +0.000 OA
BRANCH  22  23
ATOM     23  C   UNL     1       1.193   8.832  20.326  0.00  0.00    +0.000 A 
ATOM     24  C   UNL     1       0.578   9.459  21.431  0.00  0.00    +0.000 A 
ATOM     25  C   UNL     1      -0.053  10.697  21.283  0.00  0.00    +0.000 A 
ATOM     26  C   UNL     1      -0.082  11.325  20.036  0.00  0.00    +0.000 A 
ATOM     27 CL   UNL     1      -0.865  12.886  19.860  0.00  0.00    +0.000 Cl
ATOM     28  C   UNL     1       0.518  10.709  18.931  0.00  0.00    +0.000 A 
ATOM     29  C   UNL     1       1.149   9.468  19.073  0.00  0.00    +0.000 A 
ATOM     30 CL   UNL     1       1.895   8.725  17.666  0.00  0.00    +0.000 Cl
ENDBRANCH  22  23
ENDBRANCH  21  22
ENDBRANCH  20  21
ENDBRANCH  19  20
ENDBRANCH  18  19
ENDBRANCH  10  18
TORSDOF 6
ENDMDL
MODEL 5
REMARK VINA RESULT:      -7.2      5.082      7.748
REMARK  Name = 
REMARK  6 active torsions:
REMARK  status: ('A' for Active; 'I' for Inactive)
REMARK    1  A    between atoms: N_10  and  O_11
REMARK    2  A    between atoms: O_11  and  C_12
REMARK    3  A    between atoms: C_12  and  C_13
REMARK    4  A    between atoms: C_13  and  C_14
REMARK    5  A    between atoms: C_14  and  O_15
REMARK    6  A    between atoms: O_15  and  C_16
REMARK                            x       y       z     vdW  Elec       q    Type
REMARK                         _______ _______ _______ _____ _____    ______ ____
ROOT
ATOM      1  N   UNL     1       0.656   1.702  18.491  0.00  0.00    +0.000 N 
ATOM      2  C   UNL     1       1.687   2.622  18.824  0.00  0.00    +0.000 C 
ATOM      3  N   UNL     1       1.449   3.871  18.789  0.00  0.00    +0.000 NA
ATOM      4  C   UNL     1       2.429   4.935  19.022  0.00  0.00    +0.000 C 
ATOM      5  C   UNL     1       2.315   5.837  17.764  0.00  0.00    +0.000 C 
ATOM      6  C   UNL     1       2.800   7.300  17.938  0.00  0.00    +0.000 C 
ATOM      7  O   UNL     1       2.265   7.894  19.102  0.00  0.00    +0.000 OA
ATOM      8  C   UNL     1       2.629   7.152  20.252  0.00  0.00    +0.000 C 
ATOM      9  C   UNL     1       1.942   5.775  20.224  0.00  0.00    +0.000 C 
ATOM     10  N   UNL     1       3.780   4.357  19.285  0.00  0.00    +0.000 N 
ATOM     11  C   UNL     1       3.939   2.937  19.432  0.00  0.00    +0.000 C 
ATOM     12  N   UNL     1       5.166   2.366  19.870  0.00  0.00    +0.000 N 
ATOM     13  N   UNL     1       2.955   2.132  19.192  0.00  0.00    +0.000 NA
ATOM     14  H   UNL     1      -0.271   2.049  18.202  0.00  0.00    +0.000 HD
ATOM     15  H   UNL     1       0.834   0.689  18.509  0.00  0.00    +0.000 HD
ATOM     16  H   UNL     1       5.966   2.949  20.129  0.00  0.00    +0.000 HD
ATOM     17  H   UNL     1       5.241   1.337  20.001  0.00  0.00    +0.000 HD
ENDROOT
BRANCH  10  18
ATOM     18  O   UNL     1       4.842   5.152  19.576  0.00  0.00    +0.000 OA
BRANCH  18  19
ATOM     19  C   UNL     1       5.878   4.851  18.662  0.00  0.00    +0.000 C 
BRANCH  19  20
ATOM     20  C   UNL     1       6.554   6.124  18.124  0.00  0.00    +0.000 C 
BRANCH  20  21
ATOM     21  C   UNL     1       6.210   6.475  16.672  0.00  0.00    +0.000 C 
BRANCH  21  22
ATOM     22  O   UNL     1       7.054   5.818  15.794  0.00  0.00    +0.000 OA
BRANCH  22  23
ATOM     23  C   UNL     1       6.656   5.008  14.773  0.00  0.00    +0.000 A 
ATOM     24  C   UNL     1       5.476   4.236  14.846  0.00  0.00    +0.000 A 
ATOM     25  C   UNL     1       5.091   3.428  13.773  0.00  0.00    +0.000 A 
ATOM     26  C   UNL     1       5.873   3.375  12.618  0.00  0.00    +0.000 A 
ATOM     27 CL   UNL     1       5.376   2.368  11.269  0.00  0.00    +0.000 Cl
ATOM     28  C   UNL     1       7.050   4.129  12.537  0.00  0.00    +0.000 A 
ATOM     29  C   UNL     1       7.442   4.939  13.609  0.00  0.00    +0.000 A 
ATOM     30 CL   UNL     1       8.923   5.876  13.473  0.00  0.00    +0.000 Cl
ENDBRANCH  22  23
ENDBRANCH  21  22
ENDBRANCH  20  21
ENDBRANCH  19  20
ENDBRANCH  18  19
ENDBRANCH  10  18
TORSDOF 6
ENDMDL
MODEL 6
REMARK VINA RESULT:      -7.2      1.788      3.239
REMARK  Name = 
REMARK  6 active torsions:
REMARK  status: ('A' for Active; 'I' for Inactive)
REMARK    1  A    between atoms: N_10  and  O_11
REMARK    2  A    between atoms: O_11  and  C_12
REMARK    3  A    between atoms: C_12  and  C_13
REMARK    4  A    between atoms: C_13  and  C_14
REMARK    5  A    between atoms: C_14  and  O_15
REMARK    6  A    between atoms: O_15  and  C_16
REMARK                            x       y       z     vdW  Elec       q    Type
REMARK                         _______ _______ _______ _____ _____    ______ ____
ROOT
ATOM      1  N   UNL     1       6.163   3.648  14.562  0.00  0.00    +0.000 N 
ATOM      2  C   UNL     1       5.506   4.211  15.690  0.00  0.00    +0.000 C 
ATOM      3  N   UNL     1       4.780   3.471  16.426  0.00  0.00    +0.000 NA
ATOM      4  C   UNL     1       3.979   3.924  17.567  0.00  0.00    +0.000 C 
ATOM      5  C   UNL     1       2.550   3.399  17.258  0.00  0.00    +0.000 C 
ATOM      6  C   UNL     1       1.614   3.234  18.483  0.00  0.00    +0.000 C 
ATOM      7  O   UNL     1       2.248   2.539  19.537  0.00  0.00    +0.000 OA
ATOM      8  C   UNL     1       3.421   3.219  19.946  0.00  0.00    +0.000 C 
ATOM      9  C   UNL     1       4.472   3.171  18.823  0.00  0.00    +0.000 C 
ATOM     10  N   UNL     1       4.103   5.400  17.744  0.00  0.00    +0.000 N 
ATOM     11  C   UNL     1       5.042   6.144  16.950  0.00  0.00    +0.000 C 
ATOM     12  N   UNL     1       5.326   7.512  17.219  0.00  0.00    +0.000 N 
ATOM     13  N   UNL     1       5.678   5.580  15.976  0.00  0.00    +0.000 NA
ATOM     14  H   UNL     1       6.030   2.652  14.332  0.00  0.00    +0.000 HD
ATOM     15  H   UNL     1       6.749   4.234  13.953  0.00  0.00    +0.000 HD
ATOM     16  H   UNL     1       4.899   8.002  18.009  0.00  0.00    +0.000 HD
ATOM     17  H   UNL     1       6.037   8.014  16.650  0.00  0.00    +0.000 HD
ENDROOT
BRANCH  10  18
ATOM     18  O   UNL     1       3.485   6.042  18.769  0.00  0.00    +0.000 OA
BRANCH  18  19
ATOM     19  C   UNL     1       2.383   6.753  18.241  0.00  0.00    +0.000 C 
BRANCH  19  20
ATOM     20  C   UNL     1       2.141   8.074  18.993  0.00  0.00    +0.000 C 
BRANCH  20  21
ATOM     21  C   UNL     1       1.545   9.202  18.143  0.00  0.00    +0.000 C 
BRANCH  21  22
ATOM     22  O   UNL     1       0.750  10.031  18.916  0.00  0.00    +0.000 OA
BRANCH  22  23
ATOM     23  C   UNL     1      -0.518  10.422  18.606  0.00  0.00    +0.000 A 
ATOM     24  C   UNL     1      -1.213   9.898  17.494  0.00  0.00    +0.000 A 
ATOM     25  C   UNL     1      -2.518  10.311  17.215  0.00  0.00    +0.000 A 
ATOM     26  C   UNL     1      -3.148  11.249  18.035  0.00  0.00    +0.000 A 
ATOM     27 CL   UNL     1      -4.792  11.754  17.686  0.00  0.00    +0.000 Cl
ATOM     28  C   UNL     1      -2.466  11.783  19.135  0.00  0.00    +0.000 A 
ATOM     29  C   UNL     1      -1.157  11.375  19.419  0.00  0.00    +0.000 A 
ATOM     30 CL   UNL     1      -0.332  12.061  20.810  0.00  0.00    +0.000 Cl
ENDBRANCH  22  23
ENDBRANCH  21  22
ENDBRANCH  20  21
ENDBRANCH  19  20
ENDBRANCH  18  19
ENDBRANCH  10  18
TORSDOF 6
ENDMDL
MODEL 7
REMARK VINA RESULT:      -7.2      2.228      2.404
REMARK  Name = 
REMARK  6 active torsions:
REMARK  status: ('A' for Active; 'I' for Inactive)
REMARK    1  A    between atoms: N_10  and  O_11
REMARK    2  A    between atoms: O_11  and  C_12
REMARK    3  A    between atoms: C_12  and  C_13
REMARK    4  A    between atoms: C_13  and  C_14
REMARK    5  A    between atoms: C_14  and  O_15
REMARK    6  A    between atoms: O_15  and  C_16
REMARK                            x       y       z     vdW  Elec       q    Type
REMARK                         _______ _______ _______ _____ _____    ______ ____
ROOT
ATOM      1  N   UNL     1       4.956   1.759  20.361  0.00  0.00    +0.000 N 
ATOM      2  C   UNL     1       4.635   2.871  19.535  0.00  0.00    +0.000 C 
ATOM      3  N   UNL     1       5.556   3.448  18.875  0.00  0.00    +0.000 NA
ATOM      4  C   UNL     1       5.394   4.650  18.053  0.00  0.00    +0.000 C 
ATOM      5  C   UNL     1       6.471   5.628  18.596  0.00  0.00    +0.000 C 
ATOM      6  C   UNL     1       6.921   6.744  17.618  0.00  0.00    +0.000 C 
ATOM      7  O   UNL     1       7.229   6.227  16.339  0.00  0.00    +0.000 OA
ATOM      8  C   UNL     1       6.107   5.562  15.789  0.00  0.00    +0.000 C 
ATOM      9  C   UNL     1       5.798   4.294  16.605  0.00  0.00    +0.000 C 
ATOM     10  N   UNL     1       3.985   5.140  18.111  0.00  0.00    +0.000 N 
ATOM     11  C   UNL     1       2.978   4.361  18.776  0.00  0.00    +0.000 C 
ATOM     12  N   UNL     1       1.598   4.695  18.690  0.00  0.00    +0.000 N 
ATOM     13  N   UNL     1       3.299   3.310  19.459  0.00  0.00    +0.000 NA
ATOM     14  H   UNL     1       5.933   1.440  20.439  0.00  0.00    +0.000 HD
ATOM     15  H   UNL     1       4.224   1.285  20.906  0.00  0.00    +0.000 HD
ATOM     16  H   UNL     1       1.273   5.481  18.121  0.00  0.00    +0.000 HD
ATOM     17  H   UNL     1       0.889   4.091  19.152  0.00  0.00    +0.000 HD
ENDROOT
BRANCH  10  18
ATOM     18  O   UNL     1       3.584   6.218  17.388  0.00  0.00    +0.000 OA
BRANCH  18  19
ATOM     19  C   UNL     1       3.079   7.185  18.288  0.00  0.00    +0.000 C 
BRANCH  19  20
ATOM     20  C   UNL     1       2.658   8.476  17.562  0.00  0.00    +0.000 C 
BRANCH  20  21
ATOM     21  C   UNL     1       1.369   9.120  18.083  0.00  0.00    +0.000 C 
BRANCH  21  22
ATOM     22  O   UNL     1       1.624  10.374  18.611  0.00  0.00    +0.000 OA
BRANCH  22  23
ATOM     23  C   UNL     1       0.954  10.944  19.652  0.00  0.00    +0.000 A 
ATOM     24  C   UNL     1       0.010  10.226  20.418  0.00  0.00    +0.000 A 
ATOM     25  C   UNL     1      -0.648  10.839  21.487  0.00  0.00    +0.000 A 
ATOM     26  C   UNL     1      -0.377  12.171  21.808  0.00  0.00    +0.000 A 
ATOM     27 CL   UNL     1      -1.197  12.930  23.161  0.00  0.00    +0.000 Cl
ATOM     28  C   UNL     1       0.551  12.895  21.050  0.00  0.00    +0.000 A 
ATOM     29  C   UNL     1       1.211  12.288  19.976  0.00  0.00    +0.000 A 
ATOM     30 CL   UNL     1       2.373  13.225  19.049  0.00  0.00    +0.000 Cl
ENDBRANCH  22  23
ENDBRANCH  21  22
ENDBRANCH  20  21
ENDBRANCH  19  20
ENDBRANCH  18  19
ENDBRANCH  10  18
TORSDOF 6
ENDMDL
MODEL 8
REMARK VINA RESULT:      -7.2      2.391      3.028
REMARK  Name = 
REMARK  6 active torsions:
REMARK  status: ('A' for Active; 'I' for Inactive)
REMARK    1  A    between atoms: N_10  and  O_11
REMARK    2  A    between atoms: O_11  and  C_12
REMARK    3  A    between atoms: C_12  and  C_13
REMARK    4  A    between atoms: C_13  and  C_14
REMARK    5  A    between atoms: C_14  and  O_15
REMARK    6  A    between atoms: O_15  and  C_16
REMARK                            x       y       z     vdW  Elec       q    Type
REMARK                         _______ _______ _______ _____ _____    ______ ____
ROOT
ATOM      1  N   UNL     1       5.666   0.876  21.323  0.00  0.00    +0.000 N 
ATOM      2  C   UNL     1       4.719   1.824  20.850  0.00  0.00    +0.000 C 
ATOM      3  N   UNL     1       4.992   2.527  19.827  0.00  0.00    +0.000 NA
ATOM      4  C   UNL     1       4.155   3.597  19.276  0.00  0.00    +0.000 C 
ATOM      5  C   UNL     1       5.109   4.821  19.200  0.00  0.00    +0.000 C 
ATOM      6  C   UNL     1       4.709   5.923  18.185  0.00  0.00    +0.000 C 
ATOM      7  O   UNL     1       4.394   5.380  16.919  0.00  0.00    +0.000 OA
ATOM      8  C   UNL     1       3.331   4.451  17.027  0.00  0.00    +0.000 C 
ATOM      9  C   UNL     1       3.794   3.218  17.823  0.00  0.00    +0.000 C 
ATOM     10  N   UNL     1       2.927   3.782  20.103  0.00  0.00    +0.000 N 
ATOM     11  C   UNL     1       2.631   2.865  21.169  0.00  0.00    +0.000 C 
ATOM     12  N   UNL     1       1.384   2.893  21.852  0.00  0.00    +0.000 N 
ATOM     13  N   UNL     1       3.489   1.964  21.524  0.00  0.00    +0.000 NA
ATOM     14  H   UNL     1       6.576   0.777  20.850  0.00  0.00    +0.000 HD
ATOM     15  H   UNL     1       5.463   0.304  22.153  0.00  0.00    +0.000 HD
ATOM     16  H   UNL     1       0.641   3.543  21.583  0.00  0.00    +0.000 HD
ATOM     17  H   UNL     1       1.184   2.193  22.594  0.00  0.00    +0.000 HD
ENDROOT
BRANCH  10  18
ATOM     18  O   UNL     1       1.976   4.689  19.759  0.00  0.00    +0.000 OA
BRANCH  18  19
ATOM     19  C   UNL     1       1.948   5.693  20.754  0.00  0.00    +0.000 C 
BRANCH  19  20
ATOM     20  C   UNL     1       1.825   7.100  20.142  0.00  0.00    +0.000 C 
BRANCH  20  21
ATOM     21  C   UNL     1       1.551   8.222  21.150  0.00  0.00    +0.000 C 
BRANCH  21  22
ATOM     22  O   UNL     1       0.197   8.501  21.219  0.00  0.00    +0.000 OA
BRANCH  22  23
ATOM     23  C   UNL     1      -0.346   9.723  21.483  0.00  0.00    +0.000 A 
ATOM     24  C   UNL     1      -0.682  10.127  22.793  0.00  0.00    +0.000 A 
ATOM     25  C   UNL     1      -1.222  11.394  23.027  0.00  0.00    +0.000 A 
ATOM     26  C   UNL     1      -1.436  12.274  21.965  0.00  0.00    +0.000 A 
ATOM     27 CL   UNL     1      -2.104  13.868  22.268  0.00  0.00    +0.000 Cl
ATOM     28  C   UNL     1      -1.115  11.881  20.660  0.00  0.00    +0.000 A 
ATOM     29  C   UNL     1      -0.575  10.612  20.418  0.00  0.00    +0.000 A 
ATOM     30 CL   UNL     1      -0.179  10.154  18.769  0.00  0.00    +0.000 Cl
ENDBRANCH  22  23
ENDBRANCH  21  22
ENDBRANCH  20  21
ENDBRANCH  19  20
ENDBRANCH  18  19
ENDBRANCH  10  18
TORSDOF 6
ENDMDL
MODEL 9
REMARK VINA RESULT:      -7.2      2.101      2.498
REMARK  Name = 
REMARK  6 active torsions:
REMARK  status: ('A' for Active; 'I' for Inactive)
REMARK    1  A    between atoms: N_10  and  O_11
REMARK    2  A    between atoms: O_11  and  C_12
REMARK    3  A    between atoms: C_12  and  C_13
REMARK    4  A    between atoms: C_13  and  C_14
REMARK    5  A    between atoms: C_14  and  O_15
REMARK    6  A    between atoms: O_15  and  C_16
REMARK                            x       y       z     vdW  Elec       q    Type
REMARK                         _______ _______ _______ _____ _____    ______ ____
ROOT
ATOM      1  N   UNL     1       4.971   1.969  20.344  0.00  0.00    +0.000 N 
ATOM      2  C   UNL     1       4.718   3.011  19.411  0.00  0.00    +0.000 C 
ATOM      3  N   UNL     1       5.694   3.628  18.880  0.00  0.00    +0.000 NA
ATOM      4  C   UNL     1       5.589   4.773  17.971  0.00  0.00    +0.000 C 
ATOM      5  C   UNL     1       6.486   5.859  18.626  0.00  0.00    +0.000 C 
ATOM      6  C   UNL     1       7.016   6.959  17.670  0.00  0.00    +0.000 C 
ATOM      7  O   UNL     1       7.574   6.408  16.495  0.00  0.00    +0.000 OA
ATOM      8  C   UNL     1       6.612   5.630  15.806  0.00  0.00    +0.000 C 
ATOM      9  C   UNL     1       6.259   4.382  16.635  0.00  0.00    +0.000 C 
ATOM     10  N   UNL     1       4.161   5.150  17.764  0.00  0.00    +0.000 N 
ATOM     11  C   UNL     1       3.113   4.326  18.299  0.00  0.00    +0.000 C 
ATOM     12  N   UNL     1       1.748   4.544  17.964  0.00  0.00    +0.000 N 
ATOM     13  N   UNL     1       3.386   3.337  19.087  0.00  0.00    +0.000 NA
ATOM     14  H   UNL     1       5.940   1.733  20.603  0.00  0.00    +0.000 HD
ATOM     15  H   UNL     1       4.192   1.464  20.787  0.00  0.00    +0.000 HD
ATOM     16  H   UNL     1       1.469   5.273  17.303  0.00  0.00    +0.000 HD
ATOM     17  H   UNL     1       1.015   3.908  18.338  0.00  0.00    +0.000 HD
ENDROOT
BRANCH  10  18
ATOM     18  O   UNL     1       3.813   6.157  16.921  0.00  0.00    +0.000 OA
BRANCH  18  19
ATOM     19  C   UNL     1       3.800   7.363  17.660  0.00  0.00    +0.000 C 
BRANCH  19  20
ATOM     20  C   UNL     1       2.390   7.704  18.172  0.00  0.00    +0.000 C 
BRANCH  20  21
ATOM     21  C   UNL     1       1.979   9.172  18.008  0.00  0.00    +0.000 C 
BRANCH  21  22
ATOM     22  O   UNL     1       0.692   9.378  18.474  0.00  0.00    +0.000 OA
BRANCH  22  23
ATOM     23  C   UNL     1       0.338  10.259  19.452  0.00  0.00    +0.000 A 
ATOM     24  C   UNL     1       0.015  11.603  19.167  0.00  0.00    +0.000 A 
ATOM     25  C   UNL     1      -0.359  12.474  20.194  0.00  0.00    +0.000 A 
ATOM     26  C   UNL     1      -0.415  12.022  21.514  0.00  0.00    +0.000 A 
ATOM     27 CL   UNL     1      -0.897  13.119  22.796  0.00  0.00    +0.000 Cl
ATOM     28  C   UNL     1      -0.088  10.693  21.809  0.00  0.00    +0.000 A 
ATOM     29  C   UNL     1       0.290   9.816  20.786  0.00  0.00    +0.000 A 
ATOM     30 CL   UNL     1       0.689   8.154  21.191  0.00  0.00    +0.000 Cl
ENDBRANCH  22  23
ENDBRANCH  21  22
ENDBRANCH  20  21
ENDBRANCH  19  20
ENDBRANCH  18  19
ENDBRANCH  10  18
TORSDOF 6
ENDMDL
