MODEL 1
REMARK VINA RESULT:      -8.1      0.000      0.000
REMARK  Name = 
REMARK  5 active torsions:
REMARK  status: ('A' for Active; 'I' for Inactive)
REMARK    1  A    between atoms: N_3  and  C_4
REMARK    2  A    between atoms: C_4  and  C_5
REMARK    3  A    between atoms: C_9  and  C_10
REMARK    4  A    between atoms: N_16  and  C_17
REMARK    5  A    between atoms: C_22  and  C_23
REMARK                            x       y       z     vdW  Elec       q    Type
REMARK                         _______ _______ _______ _____ _____    ______ ____
ROOT
ATOM      1  O   UNL     1       5.751   4.959  20.013  0.00  0.00    +0.000 OA
ATOM      2  C   UNL     1       5.710   4.129  19.116  0.00  0.00    +0.000 C 
ATOM      3  N   UNL     1       6.720   4.007  18.187  0.00  0.00    +0.000 N 
ATOM      4  N   UNL     1       4.711   3.197  18.913  0.00  0.00    +0.000 N 
ATOM      5  H   UNL     1       6.489   3.575  17.305  0.00  0.00    +0.000 HD
ATOM      6  H   UNL     1       4.990   2.385  18.373  0.00  0.00    +0.000 HD
ENDROOT
BRANCH   4   7
ATOM      7  C   UNL     1       3.454   3.147  19.571  0.00  0.00    +0.000 A 
ATOM      8  C   UNL     1       3.336   2.583  20.851  0.00  0.00    +0.000 A 
ATOM      9  C   UNL     1       2.117   2.571  21.535  0.00  0.00    +0.000 A 
ATOM     10  C   UNL     1       0.991   3.141  20.961  0.00  0.00    +0.000 A 
ATOM     11  C   UNL     1       1.083   3.706  19.694  0.00  0.00    +0.000 A 
ATOM     12  C   UNL     1       2.304   3.707  18.978  0.00  0.00    +0.000 A 
BRANCH  12  13
ATOM     13  C   UNL     1       2.267   4.279  17.584  0.00  0.00    +0.000 C 
ATOM     14  F   UNL     1       3.052   5.382  17.408  0.00  0.00    +0.000 F 
ATOM     15  F   UNL     1       2.679   3.381  16.643  0.00  0.00    +0.000 F 
ATOM     16  F   UNL     1       1.014   4.659  17.206  0.00  0.00    +0.000 F 
ENDBRANCH  12  13
ENDBRANCH   4   7
BRANCH   3  17
ATOM     17  C   UNL     1       7.865   4.896  18.222  0.00  0.00    +0.000 C 
BRANCH  17  18
ATOM     18  C   UNL     1       7.519   6.313  17.855  0.00  0.00    +0.000 A 
ATOM     19  C   UNL     1       6.461   6.601  17.003  0.00  0.00    +0.000 A 
ATOM     20  N   UNL     1       6.111   7.850  16.623  0.00  0.00    +0.000 NA
ATOM     21  C   UNL     1       6.851   8.870  17.127  0.00  0.00    +0.000 A 
ATOM     22  C   UNL     1       7.926   8.713  17.996  0.00  0.00    +0.000 A 
ATOM     23  C   UNL     1       8.255   7.399  18.354  0.00  0.00    +0.000 A 
BRANCH  22  24
ATOM     24  C   UNL     1       8.665   9.870  18.504  0.00  0.00    +0.000 A 
ATOM     25  C   UNL     1       9.402   9.967  19.734  0.00  0.00    +0.000 A 
ATOM     26  C   UNL     1      10.007  11.193  19.901  0.00  0.00    +0.000 A 
ATOM     27  S   UNL     1       9.702  12.241  18.589  0.00  0.00    +0.000 S 
ATOM     28  C   UNL     1       8.762  11.053  17.792  0.00  0.00    +0.000 A 
ENDBRANCH  22  24
ENDBRANCH  17  18
ENDBRANCH   3  17
TORSDOF 5
ENDMDL
MODEL 2
REMARK VINA RESULT:      -8.1      6.723      8.324
REMARK  Name = 
REMARK  5 active torsions:
REMARK  status: ('A' for Active; 'I' for Inactive)
REMARK    1  A    between atoms: N_3  and  C_4
REMARK    2  A    between atoms: C_4  and  C_5
REMARK    3  A    between atoms: C_9  and  C_10
REMARK    4  A    between atoms: N_16  and  C_17
REMARK    5  A    between atoms: C_22  and  C_23
REMARK                            x       y       z     vdW  Elec       q    Type
REMARK                         _______ _______ _______ _____ _____    ______ ____
ROOT
ATOM      1  O   UNL     1       2.421   8.666  17.363  0.00  0.00    +0.000 OA
ATOM      2  C   UNL     1       2.337   8.005  18.387  0.00  0.00    +0.000 C 
ATOM      3  N   UNL     1       1.659   8.458  19.498  0.00  0.00    +0.000 N 
ATOM      4  N   UNL     1       2.855   6.738  18.585  0.00  0.00    +0.000 N 
ATOM      5  H   UNL     1       1.906   8.056  20.389  0.00  0.00    +0.000 HD
ATOM      6  H   UNL     1       2.408   6.207  19.323  0.00  0.00    +0.000 HD
ENDROOT
BRANCH   4   7
ATOM      7  C   UNL     1       3.743   6.044  17.723  0.00  0.00    +0.000 A 
ATOM      8  C   UNL     1       4.924   6.651  17.268  0.00  0.00    +0.000 A 
ATOM      9  C   UNL     1       5.835   5.965  16.460  0.00  0.00    +0.000 A 
ATOM     10  C   UNL     1       5.595   4.647  16.105  0.00  0.00    +0.000 A 
ATOM     11  C   UNL     1       4.432   4.023  16.543  0.00  0.00    +0.000 A 
ATOM     12  C   UNL     1       3.488   4.710  17.344  0.00  0.00    +0.000 A 
BRANCH  12  13
ATOM     13  C   UNL     1       2.230   3.959  17.696  0.00  0.00    +0.000 C 
ATOM     14  F   UNL     1       1.078   4.571  17.292  0.00  0.00    +0.000 F 
ATOM     15  F   UNL     1       2.197   2.712  17.145  0.00  0.00    +0.000 F 
ATOM     16  F   UNL     1       2.089   3.772  19.039  0.00  0.00    +0.000 F 
ENDBRANCH  12  13
ENDBRANCH   4   7
BRANCH   3  17
ATOM     17  C   UNL     1       1.043   9.771  19.499  0.00  0.00    +0.000 C 
BRANCH  17  18
ATOM     18  C   UNL     1       0.398  10.116  20.812  0.00  0.00    +0.000 A 
ATOM     19  C   UNL     1       0.817   9.527  21.999  0.00  0.00    +0.000 A 
ATOM     20  N   UNL     1       0.267   9.782  23.207  0.00  0.00    +0.000 NA
ATOM     21  C   UNL     1      -0.750  10.680  23.237  0.00  0.00    +0.000 A 
ATOM     22  C   UNL     1      -1.252  11.344  22.122  0.00  0.00    +0.000 A 
ATOM     23  C   UNL     1      -0.656  11.040  20.891  0.00  0.00    +0.000 A 
BRANCH  22  24
ATOM     24  C   UNL     1      -2.345  12.309  22.243  0.00  0.00    +0.000 A 
ATOM     25  C   UNL     1      -2.718  13.333  21.306  0.00  0.00    +0.000 A 
ATOM     26  C   UNL     1      -3.817  14.058  21.712  0.00  0.00    +0.000 A 
ATOM     27  S   UNL     1      -4.415  13.521  23.218  0.00  0.00    +0.000 S 
ATOM     28  C   UNL     1      -3.207  12.314  23.327  0.00  0.00    +0.000 A 
ENDBRANCH  22  24
ENDBRANCH  17  18
ENDBRANCH   3  17
TORSDOF 5
ENDMDL
MODEL 3
REMARK VINA RESULT:      -7.9      6.091      7.617
REMARK  Name = 
REMARK  5 active torsions:
REMARK  status: ('A' for Active; 'I' for Inactive)
REMARK    1  A    between atoms: N_3  and  C_4
REMARK    2  A    between atoms: C_4  and  C_5
REMARK    3  A    between atoms: C_9  and  C_10
REMARK    4  A    between atoms: N_16  and  C_17
REMARK    5  A    between atoms: C_22  and  C_23
REMARK                            x       y       z     vdW  Elec       q    Type
REMARK                         _______ _______ _______ _____ _____    ______ ____
ROOT
ATOM      1  O   UNL     1       0.000   7.159  21.026  0.00  0.00    +0.000 OA
ATOM      2  C   UNL     1       1.210   7.322  21.065  0.00  0.00    +0.000 C 
ATOM      3  N   UNL     1       1.777   8.480  21.552  0.00  0.00    +0.000 N 
ATOM      4  N   UNL     1       2.170   6.407  20.677  0.00  0.00    +0.000 N 
ATOM      5  H   UNL     1       2.713   8.702  21.250  0.00  0.00    +0.000 HD
ATOM      6  H   UNL     1       3.084   6.547  21.092  0.00  0.00    +0.000 HD
ENDROOT
BRANCH   4   7
ATOM      7  C   UNL     1       1.945   5.191  19.980  0.00  0.00    +0.000 A 
ATOM      8  C   UNL     1       1.154   4.176  20.541  0.00  0.00    +0.000 A 
ATOM      9  C   UNL     1       0.881   2.994  19.849  0.00  0.00    +0.000 A 
ATOM     10  C   UNL     1       1.377   2.807  18.568  0.00  0.00    +0.000 A 
ATOM     11  C   UNL     1       2.164   3.798  17.990  0.00  0.00    +0.000 A 
ATOM     12  C   UNL     1       2.469   4.992  18.686  0.00  0.00    +0.000 A 
BRANCH  12  13
ATOM     13  C   UNL     1       3.391   5.960  17.991  0.00  0.00    +0.000 C 
ATOM     14  F   UNL     1       2.819   7.162  17.688  0.00  0.00    +0.000 F 
ATOM     15  F   UNL     1       4.494   6.255  18.737  0.00  0.00    +0.000 F 
ATOM     16  F   UNL     1       3.866   5.476  16.808  0.00  0.00    +0.000 F 
ENDBRANCH  12  13
ENDBRANCH   4   7
BRANCH   3  17
ATOM     17  C   UNL     1       0.940   9.573  22.009  0.00  0.00    +0.000 C 
BRANCH  17  18
ATOM     18  C   UNL     1       0.577  10.534  20.911  0.00  0.00    +0.000 A 
ATOM     19  C   UNL     1       1.279  11.719  20.727  0.00  0.00    +0.000 A 
ATOM     20  N   UNL     1       0.991  12.630  19.771  0.00  0.00    +0.000 NA
ATOM     21  C   UNL     1      -0.047  12.341  18.947  0.00  0.00    +0.000 A 
ATOM     22  C   UNL     1      -0.819  11.185  19.022  0.00  0.00    +0.000 A 
ATOM     23  C   UNL     1      -0.488  10.276  20.034  0.00  0.00    +0.000 A 
BRANCH  22  24
ATOM     24  C   UNL     1      -1.916  10.945  18.084  0.00  0.00    +0.000 A 
ATOM     25  C   UNL     1      -1.928  10.047  16.961  0.00  0.00    +0.000 A 
ATOM     26  C   UNL     1      -3.134  10.038  16.294  0.00  0.00    +0.000 A 
ATOM     27  S   UNL     1      -4.265  11.101  17.004  0.00  0.00    +0.000 S 
ATOM     28  C   UNL     1      -3.144  11.573  18.208  0.00  0.00    +0.000 A 
ENDBRANCH  22  24
ENDBRANCH  17  18
ENDBRANCH   3  17
TORSDOF 5
ENDMDL
MODEL 4
REMARK VINA RESULT:      -7.9      6.064      7.689
REMARK  Name = 
REMARK  5 active torsions:
REMARK  status: ('A' for Active; 'I' for Inactive)
REMARK    1  A    between atoms: N_3  and  C_4
REMARK    2  A    between atoms: C_4  and  C_5
REMARK    3  A    between atoms: C_9  and  C_10
REMARK    4  A    between atoms: N_16  and  C_17
REMARK    5  A    between atoms: C_22  and  C_23
REMARK                            x       y       z     vdW  Elec       q    Type
REMARK                         _______ _______ _______ _____ _____    ______ ____
ROOT
ATOM      1  O   UNL     1       3.676   6.700  18.625  0.00  0.00    +0.000 OA
ATOM      2  C   UNL     1       2.534   6.519  18.228  0.00  0.00    +0.000 C 
ATOM      3  N   UNL     1       1.672   7.565  17.980  0.00  0.00    +0.000 N 
ATOM      4  N   UNL     1       1.954   5.298  17.943  0.00  0.00    +0.000 N 
ATOM      5  H   UNL     1       0.684   7.365  17.996  0.00  0.00    +0.000 HD
ATOM      6  H   UNL     1       1.165   5.340  17.308  0.00  0.00    +0.000 HD
ENDROOT
BRANCH   4   7
ATOM      7  C   UNL     1       2.490   4.017  18.239  0.00  0.00    +0.000 A 
ATOM      8  C   UNL     1       3.190   3.287  17.265  0.00  0.00    +0.000 A 
ATOM      9  C   UNL     1       3.767   2.048  17.553  0.00  0.00    +0.000 A 
ATOM     10  C   UNL     1       3.675   1.518  18.831  0.00  0.00    +0.000 A 
ATOM     11  C   UNL     1       2.987   2.222  19.814  0.00  0.00    +0.000 A 
ATOM     12  C   UNL     1       2.377   3.468  19.533  0.00  0.00    +0.000 A 
BRANCH  12  13
ATOM     13  C   UNL     1       1.595   4.103  20.654  0.00  0.00    +0.000 C 
ATOM     14  F   UNL     1       0.298   4.392  20.341  0.00  0.00    +0.000 F 
ATOM     15  F   UNL     1       1.539   3.311  21.762  0.00  0.00    +0.000 F 
ATOM     16  F   UNL     1       2.139   5.281  21.071  0.00  0.00    +0.000 F 
ENDBRANCH  12  13
ENDBRANCH   4   7
BRANCH   3  17
ATOM     17  C   UNL     1       2.087   8.933  18.219  0.00  0.00    +0.000 C 
BRANCH  17  18
ATOM     18  C   UNL     1       0.964   9.813  18.694  0.00  0.00    +0.000 A 
ATOM     19  C   UNL     1       1.040  10.492  19.903  0.00  0.00    +0.000 A 
ATOM     20  N   UNL     1       0.060  11.283  20.393  0.00  0.00    +0.000 NA
ATOM     21  C   UNL     1      -1.057  11.411  19.632  0.00  0.00    +0.000 A 
ATOM     22  C   UNL     1      -1.250  10.792  18.401  0.00  0.00    +0.000 A 
ATOM     23  C   UNL     1      -0.209   9.976  17.940  0.00  0.00    +0.000 A 
BRANCH  22  24
ATOM     24  C   UNL     1      -2.482  10.993  17.636  0.00  0.00    +0.000 A 
ATOM     25  C   UNL     1      -2.710  10.694  16.249  0.00  0.00    +0.000 A 
ATOM     26  C   UNL     1      -3.996  10.981  15.844  0.00  0.00    +0.000 A 
ATOM     27  S   UNL     1      -4.943  11.608  17.118  0.00  0.00    +0.000 S 
ATOM     28  C   UNL     1      -3.635  11.494  18.216  0.00  0.00    +0.000 A 
ENDBRANCH  22  24
ENDBRANCH  17  18
ENDBRANCH   3  17
TORSDOF 5
ENDMDL
MODEL 5
REMARK VINA RESULT:      -7.9      6.092      7.807
REMARK  Name = 
REMARK  5 active torsions:
REMARK  status: ('A' for Active; 'I' for Inactive)
REMARK    1  A    between atoms: N_3  and  C_4
REMARK    2  A    between atoms: C_4  and  C_5
REMARK    3  A    between atoms: C_9  and  C_10
REMARK    4  A    between atoms: N_16  and  C_17
REMARK    5  A    between atoms: C_22  and  C_23
REMARK                            x       y       z     vdW  Elec       q    Type
REMARK                         _______ _______ _______ _____ _____    ______ ____
ROOT
ATOM      1  O   UNL     1       2.006   6.176  21.014  0.00  0.00    +0.000 OA
ATOM      2  C   UNL     1       2.066   6.761  19.943  0.00  0.00    +0.000 C 
ATOM      3  N   UNL     1       1.779   8.104  19.825  0.00  0.00    +0.000 N 
ATOM      4  N   UNL     1       2.446   6.211  18.733  0.00  0.00    +0.000 N 
ATOM      5  H   UNL     1       1.510   8.443  18.914  0.00  0.00    +0.000 HD
ATOM      6  H   UNL     1       2.779   6.879  18.048  0.00  0.00    +0.000 HD
ENDROOT
BRANCH   4   7
ATOM      7  C   UNL     1       2.646   4.833  18.457  0.00  0.00    +0.000 A 
ATOM      8  C   UNL     1       1.556   3.956  18.348  0.00  0.00    +0.000 A 
ATOM      9  C   UNL     1       1.731   2.607  18.027  0.00  0.00    +0.000 A 
ATOM     10  C   UNL     1       3.002   2.108  17.786  0.00  0.00    +0.000 A 
ATOM     11  C   UNL     1       4.099   2.958  17.888  0.00  0.00    +0.000 A 
ATOM     12  C   UNL     1       3.941   4.321  18.234  0.00  0.00    +0.000 A 
BRANCH  12  13
ATOM     13  C   UNL     1       5.205   5.127  18.388  0.00  0.00    +0.000 C 
ATOM     14  F   UNL     1       5.261   6.241  17.601  0.00  0.00    +0.000 F 
ATOM     15  F   UNL     1       5.387   5.570  19.665  0.00  0.00    +0.000 F 
ATOM     16  F   UNL     1       6.325   4.411  18.084  0.00  0.00    +0.000 F 
ENDBRANCH  12  13
ENDBRANCH   4   7
BRANCH   3  17
ATOM     17  C   UNL     1       1.355   8.870  20.981  0.00  0.00    +0.000 C 
BRANCH  17  18
ATOM     18  C   UNL     1       0.354   9.939  20.642  0.00  0.00    +0.000 A 
ATOM     19  C   UNL     1       0.193  11.059  21.448  0.00  0.00    +0.000 A 
ATOM     20  N   UNL     1      -0.699  12.045  21.207  0.00  0.00    +0.000 NA
ATOM     21  C   UNL     1      -1.468  11.913  20.097  0.00  0.00    +0.000 A 
ATOM     22  C   UNL     1      -1.395  10.846  19.206  0.00  0.00    +0.000 A 
ATOM     23  C   UNL     1      -0.461   9.845  19.503  0.00  0.00    +0.000 A 
BRANCH  22  24
ATOM     24  C   UNL     1      -2.254  10.786  18.023  0.00  0.00    +0.000 A 
ATOM     25  C   UNL     1      -2.056  10.000  16.836  0.00  0.00    +0.000 A 
ATOM     26  C   UNL     1      -3.071  10.154  15.916  0.00  0.00    +0.000 A 
ATOM     27  S   UNL     1      -4.270  11.239  16.462  0.00  0.00    +0.000 S 
ATOM     28  C   UNL     1      -3.436  11.502  17.933  0.00  0.00    +0.000 A 
ENDBRANCH  22  24
ENDBRANCH  17  18
ENDBRANCH   3  17
TORSDOF 5
ENDMDL
MODEL 6
REMARK VINA RESULT:      -7.8      6.627      8.240
REMARK  Name = 
REMARK  5 active torsions:
REMARK  status: ('A' for Active; 'I' for Inactive)
REMARK    1  A    between atoms: N_3  and  C_4
REMARK    2  A    between atoms: C_4  and  C_5
REMARK    3  A    between atoms: C_9  and  C_10
REMARK    4  A    between atoms: N_16  and  C_17
REMARK    5  A    between atoms: C_22  and  C_23
REMARK                            x       y       z     vdW  Elec       q    Type
REMARK                         _______ _______ _______ _____ _____    ______ ____
ROOT
ATOM      1  O   UNL     1       2.485   8.744  17.384  0.00  0.00    +0.000 OA
ATOM      2  C   UNL     1       2.365   8.039  18.375  0.00  0.00    +0.000 C 
ATOM      3  N   UNL     1       1.659   8.452  19.484  0.00  0.00    +0.000 N 
ATOM      4  N   UNL     1       2.862   6.759  18.531  0.00  0.00    +0.000 N 
ATOM      5  H   UNL     1       1.876   8.008  20.364  0.00  0.00    +0.000 HD
ATOM      6  H   UNL     1       2.389   6.202  19.233  0.00  0.00    +0.000 HD
ENDROOT
BRANCH   4   7
ATOM      7  C   UNL     1       3.768   6.093  17.665  0.00  0.00    +0.000 A 
ATOM      8  C   UNL     1       4.916   6.744  17.186  0.00  0.00    +0.000 A 
ATOM      9  C   UNL     1       5.844   6.088  16.374  0.00  0.00    +0.000 A 
ATOM     10  C   UNL     1       5.656   4.756  16.038  0.00  0.00    +0.000 A 
ATOM     11  C   UNL     1       4.527   4.089  16.501  0.00  0.00    +0.000 A 
ATOM     12  C   UNL     1       3.565   4.745  17.306  0.00  0.00    +0.000 A 
BRANCH  12  13
ATOM     13  C   UNL     1       2.346   3.945  17.685  0.00  0.00    +0.000 C 
ATOM     14  F   UNL     1       2.215   3.722  19.026  0.00  0.00    +0.000 F 
ATOM     15  F   UNL     1       1.186   4.549  17.298  0.00  0.00    +0.000 F 
ATOM     16  F   UNL     1       2.328   2.710  17.108  0.00  0.00    +0.000 F 
ENDBRANCH  12  13
ENDBRANCH   4   7
BRANCH   3  17
ATOM     17  C   UNL     1       1.057   9.770  19.526  0.00  0.00    +0.000 C 
BRANCH  17  18
ATOM     18  C   UNL     1       0.354  10.054  20.824  0.00  0.00    +0.000 A 
ATOM     19  C   UNL     1       0.554   9.257  21.944  0.00  0.00    +0.000 A 
ATOM     20  N   UNL     1      -0.060   9.449  23.132  0.00  0.00    +0.000 NA
ATOM     21  C   UNL     1      -0.915  10.499  23.213  0.00  0.00    +0.000 A 
ATOM     22  C   UNL     1      -1.191  11.377  22.168  0.00  0.00    +0.000 A 
ATOM     23  C   UNL     1      -0.537  11.131  20.955  0.00  0.00    +0.000 A 
BRANCH  22  24
ATOM     24  C   UNL     1      -2.119  12.495  22.344  0.00  0.00    +0.000 A 
ATOM     25  C   UNL     1      -3.430  12.462  22.930  0.00  0.00    +0.000 A 
ATOM     26  C   UNL     1      -4.033  13.701  22.967  0.00  0.00    +0.000 A 
ATOM     27  S   UNL     1      -3.036  14.917  22.303  0.00  0.00    +0.000 S 
ATOM     28  C   UNL     1      -1.794  13.788  21.968  0.00  0.00    +0.000 A 
ENDBRANCH  22  24
ENDBRANCH  17  18
ENDBRANCH   3  17
TORSDOF 5
ENDMDL
MODEL 7
REMARK VINA RESULT:      -7.8      6.582      7.891
REMARK  Name = 
REMARK  5 active torsions:
REMARK  status: ('A' for Active; 'I' for Inactive)
REMARK    1  A    between atoms: N_3  and  C_4
REMARK    2  A    between atoms: C_4  and  C_5
REMARK    3  A    between atoms: C_9  and  C_10
REMARK    4  A    between atoms: N_16  and  C_17
REMARK    5  A    between atoms: C_22  and  C_23
REMARK                            x       y       z     vdW  Elec       q    Type
REMARK                         _______ _______ _______ _____ _____    ______ ____
ROOT
ATOM      1  O   UNL     1       2.487   8.724  17.339  0.00  0.00    +0.000 OA
ATOM      2  C   UNL     1       2.361   8.027  18.335  0.00  0.00    +0.000 C 
ATOM      3  N   UNL     1       1.650   8.450  19.438  0.00  0.00    +0.000 N 
ATOM      4  N   UNL     1       2.855   6.748  18.504  0.00  0.00    +0.000 N 
ATOM      5  H   UNL     1       1.862   8.013  20.322  0.00  0.00    +0.000 HD
ATOM      6  H   UNL     1       2.376   6.197  19.207  0.00  0.00    +0.000 HD
ENDROOT
BRANCH   4   7
ATOM      7  C   UNL     1       3.764   6.073  17.648  0.00  0.00    +0.000 A 
ATOM      8  C   UNL     1       4.921   6.714  17.179  0.00  0.00    +0.000 A 
ATOM      9  C   UNL     1       5.852   6.049  16.377  0.00  0.00    +0.000 A 
ATOM     10  C   UNL     1       5.657   4.718  16.041  0.00  0.00    +0.000 A 
ATOM     11  C   UNL     1       4.517   4.061  16.493  0.00  0.00    +0.000 A 
ATOM     12  C   UNL     1       3.553   4.726  17.287  0.00  0.00    +0.000 A 
BRANCH  12  13
ATOM     13  C   UNL     1       2.323   3.937  17.655  0.00  0.00    +0.000 C 
ATOM     14  F   UNL     1       1.147   4.525  17.288  0.00  0.00    +0.000 F 
ATOM     15  F   UNL     1       2.309   2.699  17.083  0.00  0.00    +0.000 F 
ATOM     16  F   UNL     1       2.219   3.723  18.998  0.00  0.00    +0.000 F 
ENDBRANCH  12  13
ENDBRANCH   4   7
BRANCH   3  17
ATOM     17  C   UNL     1       1.051   9.770  19.466  0.00  0.00    +0.000 C 
BRANCH  17  18
ATOM     18  C   UNL     1       0.343  10.066  20.759  0.00  0.00    +0.000 A 
ATOM     19  C   UNL     1       0.014   9.053  21.651  0.00  0.00    +0.000 A 
ATOM     20  N   UNL     1      -0.636   9.252  22.819  0.00  0.00    +0.000 NA
ATOM     21  C   UNL     1      -0.969  10.532  23.121  0.00  0.00    +0.000 A 
ATOM     22  C   UNL     1      -0.686  11.633  22.318  0.00  0.00    +0.000 A 
ATOM     23  C   UNL     1      -0.019  11.375  21.113  0.00  0.00    +0.000 A 
BRANCH  22  24
ATOM     24  C   UNL     1      -1.070  12.986  22.724  0.00  0.00    +0.000 A 
ATOM     25  C   UNL     1      -2.217  13.376  23.496  0.00  0.00    +0.000 A 
ATOM     26  C   UNL     1      -2.272  14.733  23.728  0.00  0.00    +0.000 A 
ATOM     27  S   UNL     1      -0.951  15.555  23.025  0.00  0.00    +0.000 S 
ATOM     28  C   UNL     1      -0.301  14.095  22.413  0.00  0.00    +0.000 A 
ENDBRANCH  22  24
ENDBRANCH  17  18
ENDBRANCH   3  17
TORSDOF 5
ENDMDL
MODEL 8
REMARK VINA RESULT:      -7.7      6.021      7.648
REMARK  Name = 
REMARK  5 active torsions:
REMARK  status: ('A' for Active; 'I' for Inactive)
REMARK    1  A    between atoms: N_3  and  C_4
REMARK    2  A    between atoms: C_4  and  C_5
REMARK    3  A    between atoms: C_9  and  C_10
REMARK    4  A    between atoms: N_16  and  C_17
REMARK    5  A    between atoms: C_22  and  C_23
REMARK                            x       y       z     vdW  Elec       q    Type
REMARK                         _______ _______ _______ _____ _____    ______ ____
ROOT
ATOM      1  O   UNL     1       2.752   7.455  19.940  0.00  0.00    +0.000 OA
ATOM      2  C   UNL     1       2.314   7.021  18.885  0.00  0.00    +0.000 C 
ATOM      3  N   UNL     1       1.996   7.848  17.830  0.00  0.00    +0.000 N 
ATOM      4  N   UNL     1       2.107   5.691  18.574  0.00  0.00    +0.000 N 
ATOM      5  H   UNL     1       1.340   7.499  17.147  0.00  0.00    +0.000 HD
ATOM      6  H   UNL     1       2.087   5.484  17.582  0.00  0.00    +0.000 HD
ENDROOT
BRANCH   4   7
ATOM      7  C   UNL     1       2.169   4.593  19.472  0.00  0.00    +0.000 A 
ATOM      8  C   UNL     1       1.022   4.155  20.152  0.00  0.00    +0.000 A 
ATOM      9  C   UNL     1       1.053   3.045  21.001  0.00  0.00    +0.000 A 
ATOM     10  C   UNL     1       2.231   2.334  21.173  0.00  0.00    +0.000 A 
ATOM     11  C   UNL     1       3.381   2.748  20.509  0.00  0.00    +0.000 A 
ATOM     12  C   UNL     1       3.372   3.883  19.664  0.00  0.00    +0.000 A 
BRANCH  12  13
ATOM     13  C   UNL     1       4.693   4.282  19.058  0.00  0.00    +0.000 C 
ATOM     14  F   UNL     1       5.695   3.374  19.246  0.00  0.00    +0.000 F 
ATOM     15  F   UNL     1       4.612   4.465  17.709  0.00  0.00    +0.000 F 
ATOM     16  F   UNL     1       5.168   5.457  19.560  0.00  0.00    +0.000 F 
ENDBRANCH  12  13
ENDBRANCH   4   7
BRANCH   3  17
ATOM     17  C   UNL     1       2.139   9.286  17.952  0.00  0.00    +0.000 C 
BRANCH  17  18
ATOM     18  C   UNL     1       0.935   9.945  18.564  0.00  0.00    +0.000 A 
ATOM     19  C   UNL     1       0.942  10.380  19.884  0.00  0.00    +0.000 A 
ATOM     20  N   UNL     1      -0.112  10.963  20.496  0.00  0.00    +0.000 NA
ATOM     21  C   UNL     1      -1.233  11.132  19.751  0.00  0.00    +0.000 A 
ATOM     22  C   UNL     1      -1.362  10.751  18.418  0.00  0.00    +0.000 A 
ATOM     23  C   UNL     1      -0.246  10.143  17.830  0.00  0.00    +0.000 A 
BRANCH  22  24
ATOM     24  C   UNL     1      -2.605  10.982  17.681  0.00  0.00    +0.000 A 
ATOM     25  C   UNL     1      -2.869  10.696  16.298  0.00  0.00    +0.000 A 
ATOM     26  C   UNL     1      -4.156  11.010  15.921  0.00  0.00    +0.000 A 
ATOM     27  S   UNL     1      -5.064  11.650  17.217  0.00  0.00    +0.000 S 
ATOM     28  C   UNL     1      -3.736  11.503  18.287  0.00  0.00    +0.000 A 
ENDBRANCH  22  24
ENDBRANCH  17  18
ENDBRANCH   3  17
TORSDOF 5
ENDMDL
MODEL 9
REMARK VINA RESULT:      -7.7      5.968      7.615
REMARK  Name = 
REMARK  5 active torsions:
REMARK  status: ('A' for Active; 'I' for Inactive)
REMARK    1  A    between atoms: N_3  and  C_4
REMARK    2  A    between atoms: C_4  and  C_5
REMARK    3  A    between atoms: C_9  and  C_10
REMARK    4  A    between atoms: N_16  and  C_17
REMARK    5  A    between atoms: C_22  and  C_23
REMARK                            x       y       z     vdW  Elec       q    Type
REMARK                         _______ _______ _______ _____ _____    ______ ____
ROOT
ATOM      1  O   UNL     1       3.176   6.792  19.379  0.00  0.00    +0.000 OA
ATOM      2  C   UNL     1       2.502   6.810  18.360  0.00  0.00    +0.000 C 
ATOM      3  N   UNL     1       2.018   7.984  17.824  0.00  0.00    +0.000 N 
ATOM      4  N   UNL     1       2.158   5.715  17.591  0.00  0.00    +0.000 N 
ATOM      5  H   UNL     1       1.214   7.920  17.218  0.00  0.00    +0.000 HD
ATOM      6  H   UNL     1       1.918   5.929  16.630  0.00  0.00    +0.000 HD
ENDROOT
BRANCH   4   7
ATOM      7  C   UNL     1       2.343   4.350  17.932  0.00  0.00    +0.000 A 
ATOM      8  C   UNL     1       1.312   3.613  18.534  0.00  0.00    +0.000 A 
ATOM      9  C   UNL     1       1.459   2.255  18.830  0.00  0.00    +0.000 A 
ATOM     10  C   UNL     1       2.638   1.598  18.513  0.00  0.00    +0.000 A 
ATOM     11  C   UNL     1       3.675   2.307  17.916  0.00  0.00    +0.000 A 
ATOM     12  C   UNL     1       3.551   3.687  17.629  0.00  0.00    +0.000 A 
BRANCH  12  13
ATOM     13  C   UNL     1       4.765   4.368  17.052  0.00  0.00    +0.000 C 
ATOM     14  F   UNL     1       5.674   3.516  16.492  0.00  0.00    +0.000 F 
ATOM     15  F   UNL     1       4.444   5.259  16.071  0.00  0.00    +0.000 F 
ATOM     16  F   UNL     1       5.460   5.080  17.983  0.00  0.00    +0.000 F 
ENDBRANCH  12  13
ENDBRANCH   4   7
BRANCH   3  17
ATOM     17  C   UNL     1       2.266   9.252  18.483  0.00  0.00    +0.000 C 
BRANCH  17  18
ATOM     18  C   UNL     1       1.005   9.941  18.924  0.00  0.00    +0.000 A 
ATOM     19  C   UNL     1       0.878  10.466  20.204  0.00  0.00    +0.000 A 
ATOM     20  N   UNL     1      -0.234  11.080  20.666  0.00  0.00    +0.000 NA
ATOM     21  C   UNL     1      -1.274  11.187  19.802  0.00  0.00    +0.000 A 
ATOM     22  C   UNL     1      -1.267  10.714  18.493  0.00  0.00    +0.000 A 
ATOM     23  C   UNL     1      -0.096  10.076  18.063  0.00  0.00    +0.000 A 
BRANCH  22  24
ATOM     24  C   UNL     1      -2.430  10.881  17.620  0.00  0.00    +0.000 A 
ATOM     25  C   UNL     1      -2.563  10.469  16.250  0.00  0.00    +0.000 A 
ATOM     26  C   UNL     1      -3.804  10.754  15.722  0.00  0.00    +0.000 A 
ATOM     27  S   UNL     1      -4.823  11.516  16.860  0.00  0.00    +0.000 S 
ATOM     28  C   UNL     1      -3.606  11.462  18.063  0.00  0.00    +0.000 A 
ENDBRANCH  22  24
ENDBRANCH  17  18
ENDBRANCH   3  17
TORSDOF 5
ENDMDL
