MODEL 1
REMARK VINA RESULT:      -8.1      0.000      0.000
REMARK  Name = 
REMARK  9 active torsions:
REMARK  status: ('A' for Active; 'I' for Inactive)
REMARK    1  A    between atoms: C_1  and  C_2
REMARK    2  A    between atoms: C_2  and  C_3
REMARK    3  A    between atoms: N_5  and  C_6
REMARK    4  A    between atoms: C_6  and  C_7
REMARK    5  A    between atoms: C_7  and  C_8
REMARK    6  A    between atoms: C_7  and  C_15
REMARK    7  A    between atoms: C_8  and  C_9
REMARK    8  A    between atoms: C_19  and  O_20
REMARK    9  A    between atoms: O_20  and  C_21
REMARK                            x       y       z     vdW  Elec       q    Type
REMARK                         _______ _______ _______ _____ _____    ______ ____
ROOT
ATOM      1  C   UNL     1       5.972   4.867  15.820  0.00  0.00    +0.000 C 
ENDROOT
BRANCH   1   2
ATOM      2  C   UNL     1       6.790   5.616  16.880  0.00  0.00    +0.000 A 
ATOM      3  C   UNL     1       7.355   4.984  17.998  0.00  0.00    +0.000 A 
ATOM      4  C   UNL     1       8.059   5.715  18.955  0.00  0.00    +0.000 A 
ATOM      5  C   UNL     1       8.200   7.093  18.819  0.00  0.00    +0.000 A 
ATOM      6  C   UNL     1       7.672   7.747  17.707  0.00  0.00    +0.000 A 
ATOM      7  C   UNL     1       7.003   7.003  16.732  0.00  0.00    +0.000 A 
BRANCH   6   8
ATOM      8  O   UNL     1       7.861   9.102  17.691  0.00  0.00    +0.000 OA
ATOM      9  C   UNL     1       8.780   9.631  18.638  0.00  0.00    +0.000 C 
ENDBRANCH   6   8
ENDBRANCH   1   2
BRANCH   1  10
ATOM     10  C   UNL     1       6.786   4.436  14.576  0.00  0.00    +0.000 C 
BRANCH  10  13
ATOM     11  C   UNL     1       6.395   3.456  12.348  0.00  0.00    +0.000 C 
ATOM     12  O   UNL     1       7.169   4.223  11.793  0.00  0.00    +0.000 OA
ATOM     13  N   UNL     1       6.090   3.509  13.698  0.00  0.00    +0.000 N 
ATOM     14  H   UNL     1       5.697   2.671  14.101  0.00  0.00    +0.000 HD
BRANCH  11  16
ATOM     15  C   UNL     1       6.578   1.285  11.080  0.00  0.00    +0.000 C 
ATOM     16  C   UNL     1       5.646   2.349  11.629  0.00  0.00    +0.000 C 
ENDBRANCH  11  16
ENDBRANCH  10  13
ENDBRANCH   1  10
BRANCH   1  17
ATOM     17  C   UNL     1       5.137   3.700  16.423  0.00  0.00    +0.000 C 
BRANCH  17  18
ATOM     18  C   UNL     1       3.873   4.055  17.172  0.00  0.00    +0.000 A 
ATOM     19  C   UNL     1       3.612   5.379  17.554  0.00  0.00    +0.000 A 
ATOM     20  C   UNL     1       2.402   5.720  18.163  0.00  0.00    +0.000 A 
ATOM     21  C   UNL     1       1.442   4.742  18.406  0.00  0.00    +0.000 A 
ATOM     22  C   UNL     1       1.698   3.418  18.053  0.00  0.00    +0.000 A 
ATOM     23  C   UNL     1       2.905   3.078  17.440  0.00  0.00    +0.000 A 
ENDBRANCH  17  18
ENDBRANCH   1  17
TORSDOF 7
ENDMDL
MODEL 2
REMARK VINA RESULT:      -8.0      3.276      5.684
REMARK  Name = 
REMARK  9 active torsions:
REMARK  status: ('A' for Active; 'I' for Inactive)
REMARK    1  A    between atoms: C_1  and  C_2
REMARK    2  A    between atoms: C_2  and  C_3
REMARK    3  A    between atoms: N_5  and  C_6
REMARK    4  A    between atoms: C_6  and  C_7
REMARK    5  A    between atoms: C_7  and  C_8
REMARK    6  A    between atoms: C_7  and  C_15
REMARK    7  A    between atoms: C_8  and  C_9
REMARK    8  A    between atoms: C_19  and  O_20
REMARK    9  A    between atoms: O_20  and  C_21
REMARK                            x       y       z     vdW  Elec       q    Type
REMARK                         _______ _______ _______ _____ _____    ______ ____
ROOT
ATOM      1  C   UNL     1       3.058   5.452  17.681  0.00  0.00    +0.000 C 
ENDROOT
BRANCH   1   2
ATOM      2  C   UNL     1       4.413   5.209  17.003  0.00  0.00    +0.000 A 
ATOM      3  C   UNL     1       4.724   4.024  16.320  0.00  0.00    +0.000 A 
ATOM      4  C   UNL     1       5.985   3.833  15.753  0.00  0.00    +0.000 A 
ATOM      5  C   UNL     1       6.960   4.819  15.869  0.00  0.00    +0.000 A 
ATOM      6  C   UNL     1       6.674   6.018  16.518  0.00  0.00    +0.000 A 
ATOM      7  C   UNL     1       5.397   6.219  17.049  0.00  0.00    +0.000 A 
BRANCH   6   8
ATOM      8  O   UNL     1       7.715   6.903  16.581  0.00  0.00    +0.000 OA
ATOM      9  C   UNL     1       7.687   7.851  17.641  0.00  0.00    +0.000 C 
ENDBRANCH   6   8
ENDBRANCH   1   2
BRANCH   1  10
ATOM     10  C   UNL     1       2.225   4.168  17.913  0.00  0.00    +0.000 C 
BRANCH  10  13
ATOM     11  C   UNL     1       3.009   2.861  19.852  0.00  0.00    +0.000 C 
ATOM     12  O   UNL     1       3.860   2.270  19.202  0.00  0.00    +0.000 OA
ATOM     13  N   UNL     1       2.116   3.770  19.308  0.00  0.00    +0.000 N 
ATOM     14  H   UNL     1       1.678   4.409  19.955  0.00  0.00    +0.000 HD
BRANCH  11  16
ATOM     15  C   UNL     1       1.331   2.631  21.719  0.00  0.00    +0.000 C 
ATOM     16  C   UNL     1       2.801   2.666  21.342  0.00  0.00    +0.000 C 
ENDBRANCH  11  16
ENDBRANCH  10  13
ENDBRANCH   1  10
BRANCH   1  17
ATOM     17  C   UNL     1       3.177   6.328  18.961  0.00  0.00    +0.000 C 
BRANCH  17  18
ATOM     18  C   UNL     1       2.293   7.551  19.059  0.00  0.00    +0.000 A 
ATOM     19  C   UNL     1       1.722   7.929  20.283  0.00  0.00    +0.000 A 
ATOM     20  C   UNL     1       0.982   9.110  20.390  0.00  0.00    +0.000 A 
ATOM     21  C   UNL     1       0.798   9.922  19.275  0.00  0.00    +0.000 A 
ATOM     22  C   UNL     1       1.340   9.546  18.048  0.00  0.00    +0.000 A 
ATOM     23  C   UNL     1       2.083   8.369  17.941  0.00  0.00    +0.000 A 
ENDBRANCH  17  18
ENDBRANCH   1  17
TORSDOF 7
ENDMDL
MODEL 3
REMARK VINA RESULT:      -8.0      3.298      5.697
REMARK  Name = 
REMARK  9 active torsions:
REMARK  status: ('A' for Active; 'I' for Inactive)
REMARK    1  A    between atoms: C_1  and  C_2
REMARK    2  A    between atoms: C_2  and  C_3
REMARK    3  A    between atoms: N_5  and  C_6
REMARK    4  A    between atoms: C_6  and  C_7
REMARK    5  A    between atoms: C_7  and  C_8
REMARK    6  A    between atoms: C_7  and  C_15
REMARK    7  A    between atoms: C_8  and  C_9
REMARK    8  A    between atoms: C_19  and  O_20
REMARK    9  A    between atoms: O_20  and  C_21
REMARK                            x       y       z     vdW  Elec       q    Type
REMARK                         _______ _______ _______ _____ _____    ______ ____
ROOT
ATOM      1  C   UNL     1       3.029   5.467  17.725  0.00  0.00    +0.000 C 
ENDROOT
BRANCH   1   2
ATOM      2  C   UNL     1       4.374   5.213  17.033  0.00  0.00    +0.000 A 
ATOM      3  C   UNL     1       4.663   4.030  16.335  0.00  0.00    +0.000 A 
ATOM      4  C   UNL     1       5.916   3.828  15.754  0.00  0.00    +0.000 A 
ATOM      5  C   UNL     1       6.906   4.799  15.872  0.00  0.00    +0.000 A 
ATOM      6  C   UNL     1       6.643   5.994  16.537  0.00  0.00    +0.000 A 
ATOM      7  C   UNL     1       5.374   6.207  17.081  0.00  0.00    +0.000 A 
BRANCH   6   8
ATOM      8  O   UNL     1       7.697   6.864  16.600  0.00  0.00    +0.000 OA
ATOM      9  C   UNL     1       7.660   7.840  17.633  0.00  0.00    +0.000 C 
ENDBRANCH   6   8
ENDBRANCH   1   2
BRANCH   1  10
ATOM     10  C   UNL     1       2.186   4.192  17.963  0.00  0.00    +0.000 C 
BRANCH  10  13
ATOM     11  C   UNL     1       2.951   2.834  19.875  0.00  0.00    +0.000 C 
ATOM     12  O   UNL     1       3.757   2.207  19.202  0.00  0.00    +0.000 OA
ATOM     13  N   UNL     1       2.091   3.789  19.358  0.00  0.00    +0.000 N 
ATOM     14  H   UNL     1       1.700   4.444  20.019  0.00  0.00    +0.000 HD
BRANCH  11  16
ATOM     15  C   UNL     1       1.307   2.643  21.776  0.00  0.00    +0.000 C 
ATOM     16  C   UNL     1       2.768   2.639  21.368  0.00  0.00    +0.000 C 
ENDBRANCH  11  16
ENDBRANCH  10  13
ENDBRANCH   1  10
BRANCH   1  17
ATOM     17  C   UNL     1       3.170   6.340  19.006  0.00  0.00    +0.000 C 
BRANCH  17  18
ATOM     18  C   UNL     1       2.345   7.603  19.088  0.00  0.00    +0.000 A 
ATOM     19  C   UNL     1       2.104   8.381  17.946  0.00  0.00    +0.000 A 
ATOM     20  C   UNL     1       1.265   9.497  18.006  0.00  0.00    +0.000 A 
ATOM     21  C   UNL     1       0.662   9.852  19.209  0.00  0.00    +0.000 A 
ATOM     22  C   UNL     1       0.911   9.103  20.357  0.00  0.00    +0.000 A 
ATOM     23  C   UNL     1       1.745   7.986  20.296  0.00  0.00    +0.000 A 
ENDBRANCH  17  18
ENDBRANCH   1  17
TORSDOF 7
ENDMDL
MODEL 4
REMARK VINA RESULT:      -7.7      3.378      4.967
REMARK  Name = 
REMARK  9 active torsions:
REMARK  status: ('A' for Active; 'I' for Inactive)
REMARK    1  A    between atoms: C_1  and  C_2
REMARK    2  A    between atoms: C_2  and  C_3
REMARK    3  A    between atoms: N_5  and  C_6
REMARK    4  A    between atoms: C_6  and  C_7
REMARK    5  A    between atoms: C_7  and  C_8
REMARK    6  A    between atoms: C_7  and  C_15
REMARK    7  A    between atoms: C_8  and  C_9
REMARK    8  A    between atoms: C_19  and  O_20
REMARK    9  A    between atoms: O_20  and  C_21
REMARK                            x       y       z     vdW  Elec       q    Type
REMARK                         _______ _______ _______ _____ _____    ______ ____
ROOT
ATOM      1  C   UNL     1       4.003   5.664  17.906  0.00  0.00    +0.000 C 
ENDROOT
BRANCH   1   2
ATOM      2  C   UNL     1       5.476   6.024  18.140  0.00  0.00    +0.000 A 
ATOM      3  C   UNL     1       6.318   5.288  18.988  0.00  0.00    +0.000 A 
ATOM      4  C   UNL     1       7.641   5.678  19.200  0.00  0.00    +0.000 A 
ATOM      5  C   UNL     1       8.142   6.817  18.577  0.00  0.00    +0.000 A 
ATOM      6  C   UNL     1       7.340   7.555  17.710  0.00  0.00    +0.000 A 
ATOM      7  C   UNL     1       6.028   7.137  17.471  0.00  0.00    +0.000 A 
BRANCH   6   8
ATOM      8  O   UNL     1       7.938   8.660  17.170  0.00  0.00    +0.000 OA
ATOM      9  C   UNL     1       8.494   9.598  18.084  0.00  0.00    +0.000 C 
ENDBRANCH   6   8
ENDBRANCH   1   2
BRANCH   1  10
ATOM     10  C   UNL     1       3.773   4.212  17.422  0.00  0.00    +0.000 C 
BRANCH  10  13
ATOM     11  C   UNL     1       1.542   3.407  18.096  0.00  0.00    +0.000 C 
ATOM     12  O   UNL     1       0.962   4.108  17.280  0.00  0.00    +0.000 OA
ATOM     13  N   UNL     1       2.914   3.422  18.290  0.00  0.00    +0.000 N 
ATOM     14  H   UNL     1       3.310   2.615  18.749  0.00  0.00    +0.000 HD
BRANCH  11  16
ATOM     15  C   UNL     1       1.011   2.808  20.487  0.00  0.00    +0.000 C 
ATOM     16  C   UNL     1       0.838   2.437  19.026  0.00  0.00    +0.000 C 
ENDBRANCH  11  16
ENDBRANCH  10  13
ENDBRANCH   1  10
BRANCH   1  17
ATOM     17  C   UNL     1       3.095   6.045  19.110  0.00  0.00    +0.000 C 
BRANCH  17  18
ATOM     18  C   UNL     1       2.405   7.389  19.071  0.00  0.00    +0.000 A 
ATOM     19  C   UNL     1       2.333   8.127  17.881  0.00  0.00    +0.000 A 
ATOM     20  C   UNL     1       1.616   9.324  17.825  0.00  0.00    +0.000 A 
ATOM     21  C   UNL     1       0.967   9.803  18.960  0.00  0.00    +0.000 A 
ATOM     22  C   UNL     1       1.049   9.092  20.155  0.00  0.00    +0.000 A 
ATOM     23  C   UNL     1       1.762   7.894  20.211  0.00  0.00    +0.000 A 
ENDBRANCH  17  18
ENDBRANCH   1  17
TORSDOF 7
ENDMDL
MODEL 5
REMARK VINA RESULT:      -7.7      3.425      5.786
REMARK  Name = 
REMARK  9 active torsions:
REMARK  status: ('A' for Active; 'I' for Inactive)
REMARK    1  A    between atoms: C_1  and  C_2
REMARK    2  A    between atoms: C_2  and  C_3
REMARK    3  A    between atoms: N_5  and  C_6
REMARK    4  A    between atoms: C_6  and  C_7
REMARK    5  A    between atoms: C_7  and  C_8
REMARK    6  A    between atoms: C_7  and  C_15
REMARK    7  A    between atoms: C_8  and  C_9
REMARK    8  A    between atoms: C_19  and  O_20
REMARK    9  A    between atoms: O_20  and  C_21
REMARK                            x       y       z     vdW  Elec       q    Type
REMARK                         _______ _______ _______ _____ _____    ______ ____
ROOT
ATOM      1  C   UNL     1       3.178   5.865  18.051  0.00  0.00    +0.000 C 
ENDROOT
BRANCH   1   2
ATOM      2  C   UNL     1       4.695   5.647  17.979  0.00  0.00    +0.000 A 
ATOM      3  C   UNL     1       5.493   5.441  19.114  0.00  0.00    +0.000 A 
ATOM      4  C   UNL     1       6.875   5.286  19.001  0.00  0.00    +0.000 A 
ATOM      5  C   UNL     1       7.486   5.347  17.752  0.00  0.00    +0.000 A 
ATOM      6  C   UNL     1       6.719   5.524  16.603  0.00  0.00    +0.000 A 
ATOM      7  C   UNL     1       5.331   5.638  16.719  0.00  0.00    +0.000 A 
BRANCH   6   8
ATOM      8  O   UNL     1       7.431   5.581  15.436  0.00  0.00    +0.000 OA
ATOM      9  C   UNL     1       6.934   4.816  14.345  0.00  0.00    +0.000 C 
ENDBRANCH   6   8
ENDBRANCH   1   2
BRANCH   1  10
ATOM     10  C   UNL     1       2.339   4.621  17.671  0.00  0.00    +0.000 C 
BRANCH  10  13
ATOM     11  C   UNL     1       2.460   2.793  19.322  0.00  0.00    +0.000 C 
ATOM     12  O   UNL     1       3.460   2.304  18.816  0.00  0.00    +0.000 OA
ATOM     13  N   UNL     1       1.796   3.895  18.809  0.00  0.00    +0.000 N 
ATOM     14  H   UNL     1       1.190   4.390  19.447  0.00  0.00    +0.000 HD
BRANCH  11  16
ATOM     15  C   UNL     1       1.865   3.223  21.733  0.00  0.00    +0.000 C 
ATOM     16  C   UNL     1       1.796   2.248  20.573  0.00  0.00    +0.000 C 
ENDBRANCH  11  16
ENDBRANCH  10  13
ENDBRANCH   1  10
BRANCH   1  17
ATOM     17  C   UNL     1       2.728   6.502  19.397  0.00  0.00    +0.000 C 
BRANCH  17  18
ATOM     18  C   UNL     1       2.056   7.855  19.343  0.00  0.00    +0.000 A 
ATOM     19  C   UNL     1       2.011   8.588  18.148  0.00  0.00    +0.000 A 
ATOM     20  C   UNL     1       1.310   9.794  18.077  0.00  0.00    +0.000 A 
ATOM     21  C   UNL     1       0.651  10.286  19.200  0.00  0.00    +0.000 A 
ATOM     22  C   UNL     1       0.707   9.580  20.400  0.00  0.00    +0.000 A 
ATOM     23  C   UNL     1       1.404   8.373  20.471  0.00  0.00    +0.000 A 
ENDBRANCH  17  18
ENDBRANCH   1  17
TORSDOF 7
ENDMDL
MODEL 6
REMARK VINA RESULT:      -7.7      3.317      5.928
REMARK  Name = 
REMARK  9 active torsions:
REMARK  status: ('A' for Active; 'I' for Inactive)
REMARK    1  A    between atoms: C_1  and  C_2
REMARK    2  A    between atoms: C_2  and  C_3
REMARK    3  A    between atoms: N_5  and  C_6
REMARK    4  A    between atoms: C_6  and  C_7
REMARK    5  A    between atoms: C_7  and  C_8
REMARK    6  A    between atoms: C_7  and  C_15
REMARK    7  A    between atoms: C_8  and  C_9
REMARK    8  A    between atoms: C_19  and  O_20
REMARK    9  A    between atoms: O_20  and  C_21
REMARK                            x       y       z     vdW  Elec       q    Type
REMARK                         _______ _______ _______ _____ _____    ______ ____
ROOT
ATOM      1  C   UNL     1       3.271   5.628  17.806  0.00  0.00    +0.000 C 
ENDROOT
BRANCH   1   2
ATOM      2  C   UNL     1       4.734   5.242  17.552  0.00  0.00    +0.000 A 
ATOM      3  C   UNL     1       5.685   5.132  18.578  0.00  0.00    +0.000 A 
ATOM      4  C   UNL     1       7.014   4.816  18.293  0.00  0.00    +0.000 A 
ATOM      5  C   UNL     1       7.418   4.617  16.976  0.00  0.00    +0.000 A 
ATOM      6  C   UNL     1       6.493   4.695  15.937  0.00  0.00    +0.000 A 
ATOM      7  C   UNL     1       5.156   4.971  16.234  0.00  0.00    +0.000 A 
BRANCH   6   8
ATOM      8  O   UNL     1       7.011   4.495  14.687  0.00  0.00    +0.000 OA
ATOM      9  C   UNL     1       6.157   3.877  13.732  0.00  0.00    +0.000 C 
ENDBRANCH   6   8
ENDBRANCH   1   2
BRANCH   1  10
ATOM     10  C   UNL     1       2.267   4.464  17.625  0.00  0.00    +0.000 C 
BRANCH  10  13
ATOM     11  C   UNL     1       2.198   2.696  19.343  0.00  0.00    +0.000 C 
ATOM     12  O   UNL     1       2.955   1.962  18.724  0.00  0.00    +0.000 OA
ATOM     13  N   UNL     1       1.750   3.919  18.871  0.00  0.00    +0.000 N 
ATOM     14  H   UNL     1       1.393   4.562  19.562  0.00  0.00    +0.000 HD
BRANCH  11  16
ATOM     15  C   UNL     1       2.082   3.334  21.779  0.00  0.00    +0.000 C 
ATOM     16  C   UNL     1       1.628   2.360  20.709  0.00  0.00    +0.000 C 
ENDBRANCH  11  16
ENDBRANCH  10  13
ENDBRANCH   1  10
BRANCH   1  17
ATOM     17  C   UNL     1       3.075   6.382  19.153  0.00  0.00    +0.000 C 
BRANCH  17  18
ATOM     18  C   UNL     1       2.216   7.626  19.142  0.00  0.00    +0.000 A 
ATOM     19  C   UNL     1       1.604   8.088  20.316  0.00  0.00    +0.000 A 
ATOM     20  C   UNL     1       0.888   9.287  20.323  0.00  0.00    +0.000 A 
ATOM     21  C   UNL     1       0.767  10.035  19.155  0.00  0.00    +0.000 A 
ATOM     22  C   UNL     1       1.349   9.576  17.975  0.00  0.00    +0.000 A 
ATOM     23  C   UNL     1       2.069   8.380  17.969  0.00  0.00    +0.000 A 
ENDBRANCH  17  18
ENDBRANCH   1  17
TORSDOF 7
ENDMDL
MODEL 7
REMARK VINA RESULT:      -7.7      1.312      1.923
REMARK  Name = 
REMARK  9 active torsions:
REMARK  status: ('A' for Active; 'I' for Inactive)
REMARK    1  A    between atoms: C_1  and  C_2
REMARK    2  A    between atoms: C_2  and  C_3
REMARK    3  A    between atoms: N_5  and  C_6
REMARK    4  A    between atoms: C_6  and  C_7
REMARK    5  A    between atoms: C_7  and  C_8
REMARK    6  A    between atoms: C_7  and  C_15
REMARK    7  A    between atoms: C_8  and  C_9
REMARK    8  A    between atoms: C_19  and  O_20
REMARK    9  A    between atoms: O_20  and  C_21
REMARK                            x       y       z     vdW  Elec       q    Type
REMARK                         _______ _______ _______ _____ _____    ______ ____
ROOT
ATOM      1  C   UNL     1       4.754   5.568  16.783  0.00  0.00    +0.000 C 
ENDROOT
BRANCH   1   2
ATOM      2  C   UNL     1       6.018   6.088  17.480  0.00  0.00    +0.000 A 
ATOM      3  C   UNL     1       6.729   5.341  18.431  0.00  0.00    +0.000 A 
ATOM      4  C   UNL     1       7.851   5.873  19.067  0.00  0.00    +0.000 A 
ATOM      5  C   UNL     1       8.275   7.165  18.773  0.00  0.00    +0.000 A 
ATOM      6  C   UNL     1       7.606   7.924  17.815  0.00  0.00    +0.000 A 
ATOM      7  C   UNL     1       6.508   7.370  17.152  0.00  0.00    +0.000 A 
BRANCH   6   8
ATOM      8  O   UNL     1       8.107   9.182  17.622  0.00  0.00    +0.000 OA
ATOM      9  C   UNL     1       8.887   9.729  18.678  0.00  0.00    +0.000 C 
ENDBRANCH   6   8
ENDBRANCH   1   2
BRANCH   1  10
ATOM     10  C   UNL     1       4.899   4.149  16.182  0.00  0.00    +0.000 C 
BRANCH  10  13
ATOM     11  C   UNL     1       6.519   4.282  14.328  0.00  0.00    +0.000 C 
ATOM     12  O   UNL     1       7.457   4.536  15.069  0.00  0.00    +0.000 OA
ATOM     13  N   UNL     1       5.212   4.129  14.762  0.00  0.00    +0.000 N 
ATOM     14  H   UNL     1       4.590   3.633  14.142  0.00  0.00    +0.000 HD
BRANCH  11  16
ATOM     15  C   UNL     1       5.555   3.246  12.242  0.00  0.00    +0.000 C 
ATOM     16  C   UNL     1       6.652   4.117  12.826  0.00  0.00    +0.000 C 
ENDBRANCH  11  16
ENDBRANCH  10  13
ENDBRANCH   1  10
BRANCH   1  17
ATOM     17  C   UNL     1       3.479   5.720  17.662  0.00  0.00    +0.000 C 
BRANCH  17  18
ATOM     18  C   UNL     1       2.922   4.473  18.310  0.00  0.00    +0.000 A 
ATOM     19  C   UNL     1       3.566   3.884  19.408  0.00  0.00    +0.000 A 
ATOM     20  C   UNL     1       3.000   2.787  20.063  0.00  0.00    +0.000 A 
ATOM     21  C   UNL     1       1.789   2.261  19.624  0.00  0.00    +0.000 A 
ATOM     22  C   UNL     1       1.150   2.821  18.520  0.00  0.00    +0.000 A 
ATOM     23  C   UNL     1       1.713   3.919  17.868  0.00  0.00    +0.000 A 
ENDBRANCH  17  18
ENDBRANCH   1  17
TORSDOF 7
ENDMDL
MODEL 8
REMARK VINA RESULT:      -7.7      3.395      5.811
REMARK  Name = 
REMARK  9 active torsions:
REMARK  status: ('A' for Active; 'I' for Inactive)
REMARK    1  A    between atoms: C_1  and  C_2
REMARK    2  A    between atoms: C_2  and  C_3
REMARK    3  A    between atoms: N_5  and  C_6
REMARK    4  A    between atoms: C_6  and  C_7
REMARK    5  A    between atoms: C_7  and  C_8
REMARK    6  A    between atoms: C_7  and  C_15
REMARK    7  A    between atoms: C_8  and  C_9
REMARK    8  A    between atoms: C_19  and  O_20
REMARK    9  A    between atoms: O_20  and  C_21
REMARK                            x       y       z     vdW  Elec       q    Type
REMARK                         _______ _______ _______ _____ _____    ______ ____
ROOT
ATOM      1  C   UNL     1       3.046   5.369  17.572  0.00  0.00    +0.000 C 
ENDROOT
BRANCH   1   2
ATOM      2  C   UNL     1       4.465   5.022  17.101  0.00  0.00    +0.000 A 
ATOM      3  C   UNL     1       4.757   4.612  15.792  0.00  0.00    +0.000 A 
ATOM      4  C   UNL     1       6.058   4.270  15.421  0.00  0.00    +0.000 A 
ATOM      5  C   UNL     1       7.087   4.318  16.356  0.00  0.00    +0.000 A 
ATOM      6  C   UNL     1       6.835   4.745  17.658  0.00  0.00    +0.000 A 
ATOM      7  C   UNL     1       5.537   5.125  18.012  0.00  0.00    +0.000 A 
BRANCH   6   8
ATOM      8  O   UNL     1       7.921   4.737  18.489  0.00  0.00    +0.000 OA
ATOM      9  C   UNL     1       7.953   5.727  19.510  0.00  0.00    +0.000 C 
ENDBRANCH   6   8
ENDBRANCH   1   2
BRANCH   1  10
ATOM     10  C   UNL     1       2.046   4.191  17.494  0.00  0.00    +0.000 C 
BRANCH  10  13
ATOM     11  C   UNL     1       1.942   2.734  19.481  0.00  0.00    +0.000 C 
ATOM     12  O   UNL     1       2.800   1.972  19.058  0.00  0.00    +0.000 OA
ATOM     13  N   UNL     1       1.457   3.820  18.772  0.00  0.00    +0.000 N 
ATOM     14  H   UNL     1       0.996   4.537  19.312  0.00  0.00    +0.000 HD
BRANCH  11  16
ATOM     15  C   UNL     1       2.135   3.120  21.965  0.00  0.00    +0.000 C 
ATOM     16  C   UNL     1       1.275   2.583  20.836  0.00  0.00    +0.000 C 
ENDBRANCH  11  16
ENDBRANCH  10  13
ENDBRANCH   1  10
BRANCH   1  17
ATOM     17  C   UNL     1       3.031   6.077  18.957  0.00  0.00    +0.000 C 
BRANCH  17  18
ATOM     18  C   UNL     1       2.336   7.416  19.053  0.00  0.00    +0.000 A 
ATOM     19  C   UNL     1       2.190   8.233  17.923  0.00  0.00    +0.000 A 
ATOM     20  C   UNL     1       1.466   9.426  17.993  0.00  0.00    +0.000 A 
ATOM     21  C   UNL     1       0.887   9.821  19.196  0.00  0.00    +0.000 A 
ATOM     22  C   UNL     1       1.044   9.030  20.333  0.00  0.00    +0.000 A 
ATOM     23  C   UNL     1       1.763   7.836  20.261  0.00  0.00    +0.000 A 
ENDBRANCH  17  18
ENDBRANCH   1  17
TORSDOF 7
ENDMDL
MODEL 9
REMARK VINA RESULT:      -7.7      3.265      5.570
REMARK  Name = 
REMARK  9 active torsions:
REMARK  status: ('A' for Active; 'I' for Inactive)
REMARK    1  A    between atoms: C_1  and  C_2
REMARK    2  A    between atoms: C_2  and  C_3
REMARK    3  A    between atoms: N_5  and  C_6
REMARK    4  A    between atoms: C_6  and  C_7
REMARK    5  A    between atoms: C_7  and  C_8
REMARK    6  A    between atoms: C_7  and  C_15
REMARK    7  A    between atoms: C_8  and  C_9
REMARK    8  A    between atoms: C_19  and  O_20
REMARK    9  A    between atoms: O_20  and  C_21
REMARK                            x       y       z     vdW  Elec       q    Type
REMARK                         _______ _______ _______ _____ _____    ______ ____
ROOT
ATOM      1  C   UNL     1       4.369   6.033  18.332  0.00  0.00    +0.000 C 
ENDROOT
BRANCH   1   2
ATOM      2  C   UNL     1       3.698   4.657  18.424  0.00  0.00    +0.000 A 
ATOM      3  C   UNL     1       3.258   3.944  17.299  0.00  0.00    +0.000 A 
ATOM      4  C   UNL     1       2.617   2.712  17.435  0.00  0.00    +0.000 A 
ATOM      5  C   UNL     1       2.394   2.176  18.700  0.00  0.00    +0.000 A 
ATOM      6  C   UNL     1       2.842   2.847  19.836  0.00  0.00    +0.000 A 
ATOM      7  C   UNL     1       3.518   4.061  19.690  0.00  0.00    +0.000 A 
BRANCH   6   8
ATOM      8  O   UNL     1       2.552   2.229  21.022  0.00  0.00    +0.000 OA
ATOM      9  C   UNL     1       1.418   2.709  21.733  0.00  0.00    +0.000 C 
ENDBRANCH   6   8
ENDBRANCH   1   2
BRANCH   1  10
ATOM     10  C   UNL     1       5.837   5.993  17.843  0.00  0.00    +0.000 C 
BRANCH  10  13
ATOM     11  C   UNL     1       7.023   4.807  16.035  0.00  0.00    +0.000 C 
ATOM     12  O   UNL     1       7.909   4.408  16.778  0.00  0.00    +0.000 OA
ATOM     13  N   UNL     1       5.990   5.636  16.441  0.00  0.00    +0.000 N 
ATOM     14  H   UNL     1       5.172   5.654  15.851  0.00  0.00    +0.000 HD
BRANCH  11  16
ATOM     15  C   UNL     1       5.517   4.219  14.101  0.00  0.00    +0.000 C 
ATOM     16  C   UNL     1       6.942   4.463  14.559  0.00  0.00    +0.000 C 
ENDBRANCH  11  16
ENDBRANCH  10  13
ENDBRANCH   1  10
BRANCH   1  17
ATOM     17  C   UNL     1       3.507   7.069  17.555  0.00  0.00    +0.000 C 
BRANCH  17  18
ATOM     18  C   UNL     1       2.515   7.890  18.346  0.00  0.00    +0.000 A 
ATOM     19  C   UNL     1       2.194   7.552  19.669  0.00  0.00    +0.000 A 
ATOM     20  C   UNL     1       1.348   8.365  20.428  0.00  0.00    +0.000 A 
ATOM     21  C   UNL     1       0.807   9.520  19.873  0.00  0.00    +0.000 A 
ATOM     22  C   UNL     1       1.098   9.856  18.552  0.00  0.00    +0.000 A 
ATOM     23  C   UNL     1       1.946   9.047  17.795  0.00  0.00    +0.000 A 
ENDBRANCH  17  18
ENDBRANCH   1  17
TORSDOF 7
ENDMDL
