MODEL 1
REMARK VINA RESULT:      -9.4      0.000      0.000
REMARK  Name = 
REMARK  12 active torsions:
REMARK  status: ('A' for Active; 'I' for Inactive)
REMARK    1  A    between atoms: C_1  and  C_2
REMARK    2  A    between atoms: C_2  and  C_3
REMARK    3  A    between atoms: C_2  and  C_4
REMARK    4  A    between atoms: C_4  and  N_5
REMARK    5  A    between atoms: N_5  and  C_6
REMARK    6  A    between atoms: C_6  and  C_7
REMARK    7  A    between atoms: C_19  and  C_21
REMARK    8  A    between atoms: C_21  and  C_22
REMARK    9  A    between atoms: C_21  and  C_23
REMARK   10  A    between atoms: C_23  and  N_24
REMARK   11  A    between atoms: N_24  and  C_25
REMARK   12  A    between atoms: C_25  and  C_26
REMARK                            x       y       z     vdW  Elec       q    Type
REMARK                         _______ _______ _______ _____ _____    ______ ____
ROOT
ATOM      1  N   UNL     1       6.114   5.105  16.169  0.00  0.00    +0.000 N 
ATOM      2  C   UNL     1       7.174   5.213  17.075  0.00  0.00    +0.000 C 
ATOM      3  O   UNL     1       8.068   4.359  17.114  0.00  0.00    +0.000 OA
ENDROOT
BRANCH   2   4
ATOM      4  C   UNL     1       7.200   6.367  18.082  0.00  0.00    +0.000 C 
ATOM      5  C   UNL     1       8.081   5.955  19.263  0.00  0.00    +0.000 C 
BRANCH   4   6
ATOM      6  C   UNL     1       7.774   7.638  17.418  0.00  0.00    +0.000 C 
BRANCH   6   7
ATOM      7  N   UNL     1       8.468   8.447  18.423  0.00  0.00    +0.000 NA
ATOM      8  H   UNL     1       9.466   8.249  18.418  0.00  0.00    +0.000 HD
BRANCH   7   9
ATOM      9  C   UNL     1       8.272   9.882  18.216  0.00  0.00    +0.000 C 
BRANCH   9  10
ATOM     10  C   UNL     1       9.434  10.665  18.776  0.00  0.00    +0.000 A 
ATOM     11  C   UNL     1       9.512  11.030  20.127  0.00  0.00    +0.000 A 
ATOM     12  C   UNL     1      10.609  11.745  20.596  0.00  0.00    +0.000 A 
ATOM     13  C   UNL     1      11.589  12.102  19.688  0.00  0.00    +0.000 A 
ATOM     14  N   UNL     1      11.538  11.807  18.371  0.00  0.00    +0.000 NA
ATOM     15  C   UNL     1      10.463  11.102  17.948  0.00  0.00    +0.000 A 
ENDBRANCH   9  10
ENDBRANCH   7   9
ENDBRANCH   6   7
ENDBRANCH   4   6
ENDBRANCH   2   4
BRANCH   1  16
ATOM     16  C   UNL     1       6.218   4.044  15.158  0.00  0.00    +0.000 C 
BRANCH  16  18
ATOM     17  C   UNL     1       7.663   5.068  13.258  0.00  0.00    +0.000 C 
ATOM     18  C   UNL     1       6.317   4.478  13.673  0.00  0.00    +0.000 C 
ATOM     19  C   UNL     1       5.902   3.380  12.696  0.00  0.00    +0.000 C 
ENDBRANCH  16  18
ENDBRANCH   1  16
BRANCH   1  20
ATOM     20  C   UNL     1       4.929   5.975  16.136  0.00  0.00    +0.000 C 
BRANCH  20  21
ATOM     21  C   UNL     1       3.861   5.757  17.195  0.00  0.00    +0.000 A 
ATOM     22  C   UNL     1       3.405   6.770  18.051  0.00  0.00    +0.000 A 
ATOM     23  C   UNL     1       2.541   6.471  19.116  0.00  0.00    +0.000 A 
ATOM     24 CL   UNL     1       2.018   7.767  20.135  0.00  0.00    +0.000 Cl
ATOM     25  C   UNL     1       2.137   5.152  19.364  0.00  0.00    +0.000 A 
ATOM     26  C   UNL     1       2.519   4.149  18.472  0.00  0.00    +0.000 A 
ATOM     27  C   UNL     1       3.364   4.449  17.401  0.00  0.00    +0.000 A 
ATOM     28  O   UNL     1       1.998   2.881  18.524  0.00  0.00    +0.000 OA
ATOM     29  C   UNL     1       2.411   2.139  19.673  0.00  0.00    +0.000 C 
ATOM     30  C   UNL     1       1.680   2.530  20.951  0.00  0.00    +0.000 C 
ATOM     31  C   UNL     1       1.982   3.966  21.341  0.00  0.00    +0.000 C 
ATOM     32  O   UNL     1       1.340   4.881  20.447  0.00  0.00    +0.000 OA
ENDBRANCH  20  21
ENDBRANCH   1  20
TORSDOF 9
ENDMDL
MODEL 2
REMARK VINA RESULT:      -8.8      0.764      1.033
REMARK  Name = 
REMARK  12 active torsions:
REMARK  status: ('A' for Active; 'I' for Inactive)
REMARK    1  A    between atoms: C_1  and  C_2
REMARK    2  A    between atoms: C_2  and  C_3
REMARK    3  A    between atoms: C_2  and  C_4
REMARK    4  A    between atoms: C_4  and  N_5
REMARK    5  A    between atoms: N_5  and  C_6
REMARK    6  A    between atoms: C_6  and  C_7
REMARK    7  A    between atoms: C_19  and  C_21
REMARK    8  A    between atoms: C_21  and  C_22
REMARK    9  A    between atoms: C_21  and  C_23
REMARK   10  A    between atoms: C_23  and  N_24
REMARK   11  A    between atoms: N_24  and  C_25
REMARK   12  A    between atoms: C_25  and  C_26
REMARK                            x       y       z     vdW  Elec       q    Type
REMARK                         _______ _______ _______ _____ _____    ______ ____
ROOT
ATOM      1  N   UNL     1       6.081   5.211  16.161  0.00  0.00    +0.000 N 
ATOM      2  C   UNL     1       7.189   5.324  17.006  0.00  0.00    +0.000 C 
ATOM      3  O   UNL     1       8.070   4.455  17.019  0.00  0.00    +0.000 OA
ENDROOT
BRANCH   2   4
ATOM      4  C   UNL     1       7.288   6.502  17.979  0.00  0.00    +0.000 C 
ATOM      5  C   UNL     1       7.930   6.004  19.276  0.00  0.00    +0.000 C 
BRANCH   4   6
ATOM      6  C   UNL     1       8.151   7.627  17.365  0.00  0.00    +0.000 C 
BRANCH   6   7
ATOM      7  N   UNL     1       7.797   8.909  17.980  0.00  0.00    +0.000 NA
ATOM      8  H   UNL     1       6.957   8.817  18.545  0.00  0.00    +0.000 HD
BRANCH   7   9
ATOM      9  C   UNL     1       8.872   9.441  18.817  0.00  0.00    +0.000 C 
BRANCH   9  10
ATOM     10  C   UNL     1       9.288  10.812  18.344  0.00  0.00    +0.000 A 
ATOM     11  C   UNL     1       8.363  11.759  17.883  0.00  0.00    +0.000 A 
ATOM     12  C   UNL     1       8.797  13.013  17.466  0.00  0.00    +0.000 A 
ATOM     13  C   UNL     1      10.155  13.275  17.494  0.00  0.00    +0.000 A 
ATOM     14  N   UNL     1      11.085  12.381  17.893  0.00  0.00    +0.000 NA
ATOM     15  C   UNL     1      10.631  11.174  18.302  0.00  0.00    +0.000 A 
ENDBRANCH   9  10
ENDBRANCH   7   9
ENDBRANCH   6   7
ENDBRANCH   4   6
ENDBRANCH   2   4
BRANCH   1  16
ATOM     16  C   UNL     1       6.113   4.122  15.175  0.00  0.00    +0.000 C 
BRANCH  16  18
ATOM     17  C   UNL     1       7.656   5.075  13.315  0.00  0.00    +0.000 C 
ATOM     18  C   UNL     1       6.285   4.512  13.684  0.00  0.00    +0.000 C 
ATOM     19  C   UNL     1       5.901   3.392  12.721  0.00  0.00    +0.000 C 
ENDBRANCH  16  18
ENDBRANCH   1  16
BRANCH   1  20
ATOM     20  C   UNL     1       4.909   6.099  16.169  0.00  0.00    +0.000 C 
BRANCH  20  21
ATOM     21  C   UNL     1       3.843   5.857  17.224  0.00  0.00    +0.000 A 
ATOM     22  C   UNL     1       3.380   6.852  18.097  0.00  0.00    +0.000 A 
ATOM     23  C   UNL     1       2.518   6.530  19.156  0.00  0.00    +0.000 A 
ATOM     24 CL   UNL     1       1.985   7.806  20.195  0.00  0.00    +0.000 Cl
ATOM     25  C   UNL     1       2.123   5.204  19.383  0.00  0.00    +0.000 A 
ATOM     26  C   UNL     1       2.514   4.218  18.475  0.00  0.00    +0.000 A 
ATOM     27  C   UNL     1       3.356   4.542  17.409  0.00  0.00    +0.000 A 
ATOM     28  O   UNL     1       2.002   2.946  18.507  0.00  0.00    +0.000 OA
ATOM     29  C   UNL     1       2.421   2.189  19.644  0.00  0.00    +0.000 C 
ATOM     30  C   UNL     1       1.686   2.554  20.928  0.00  0.00    +0.000 C 
ATOM     31  C   UNL     1       1.978   3.986  21.341  0.00  0.00    +0.000 C 
ATOM     32  O   UNL     1       1.329   4.910  20.461  0.00  0.00    +0.000 OA
ENDBRANCH  20  21
ENDBRANCH   1  20
TORSDOF 9
ENDMDL
MODEL 3
REMARK VINA RESULT:      -7.6      3.706      7.247
REMARK  Name = 
REMARK  12 active torsions:
REMARK  status: ('A' for Active; 'I' for Inactive)
REMARK    1  A    between atoms: C_1  and  C_2
REMARK    2  A    between atoms: C_2  and  C_3
REMARK    3  A    between atoms: C_2  and  C_4
REMARK    4  A    between atoms: C_4  and  N_5
REMARK    5  A    between atoms: N_5  and  C_6
REMARK    6  A    between atoms: C_6  and  C_7
REMARK    7  A    between atoms: C_19  and  C_21
REMARK    8  A    between atoms: C_21  and  C_22
REMARK    9  A    between atoms: C_21  and  C_23
REMARK   10  A    between atoms: C_23  and  N_24
REMARK   11  A    between atoms: N_24  and  C_25
REMARK   12  A    between atoms: C_25  and  C_26
REMARK                            x       y       z     vdW  Elec       q    Type
REMARK                         _______ _______ _______ _____ _____    ______ ____
ROOT
ATOM      1  N   UNL     1       3.074   6.495  18.685  0.00  0.00    +0.000 N 
ATOM      2  C   UNL     1       4.397   6.146  18.399  0.00  0.00    +0.000 C 
ATOM      3  O   UNL     1       4.984   5.281  19.061  0.00  0.00    +0.000 OA
ENDROOT
BRANCH   2   4
ATOM      4  C   UNL     1       5.158   6.887  17.296  0.00  0.00    +0.000 C 
ATOM      5  C   UNL     1       6.641   6.924  17.676  0.00  0.00    +0.000 C 
BRANCH   4   6
ATOM      6  C   UNL     1       4.981   6.157  15.946  0.00  0.00    +0.000 C 
BRANCH   6   7
ATOM      7  N   UNL     1       4.759   4.729  16.186  0.00  0.00    +0.000 NA
ATOM      8  H   UNL     1       3.987   4.385  15.621  0.00  0.00    +0.000 HD
BRANCH   7   9
ATOM      9  C   UNL     1       5.947   3.925  15.896  0.00  0.00    +0.000 C 
BRANCH   9  10
ATOM     10  C   UNL     1       6.438   4.184  14.494  0.00  0.00    +0.000 A 
ATOM     11  C   UNL     1       5.984   3.447  13.391  0.00  0.00    +0.000 A 
ATOM     12  C   UNL     1       6.462   3.731  12.117  0.00  0.00    +0.000 A 
ATOM     13  C   UNL     1       7.408   4.732  11.984  0.00  0.00    +0.000 A 
ATOM     14  N   UNL     1       7.903   5.441  13.021  0.00  0.00    +0.000 NA
ATOM     15  C   UNL     1       7.411   5.148  14.247  0.00  0.00    +0.000 A 
ENDBRANCH   9  10
ENDBRANCH   7   9
ENDBRANCH   6   7
ENDBRANCH   4   6
ENDBRANCH   2   4
BRANCH   1  16
ATOM     16  C   UNL     1       2.372   5.662  19.672  0.00  0.00    +0.000 C 
BRANCH  16  18
ATOM     17  C   UNL     1       1.031   3.500  20.196  0.00  0.00    +0.000 C 
ATOM     18  C   UNL     1       1.987   4.222  19.248  0.00  0.00    +0.000 C 
ATOM     19  C   UNL     1       1.470   4.134  17.814  0.00  0.00    +0.000 C 
ENDBRANCH  16  18
ENDBRANCH   1  16
BRANCH   1  20
ATOM     20  C   UNL     1       2.332   7.604  18.067  0.00  0.00    +0.000 C 
BRANCH  20  21
ATOM     21  C   UNL     1       1.820   8.708  18.976  0.00  0.00    +0.000 A 
ATOM     22  C   UNL     1       1.491   8.507  20.325  0.00  0.00    +0.000 A 
ATOM     23  C   UNL     1       0.868   9.522  21.068  0.00  0.00    +0.000 A 
ATOM     24 CL   UNL     1       0.489   9.207  22.726  0.00  0.00    +0.000 Cl
ATOM     25  C   UNL     1       0.535  10.746  20.473  0.00  0.00    +0.000 A 
ATOM     26  C   UNL     1       0.927  10.986  19.155  0.00  0.00    +0.000 A 
ATOM     27  C   UNL     1       1.566   9.984  18.421  0.00  0.00    +0.000 A 
ATOM     28  O   UNL     1       0.827  12.224  18.572  0.00  0.00    +0.000 OA
ATOM     29  C   UNL     1      -0.520  12.639  18.339  0.00  0.00    +0.000 C 
ATOM     30  C   UNL     1      -1.236  13.132  19.591  0.00  0.00    +0.000 C 
ATOM     31  C   UNL     1      -1.390  12.018  20.611  0.00  0.00    +0.000 C 
ATOM     32  O   UNL     1      -0.128  11.696  21.207  0.00  0.00    +0.000 OA
ENDBRANCH  20  21
ENDBRANCH   1  20
TORSDOF 9
ENDMDL
MODEL 4
REMARK VINA RESULT:      -7.5      1.073      1.525
REMARK  Name = 
REMARK  12 active torsions:
REMARK  status: ('A' for Active; 'I' for Inactive)
REMARK    1  A    between atoms: C_1  and  C_2
REMARK    2  A    between atoms: C_2  and  C_3
REMARK    3  A    between atoms: C_2  and  C_4
REMARK    4  A    between atoms: C_4  and  N_5
REMARK    5  A    between atoms: N_5  and  C_6
REMARK    6  A    between atoms: C_6  and  C_7
REMARK    7  A    between atoms: C_19  and  C_21
REMARK    8  A    between atoms: C_21  and  C_22
REMARK    9  A    between atoms: C_21  and  C_23
REMARK   10  A    between atoms: C_23  and  N_24
REMARK   11  A    between atoms: N_24  and  C_25
REMARK   12  A    between atoms: C_25  and  C_26
REMARK                            x       y       z     vdW  Elec       q    Type
REMARK                         _______ _______ _______ _____ _____    ______ ____
ROOT
ATOM      1  N   UNL     1       5.636   6.376  16.213  0.00  0.00    +0.000 N 
ATOM      2  C   UNL     1       6.913   6.252  16.770  0.00  0.00    +0.000 C 
ATOM      3  O   UNL     1       7.714   5.411  16.343  0.00  0.00    +0.000 OA
ENDROOT
BRANCH   2   4
ATOM      4  C   UNL     1       7.307   7.119  17.969  0.00  0.00    +0.000 C 
ATOM      5  C   UNL     1       7.916   6.210  19.040  0.00  0.00    +0.000 C 
BRANCH   4   6
ATOM      6  C   UNL     1       8.339   8.184  17.537  0.00  0.00    +0.000 C 
BRANCH   6   7
ATOM      7  N   UNL     1       8.032   9.459  18.193  0.00  0.00    +0.000 NA
ATOM      8  H   UNL     1       7.112   9.430  18.623  0.00  0.00    +0.000 HD
BRANCH   7   9
ATOM      9  C   UNL     1       9.018   9.811  19.216  0.00  0.00    +0.000 C 
BRANCH   9  10
ATOM     10  C   UNL     1       9.662  11.138  18.901  0.00  0.00    +0.000 A 
ATOM     11  C   UNL     1      10.355  11.371  17.705  0.00  0.00    +0.000 A 
ATOM     12  C   UNL     1      10.923  12.616  17.460  0.00  0.00    +0.000 A 
ATOM     13  C   UNL     1      10.808  13.590  18.436  0.00  0.00    +0.000 A 
ATOM     14  N   UNL     1      10.184  13.398  19.618  0.00  0.00    +0.000 NA
ATOM     15  C   UNL     1       9.633  12.180  19.824  0.00  0.00    +0.000 A 
ENDBRANCH   9  10
ENDBRANCH   7   9
ENDBRANCH   6   7
ENDBRANCH   4   6
ENDBRANCH   2   4
BRANCH   1  16
ATOM     16  C   UNL     1       5.372   5.599  14.994  0.00  0.00    +0.000 C 
BRANCH  16  18
ATOM     17  C   UNL     1       5.336   3.118  15.764  0.00  0.00    +0.000 C 
ATOM     18  C   UNL     1       6.001   4.186  14.896  0.00  0.00    +0.000 C 
ATOM     19  C   UNL     1       6.137   3.685  13.460  0.00  0.00    +0.000 C 
ENDBRANCH  16  18
ENDBRANCH   1  16
BRANCH   1  20
ATOM     20  C   UNL     1       4.559   7.230  16.734  0.00  0.00    +0.000 C 
BRANCH  20  21
ATOM     21  C   UNL     1       3.594   6.621  17.736  0.00  0.00    +0.000 A 
ATOM     22  C   UNL     1       2.928   7.368  18.719  0.00  0.00    +0.000 A 
ATOM     23  C   UNL     1       2.180   6.728  19.720  0.00  0.00    +0.000 A 
ATOM     24 CL   UNL     1       1.385   7.709  20.902  0.00  0.00    +0.000 Cl
ATOM     25  C   UNL     1       2.103   5.330  19.775  0.00  0.00    +0.000 A 
ATOM     26  C   UNL     1       2.695   4.580  18.757  0.00  0.00    +0.000 A 
ATOM     27  C   UNL     1       3.423   5.217  17.751  0.00  0.00    +0.000 A 
ATOM     28  O   UNL     1       2.489   3.230  18.624  0.00  0.00    +0.000 OA
ATOM     29  C   UNL     1       3.088   2.454  19.664  0.00  0.00    +0.000 C 
ATOM     30  C   UNL     1       2.310   2.479  20.974  0.00  0.00    +0.000 C 
ATOM     31  C   UNL     1       2.272   3.878  21.565  0.00  0.00    +0.000 C 
ATOM     32  O   UNL     1       1.415   4.730  20.798  0.00  0.00    +0.000 OA
ENDBRANCH  20  21
ENDBRANCH   1  20
TORSDOF 9
ENDMDL
MODEL 5
REMARK VINA RESULT:      -7.5      0.932      1.336
REMARK  Name = 
REMARK  12 active torsions:
REMARK  status: ('A' for Active; 'I' for Inactive)
REMARK    1  A    between atoms: C_1  and  C_2
REMARK    2  A    between atoms: C_2  and  C_3
REMARK    3  A    between atoms: C_2  and  C_4
REMARK    4  A    between atoms: C_4  and  N_5
REMARK    5  A    between atoms: N_5  and  C_6
REMARK    6  A    between atoms: C_6  and  C_7
REMARK    7  A    between atoms: C_19  and  C_21
REMARK    8  A    between atoms: C_21  and  C_22
REMARK    9  A    between atoms: C_21  and  C_23
REMARK   10  A    between atoms: C_23  and  N_24
REMARK   11  A    between atoms: N_24  and  C_25
REMARK   12  A    between atoms: C_25  and  C_26
REMARK                            x       y       z     vdW  Elec       q    Type
REMARK                         _______ _______ _______ _____ _____    ______ ____
ROOT
ATOM      1  N   UNL     1       6.484   5.745  16.025  0.00  0.00    +0.000 N 
ATOM      2  C   UNL     1       7.309   5.538  17.134  0.00  0.00    +0.000 C 
ATOM      3  O   UNL     1       8.207   4.687  17.110  0.00  0.00    +0.000 OA
ENDROOT
BRANCH   2   4
ATOM      4  C   UNL     1       7.061   6.324  18.425  0.00  0.00    +0.000 C 
ATOM      5  C   UNL     1       6.946   5.327  19.581  0.00  0.00    +0.000 C 
BRANCH   4   6
ATOM      6  C   UNL     1       8.230   7.298  18.687  0.00  0.00    +0.000 C 
BRANCH   6   7
ATOM      7  N   UNL     1       8.299   8.285  17.605  0.00  0.00    +0.000 NA
ATOM      8  H   UNL     1       7.716   8.001  16.822  0.00  0.00    +0.000 HD
BRANCH   7   9
ATOM      9  C   UNL     1       7.883   9.619  18.041  0.00  0.00    +0.000 C 
BRANCH   9  10
ATOM     10  C   UNL     1       9.061  10.397  18.572  0.00  0.00    +0.000 A 
ATOM     11  C   UNL     1      10.054  10.921  17.734  0.00  0.00    +0.000 A 
ATOM     12  C   UNL     1      11.116  11.639  18.273  0.00  0.00    +0.000 A 
ATOM     13  C   UNL     1      11.171  11.788  19.648  0.00  0.00    +0.000 A 
ATOM     14  N   UNL     1      10.258  11.268  20.497  0.00  0.00    +0.000 NA
ATOM     15  C   UNL     1       9.232  10.583  19.941  0.00  0.00    +0.000 A 
ENDBRANCH   9  10
ENDBRANCH   7   9
ENDBRANCH   6   7
ENDBRANCH   4   6
ENDBRANCH   2   4
BRANCH   1  16
ATOM     16  C   UNL     1       6.855   5.045  14.788  0.00  0.00    +0.000 C 
BRANCH  16  18
ATOM     17  C   UNL     1       5.424   3.056  15.651  0.00  0.00    +0.000 C 
ATOM     18  C   UNL     1       6.108   3.726  14.461  0.00  0.00    +0.000 C 
ATOM     19  C   UNL     1       5.126   3.863  13.300  0.00  0.00    +0.000 C 
ENDBRANCH  16  18
ENDBRANCH   1  16
BRANCH   1  20
ATOM     20  C   UNL     1       5.299   6.617  15.995  0.00  0.00    +0.000 C 
BRANCH  20  21
ATOM     21  C   UNL     1       4.185   6.332  16.986  0.00  0.00    +0.000 A 
ATOM     22  C   UNL     1       3.541   7.330  17.732  0.00  0.00    +0.000 A 
ATOM     23  C   UNL     1       2.637   6.991  18.751  0.00  0.00    +0.000 A 
ATOM     24 CL   UNL     1       1.879   8.271  19.632  0.00  0.00    +0.000 Cl
ATOM     25  C   UNL     1       2.378   5.650  19.064  0.00  0.00    +0.000 A 
ATOM     26  C   UNL     1       2.952   4.649  18.277  0.00  0.00    +0.000 A 
ATOM     27  C   UNL     1       3.836   4.987  17.251  0.00  0.00    +0.000 A 
ATOM     28  O   UNL     1       2.587   3.331  18.383  0.00  0.00    +0.000 OA
ATOM     29  C   UNL     1       2.994   2.721  19.610  0.00  0.00    +0.000 C 
ATOM     30  C   UNL     1       2.119   3.096  20.801  0.00  0.00    +0.000 C 
ATOM     31  C   UNL     1       2.211   4.581  21.106  0.00  0.00    +0.000 C 
ATOM     32  O   UNL     1       1.536   5.348  20.104  0.00  0.00    +0.000 OA
ENDBRANCH  20  21
ENDBRANCH   1  20
TORSDOF 9
ENDMDL
MODEL 6
REMARK VINA RESULT:      -7.4      4.142      7.258
REMARK  Name = 
REMARK  12 active torsions:
REMARK  status: ('A' for Active; 'I' for Inactive)
REMARK    1  A    between atoms: C_1  and  C_2
REMARK    2  A    between atoms: C_2  and  C_3
REMARK    3  A    between atoms: C_2  and  C_4
REMARK    4  A    between atoms: C_4  and  N_5
REMARK    5  A    between atoms: N_5  and  C_6
REMARK    6  A    between atoms: C_6  and  C_7
REMARK    7  A    between atoms: C_19  and  C_21
REMARK    8  A    between atoms: C_21  and  C_22
REMARK    9  A    between atoms: C_21  and  C_23
REMARK   10  A    between atoms: C_23  and  N_24
REMARK   11  A    between atoms: N_24  and  C_25
REMARK   12  A    between atoms: C_25  and  C_26
REMARK                            x       y       z     vdW  Elec       q    Type
REMARK                         _______ _______ _______ _____ _____    ______ ____
ROOT
ATOM      1  N   UNL     1       3.011   5.006  18.430  0.00  0.00    +0.000 N 
ATOM      2  C   UNL     1       4.012   4.793  17.477  0.00  0.00    +0.000 C 
ATOM      3  O   UNL     1       3.888   3.922  16.607  0.00  0.00    +0.000 OA
ENDROOT
BRANCH   2   4
ATOM      4  C   UNL     1       5.313   5.598  17.547  0.00  0.00    +0.000 C 
ATOM      5  C   UNL     1       6.356   4.765  18.296  0.00  0.00    +0.000 C 
BRANCH   4   6
ATOM      6  C   UNL     1       5.819   5.915  16.122  0.00  0.00    +0.000 C 
BRANCH   6   7
ATOM      7  N   UNL     1       6.553   4.762  15.594  0.00  0.00    +0.000 NA
ATOM      8  H   UNL     1       5.948   3.947  15.535  0.00  0.00    +0.000 HD
BRANCH   7   9
ATOM      9  C   UNL     1       7.122   5.022  14.271  0.00  0.00    +0.000 C 
BRANCH   9  10
ATOM     10  C   UNL     1       6.515   4.103  13.240  0.00  0.00    +0.000 A 
ATOM     11  C   UNL     1       7.294   3.398  12.312  0.00  0.00    +0.000 A 
ATOM     12  C   UNL     1       6.685   2.557  11.387  0.00  0.00    +0.000 A 
ATOM     13  C   UNL     1       5.305   2.467  11.397  0.00  0.00    +0.000 A 
ATOM     14  N   UNL     1       4.512   3.156  12.246  0.00  0.00    +0.000 NA
ATOM     15  C   UNL     1       5.134   3.959  13.140  0.00  0.00    +0.000 A 
ENDBRANCH   9  10
ENDBRANCH   7   9
ENDBRANCH   6   7
ENDBRANCH   4   6
ENDBRANCH   2   4
BRANCH   1  16
ATOM     16  C   UNL     1       1.748   4.283  18.229  0.00  0.00    +0.000 C 
BRANCH  16  18
ATOM     17  C   UNL     1       2.677   2.107  19.302  0.00  0.00    +0.000 C 
ATOM     18  C   UNL     1       1.483   3.044  19.122  0.00  0.00    +0.000 C 
ATOM     19  C   UNL     1       0.884   3.397  20.481  0.00  0.00    +0.000 C 
ENDBRANCH  16  18
ENDBRANCH   1  16
BRANCH   1  20
ATOM     20  C   UNL     1       3.116   5.902  19.591  0.00  0.00    +0.000 C 
BRANCH  20  21
ATOM     21  C   UNL     1       2.199   7.112  19.637  0.00  0.00    +0.000 A 
ATOM     22  C   UNL     1       2.252   8.157  18.702  0.00  0.00    +0.000 A 
ATOM     23  C   UNL     1       1.495   9.324  18.891  0.00  0.00    +0.000 A 
ATOM     24 CL   UNL     1       1.608  10.573  17.700  0.00  0.00    +0.000 Cl
ATOM     25  C   UNL     1       0.693   9.484  20.028  0.00  0.00    +0.000 A 
ATOM     26  C   UNL     1       0.571   8.420  20.924  0.00  0.00    +0.000 A 
ATOM     27  C   UNL     1       1.308   7.251  20.727  0.00  0.00    +0.000 A 
ATOM     28  O   UNL     1      -0.349   8.418  21.942  0.00  0.00    +0.000 OA
ATOM     29  C   UNL     1      -0.066   9.367  22.972  0.00  0.00    +0.000 C 
ATOM     30  C   UNL     1      -0.428  10.801  22.601  0.00  0.00    +0.000 C 
ATOM     31  C   UNL     1       0.411  11.296  21.434  0.00  0.00    +0.000 C 
ATOM     32  O   UNL     1       0.012  10.659  20.216  0.00  0.00    +0.000 OA
ENDBRANCH  20  21
ENDBRANCH   1  20
TORSDOF 9
ENDMDL
MODEL 7
REMARK VINA RESULT:      -7.3      3.838      7.027
REMARK  Name = 
REMARK  12 active torsions:
REMARK  status: ('A' for Active; 'I' for Inactive)
REMARK    1  A    between atoms: C_1  and  C_2
REMARK    2  A    between atoms: C_2  and  C_3
REMARK    3  A    between atoms: C_2  and  C_4
REMARK    4  A    between atoms: C_4  and  N_5
REMARK    5  A    between atoms: N_5  and  C_6
REMARK    6  A    between atoms: C_6  and  C_7
REMARK    7  A    between atoms: C_19  and  C_21
REMARK    8  A    between atoms: C_21  and  C_22
REMARK    9  A    between atoms: C_21  and  C_23
REMARK   10  A    between atoms: C_23  and  N_24
REMARK   11  A    between atoms: N_24  and  C_25
REMARK   12  A    between atoms: C_25  and  C_26
REMARK                            x       y       z     vdW  Elec       q    Type
REMARK                         _______ _______ _______ _____ _____    ______ ____
ROOT
ATOM      1  N   UNL     1       2.885   5.149  19.239  0.00  0.00    +0.000 N 
ATOM      2  C   UNL     1       4.014   4.984  18.430  0.00  0.00    +0.000 C 
ATOM      3  O   UNL     1       4.055   4.099  17.567  0.00  0.00    +0.000 OA
ENDROOT
BRANCH   2   4
ATOM      4  C   UNL     1       5.247   5.865  18.656  0.00  0.00    +0.000 C 
ATOM      5  C   UNL     1       6.422   4.961  19.032  0.00  0.00    +0.000 C 
BRANCH   4   6
ATOM      6  C   UNL     1       5.581   6.651  17.368  0.00  0.00    +0.000 C 
BRANCH   6   7
ATOM      7  N   UNL     1       5.546   5.744  16.217  0.00  0.00    +0.000 NA
ATOM      8  H   UNL     1       4.941   6.112  15.487  0.00  0.00    +0.000 HD
BRANCH   7   9
ATOM      9  C   UNL     1       6.875   5.509  15.652  0.00  0.00    +0.000 C 
BRANCH   9  10
ATOM     10  C   UNL     1       6.772   4.827  14.311  0.00  0.00    +0.000 A 
ATOM     11  C   UNL     1       7.621   5.142  13.241  0.00  0.00    +0.000 A 
ATOM     12  C   UNL     1       7.489   4.478  12.027  0.00  0.00    +0.000 A 
ATOM     13  C   UNL     1       6.486   3.533  11.906  0.00  0.00    +0.000 A 
ATOM     14  N   UNL     1       5.620   3.225  12.896  0.00  0.00    +0.000 NA
ATOM     15  C   UNL     1       5.780   3.881  14.068  0.00  0.00    +0.000 A 
ENDBRANCH   9  10
ENDBRANCH   7   9
ENDBRANCH   6   7
ENDBRANCH   4   6
ENDBRANCH   2   4
BRANCH   1  16
ATOM     16  C   UNL     1       1.702   4.352  18.887  0.00  0.00    +0.000 C 
BRANCH  16  18
ATOM     17  C   UNL     1       1.274   2.945  21.029  0.00  0.00    +0.000 C 
ATOM     18  C   UNL     1       1.569   2.947  19.530  0.00  0.00    +0.000 C 
ATOM     19  C   UNL     1       0.580   2.042  18.799  0.00  0.00    +0.000 C 
ENDBRANCH  16  18
ENDBRANCH   1  16
BRANCH   1  20
ATOM     20  C   UNL     1       2.785   6.062  20.387  0.00  0.00    +0.000 C 
BRANCH  20  21
ATOM     21  C   UNL     1       1.881   7.275  20.251  0.00  0.00    +0.000 A 
ATOM     22  C   UNL     1       1.976   8.194  19.196  0.00  0.00    +0.000 A 
ATOM     23  C   UNL     1       1.228   9.382  19.212  0.00  0.00    +0.000 A 
ATOM     24 CL   UNL     1       1.393  10.471  17.879  0.00  0.00    +0.000 Cl
ATOM     25  C   UNL     1       0.391   9.688  20.293  0.00  0.00    +0.000 A 
ATOM     26  C   UNL     1       0.228   8.746  21.310  0.00  0.00    +0.000 A 
ATOM     27  C   UNL     1       0.958   7.556  21.285  0.00  0.00    +0.000 A 
ATOM     28  O   UNL     1      -0.724   8.878  22.289  0.00  0.00    +0.000 OA
ATOM     29  C   UNL     1      -0.463   9.947  23.201  0.00  0.00    +0.000 C 
ATOM     30  C   UNL     1      -0.796  11.325  22.642  0.00  0.00    +0.000 C 
ATOM     31  C   UNL     1       0.085  11.664  21.452  0.00  0.00    +0.000 C 
ATOM     32  O   UNL     1      -0.282  10.883  20.310  0.00  0.00    +0.000 OA
ENDBRANCH  20  21
ENDBRANCH   1  20
TORSDOF 9
ENDMDL
MODEL 8
REMARK VINA RESULT:      -7.2      1.313      1.663
REMARK  Name = 
REMARK  12 active torsions:
REMARK  status: ('A' for Active; 'I' for Inactive)
REMARK    1  A    between atoms: C_1  and  C_2
REMARK    2  A    between atoms: C_2  and  C_3
REMARK    3  A    between atoms: C_2  and  C_4
REMARK    4  A    between atoms: C_4  and  N_5
REMARK    5  A    between atoms: N_5  and  C_6
REMARK    6  A    between atoms: C_6  and  C_7
REMARK    7  A    between atoms: C_19  and  C_21
REMARK    8  A    between atoms: C_21  and  C_22
REMARK    9  A    between atoms: C_21  and  C_23
REMARK   10  A    between atoms: C_23  and  N_24
REMARK   11  A    between atoms: N_24  and  C_25
REMARK   12  A    between atoms: C_25  and  C_26
REMARK                            x       y       z     vdW  Elec       q    Type
REMARK                         _______ _______ _______ _____ _____    ______ ____
ROOT
ATOM      1  N   UNL     1       6.267   4.542  15.366  0.00  0.00    +0.000 N 
ATOM      2  C   UNL     1       6.992   5.441  16.154  0.00  0.00    +0.000 C 
ATOM      3  O   UNL     1       7.798   6.229  15.644  0.00  0.00    +0.000 OA
ENDROOT
BRANCH   2   4
ATOM      4  C   UNL     1       6.842   5.409  17.679  0.00  0.00    +0.000 C 
ATOM      5  C   UNL     1       8.098   4.766  18.273  0.00  0.00    +0.000 C 
BRANCH   4   6
ATOM      6  C   UNL     1       6.678   6.844  18.226  0.00  0.00    +0.000 C 
BRANCH   6   7
ATOM      7  N   UNL     1       7.976   7.525  18.213  0.00  0.00    +0.000 NA
ATOM      8  H   UNL     1       8.694   6.924  17.820  0.00  0.00    +0.000 HD
BRANCH   7   9
ATOM      9  C   UNL     1       7.941   8.775  17.451  0.00  0.00    +0.000 C 
BRANCH   9  10
ATOM     10  C   UNL     1       8.566   9.898  18.241  0.00  0.00    +0.000 A 
ATOM     11  C   UNL     1       9.185   9.689  19.481  0.00  0.00    +0.000 A 
ATOM     12  C   UNL     1       9.754  10.758  20.166  0.00  0.00    +0.000 A 
ATOM     13  C   UNL     1       9.661  12.018  19.601  0.00  0.00    +0.000 A 
ATOM     14  N   UNL     1       9.041  12.272  18.428  0.00  0.00    +0.000 NA
ATOM     15  C   UNL     1       8.506  11.210  17.782  0.00  0.00    +0.000 A 
ENDBRANCH   9  10
ENDBRANCH   7   9
ENDBRANCH   6   7
ENDBRANCH   4   6
ENDBRANCH   2   4
BRANCH   1  16
ATOM     16  C   UNL     1       6.372   4.711  13.910  0.00  0.00    +0.000 C 
BRANCH  16  18
ATOM     17  C   UNL     1       4.619   3.556  12.379  0.00  0.00    +0.000 C 
ATOM     18  C   UNL     1       6.005   3.495  13.021  0.00  0.00    +0.000 C 
ATOM     19  C   UNL     1       7.060   3.183  11.963  0.00  0.00    +0.000 C 
ENDBRANCH  16  18
ENDBRANCH   1  16
BRANCH   1  20
ATOM     20  C   UNL     1       5.401   3.468  15.875  0.00  0.00    +0.000 C 
BRANCH  20  21
ATOM     21  C   UNL     1       4.276   3.853  16.821  0.00  0.00    +0.000 A 
ATOM     22  C   UNL     1       3.776   5.158  16.935  0.00  0.00    +0.000 A 
ATOM     23  C   UNL     1       2.854   5.485  17.942  0.00  0.00    +0.000 A 
ATOM     24 CL   UNL     1       2.278   7.114  18.026  0.00  0.00    +0.000 Cl
ATOM     25  C   UNL     1       2.434   4.524  18.871  0.00  0.00    +0.000 A 
ATOM     26  C   UNL     1       2.864   3.205  18.719  0.00  0.00    +0.000 A 
ATOM     27  C   UNL     1       3.766   2.874  17.706  0.00  0.00    +0.000 A 
ATOM     28  O   UNL     1       2.339   2.171  19.453  0.00  0.00    +0.000 OA
ATOM     29  C   UNL     1       2.687   2.218  20.838  0.00  0.00    +0.000 C 
ATOM     30  C   UNL     1       1.887   3.240  21.638  0.00  0.00    +0.000 C 
ATOM     31  C   UNL     1       2.170   4.655  21.163  0.00  0.00    +0.000 C 
ATOM     32  O   UNL     1       1.579   4.887  19.879  0.00  0.00    +0.000 OA
ENDBRANCH  20  21
ENDBRANCH   1  20
TORSDOF 9
ENDMDL
MODEL 9
REMARK VINA RESULT:      -7.2      3.702      7.254
REMARK  Name = 
REMARK  12 active torsions:
REMARK  status: ('A' for Active; 'I' for Inactive)
REMARK    1  A    between atoms: C_1  and  C_2
REMARK    2  A    between atoms: C_2  and  C_3
REMARK    3  A    between atoms: C_2  and  C_4
REMARK    4  A    between atoms: C_4  and  N_5
REMARK    5  A    between atoms: N_5  and  C_6
REMARK    6  A    between atoms: C_6  and  C_7
REMARK    7  A    between atoms: C_19  and  C_21
REMARK    8  A    between atoms: C_21  and  C_22
REMARK    9  A    between atoms: C_21  and  C_23
REMARK   10  A    between atoms: C_23  and  N_24
REMARK   11  A    between atoms: N_24  and  C_25
REMARK   12  A    between atoms: C_25  and  C_26
REMARK                            x       y       z     vdW  Elec       q    Type
REMARK                         _______ _______ _______ _____ _____    ______ ____
ROOT
ATOM      1  N   UNL     1       3.040   6.382  18.789  0.00  0.00    +0.000 N 
ATOM      2  C   UNL     1       4.379   6.105  18.496  0.00  0.00    +0.000 C 
ATOM      3  O   UNL     1       5.016   5.276  19.156  0.00  0.00    +0.000 OA
ENDROOT
BRANCH   2   4
ATOM      4  C   UNL     1       5.092   6.884  17.387  0.00  0.00    +0.000 C 
ATOM      5  C   UNL     1       6.575   6.991  17.751  0.00  0.00    +0.000 C 
BRANCH   4   6
ATOM      6  C   UNL     1       4.935   6.149  16.037  0.00  0.00    +0.000 C 
BRANCH   6   7
ATOM      7  N   UNL     1       4.968   4.701  16.259  0.00  0.00    +0.000 NA
ATOM      8  H   UNL     1       4.269   4.233  15.689  0.00  0.00    +0.000 HD
BRANCH   7   9
ATOM      9  C   UNL     1       6.279   4.122  15.963  0.00  0.00    +0.000 C 
BRANCH   9  10
ATOM     10  C   UNL     1       6.590   4.231  14.491  0.00  0.00    +0.000 A 
ATOM     11  C   UNL     1       7.558   5.114  13.992  0.00  0.00    +0.000 A 
ATOM     12  C   UNL     1       7.813   5.170  12.626  0.00  0.00    +0.000 A 
ATOM     13  C   UNL     1       7.067   4.358  11.790  0.00  0.00    +0.000 A 
ATOM     14  N   UNL     1       6.099   3.521  12.222  0.00  0.00    +0.000 NA
ATOM     15  C   UNL     1       5.882   3.482  13.557  0.00  0.00    +0.000 A 
ENDBRANCH   9  10
ENDBRANCH   7   9
ENDBRANCH   6   7
ENDBRANCH   4   6
ENDBRANCH   2   4
BRANCH   1  16
ATOM     16  C   UNL     1       2.390   5.515  19.781  0.00  0.00    +0.000 C 
BRANCH  16  18
ATOM     17  C   UNL     1       1.588   4.132  17.734  0.00  0.00    +0.000 C 
ATOM     18  C   UNL     1       1.605   4.287  19.254  0.00  0.00    +0.000 C 
ATOM     19  C   UNL     1       2.028   2.975  19.910  0.00  0.00    +0.000 C 
ENDBRANCH  16  18
ENDBRANCH   1  16
BRANCH   1  20
ATOM     20  C   UNL     1       2.235   7.447  18.171  0.00  0.00    +0.000 C 
BRANCH  20  21
ATOM     21  C   UNL     1       1.774   8.591  19.058  0.00  0.00    +0.000 A 
ATOM     22  C   UNL     1       1.454   8.435  20.415  0.00  0.00    +0.000 A 
ATOM     23  C   UNL     1       0.876   9.490  21.139  0.00  0.00    +0.000 A 
ATOM     24 CL   UNL     1       0.506   9.230  22.808  0.00  0.00    +0.000 Cl
ATOM     25  C   UNL     1       0.582  10.711  20.517  0.00  0.00    +0.000 A 
ATOM     26  C   UNL     1       0.968  10.904  19.190  0.00  0.00    +0.000 A 
ATOM     27  C   UNL     1       1.561   9.862  18.474  0.00  0.00    +0.000 A 
ATOM     28  O   UNL     1       0.907  12.131  18.578  0.00  0.00    +0.000 OA
ATOM     29  C   UNL     1      -0.427  12.590  18.348  0.00  0.00    +0.000 C 
ATOM     30  C   UNL     1      -1.109  13.139  19.595  0.00  0.00    +0.000 C 
ATOM     31  C   UNL     1      -1.293  12.056  20.644  0.00  0.00    +0.000 C 
ATOM     32  O   UNL     1      -0.037  11.702  21.234  0.00  0.00    +0.000 OA
ENDBRANCH  20  21
ENDBRANCH   1  20
TORSDOF 9
ENDMDL
