MODEL 1
REMARK VINA RESULT:      -8.0      0.000      0.000
REMARK  Name = 
REMARK  8 active torsions:
REMARK  status: ('A' for Active; 'I' for Inactive)
REMARK    1  A    between atoms: C_1  and  O_2
REMARK    2  A    between atoms: O_2  and  C_3
REMARK    3  A    between atoms: C_6  and  N_7
REMARK    4  A    between atoms: C_9  and  C_10
REMARK    5  A    between atoms: N_12  and  C_13
REMARK    6  A    between atoms: C_13  and  C_14
REMARK    7  A    between atoms: C_14  and  C_15
REMARK    8  A    between atoms: N_29  and  C_30
REMARK                            x       y       z     vdW  Elec       q    Type
REMARK                         _______ _______ _______ _____ _____    ______ ____
ROOT
ATOM      1  N   UNL     1      -2.451  13.380  21.284  0.00  0.00    +0.000 N 
ATOM      2  N   UNL     1      -1.226  12.888  20.746  0.00  0.00    +0.000 NA
ATOM      3  C   UNL     1      -1.259  12.135  19.673  0.00  0.00    +0.000 A 
ATOM      4  C   UNL     1      -2.524  11.796  19.075  0.00  0.00    +0.000 A 
ATOM      5  C   UNL     1      -2.867  10.918  18.027  0.00  0.00    +0.000 A 
ATOM      6  C   UNL     1      -2.235   9.846  17.384  0.00  0.00    +0.000 A 
ATOM      7  C   UNL     1      -2.615   9.539  16.081  0.00  0.00    +0.000 A 
ATOM      8  C   UNL     1      -3.601  10.289  15.444  0.00  0.00    +0.000 A 
ATOM      9  C   UNL     1      -4.373  11.227  16.145  0.00  0.00    +0.000 A 
ATOM     10  C   UNL     1      -4.029  11.467  17.482  0.00  0.00    +0.000 A 
ATOM     11  N   UNL     1      -4.617  12.201  18.500  0.00  0.00    +0.000 N 
ATOM     12  C   UNL     1      -6.016  12.539  18.596  0.00  0.00    +0.000 C 
ATOM     13  C   UNL     1      -3.657  12.468  19.453  0.00  0.00    +0.000 A 
ATOM     14  C   UNL     1      -3.713  13.292  20.623  0.00  0.00    +0.000 A 
ATOM     15  O   UNL     1      -4.757  13.833  20.980  0.00  0.00    +0.000 OA
ENDROOT
BRANCH   1  19
ATOM     16  C   UNL     1      -1.906  15.163  25.105  0.00  0.00    +0.000 A 
ATOM     17  C   UNL     1      -2.947  14.263  24.892  0.00  0.00    +0.000 A 
ATOM     18  C   UNL     1      -3.143  13.691  23.633  0.00  0.00    +0.000 A 
ATOM     19  C   UNL     1      -2.301  14.008  22.559  0.00  0.00    +0.000 A 
ATOM     20  C   UNL     1      -1.265  14.928  22.784  0.00  0.00    +0.000 A 
ATOM     21  C   UNL     1      -1.078  15.515  24.042  0.00  0.00    +0.000 A 
BRANCH  16  23
ATOM     22  C   UNL     1      -0.646  16.412  26.660  0.00  0.00    +0.000 C 
ATOM     23  O   UNL     1      -1.816  15.654  26.377  0.00  0.00    +0.000 OA
ENDBRANCH  16  23
ENDBRANCH   1  19
BRANCH   3  24
ATOM     24  C   UNL     1       0.052  11.760  18.977  0.00  0.00    +0.000 C 
ATOM     25  O   UNL     1       0.625  12.567  18.251  0.00  0.00    +0.000 OA
ATOM     26  N   UNL     1       0.564  10.504  19.243  0.00  0.00    +0.000 N 
ATOM     27  H   UNL     1       0.151   9.975  20.001  0.00  0.00    +0.000 HD
BRANCH  26  28
ATOM     28  C   UNL     1       1.827  10.127  18.628  0.00  0.00    +0.000 C 
BRANCH  28  29
ATOM     29  C   UNL     1       1.698   8.948  17.674  0.00  0.00    +0.000 C 
BRANCH  29  30
ATOM     30  C   UNL     1       2.561   7.781  18.095  0.00  0.00    +0.000 A 
ATOM     31  C   UNL     1       2.246   7.038  19.243  0.00  0.00    +0.000 A 
ATOM     32  C   UNL     1       3.040   5.953  19.625  0.00  0.00    +0.000 A 
ATOM     33  C   UNL     1       4.157   5.609  18.867  0.00  0.00    +0.000 A 
ATOM     34 CL   UNL     1       5.122   4.261  19.328  0.00  0.00    +0.000 Cl
ATOM     35  C   UNL     1       4.494   6.349  17.736  0.00  0.00    +0.000 A 
ATOM     36  C   UNL     1       3.701   7.436  17.353  0.00  0.00    +0.000 A 
ENDBRANCH  29  30
ENDBRANCH  28  29
ENDBRANCH  26  28
ENDBRANCH   3  24
TORSDOF 6
ENDMDL
MODEL 2
REMARK VINA RESULT:      -7.9      3.386      6.724
REMARK  Name = 
REMARK  8 active torsions:
REMARK  status: ('A' for Active; 'I' for Inactive)
REMARK    1  A    between atoms: C_1  and  O_2
REMARK    2  A    between atoms: O_2  and  C_3
REMARK    3  A    between atoms: C_6  and  N_7
REMARK    4  A    between atoms: C_9  and  C_10
REMARK    5  A    between atoms: N_12  and  C_13
REMARK    6  A    between atoms: C_13  and  C_14
REMARK    7  A    between atoms: C_14  and  C_15
REMARK    8  A    between atoms: N_29  and  C_30
REMARK                            x       y       z     vdW  Elec       q    Type
REMARK                         _______ _______ _______ _____ _____    ______ ____
ROOT
ATOM      1  N   UNL     1      -1.698  11.926  21.546  0.00  0.00    +0.000 N 
ATOM      2  N   UNL     1      -2.037  11.802  20.168  0.00  0.00    +0.000 NA
ATOM      3  C   UNL     1      -1.279  11.069  19.389  0.00  0.00    +0.000 A 
ATOM      4  C   UNL     1      -0.108  10.426  19.927  0.00  0.00    +0.000 A 
ATOM      5  C   UNL     1       0.940   9.708  19.317  0.00  0.00    +0.000 A 
ATOM      6  C   UNL     1       1.433   9.592  18.012  0.00  0.00    +0.000 A 
ATOM      7  C   UNL     1       2.122   8.434  17.665  0.00  0.00    +0.000 A 
ATOM      8  C   UNL     1       2.309   7.422  18.605  0.00  0.00    +0.000 A 
ATOM      9  C   UNL     1       1.996   7.616  19.959  0.00  0.00    +0.000 A 
ATOM     10  C   UNL     1       1.374   8.824  20.305  0.00  0.00    +0.000 A 
ATOM     11  N   UNL     1       1.042   9.411  21.516  0.00  0.00    +0.000 N 
ATOM     12  C   UNL     1       1.681   9.152  22.782  0.00  0.00    +0.000 C 
ATOM     13  C   UNL     1       0.064  10.355  21.285  0.00  0.00    +0.000 A 
ATOM     14  C   UNL     1      -0.705  11.139  22.205  0.00  0.00    +0.000 A 
ATOM     15  O   UNL     1      -0.490  11.109  23.415  0.00  0.00    +0.000 OA
ENDROOT
BRANCH   1  19
ATOM     16  C   UNL     1      -3.926  14.830  23.710  0.00  0.00    +0.000 A 
ATOM     17  C   UNL     1      -4.437  13.549  23.522  0.00  0.00    +0.000 A 
ATOM     18  C   UNL     1      -3.719  12.598  22.794  0.00  0.00    +0.000 A 
ATOM     19  C   UNL     1      -2.472  12.909  22.237  0.00  0.00    +0.000 A 
ATOM     20  C   UNL     1      -1.975  14.209  22.421  0.00  0.00    +0.000 A 
ATOM     21  C   UNL     1      -2.702  15.168  23.138  0.00  0.00    +0.000 A 
BRANCH  16  23
ATOM     22  C   UNL     1      -5.917  16.090  23.799  0.00  0.00    +0.000 C 
ATOM     23  O   UNL     1      -4.719  15.670  24.440  0.00  0.00    +0.000 OA
ENDBRANCH  16  23
ENDBRANCH   1  19
BRANCH   3  24
ATOM     24  C   UNL     1      -1.735  10.772  17.958  0.00  0.00    +0.000 C 
ATOM     25  O   UNL     1      -1.529   9.672  17.453  0.00  0.00    +0.000 OA
ATOM     26  N   UNL     1      -2.417  11.777  17.298  0.00  0.00    +0.000 N 
ATOM     27  H   UNL     1      -2.725  12.575  17.840  0.00  0.00    +0.000 HD
BRANCH  26  28
ATOM     28  C   UNL     1      -2.897  11.518  15.950  0.00  0.00    +0.000 C 
BRANCH  28  29
ATOM     29  C   UNL     1      -4.302  10.931  15.919  0.00  0.00    +0.000 C 
BRANCH  29  30
ATOM     30  C   UNL     1      -5.172  11.483  17.023  0.00  0.00    +0.000 A 
ATOM     31  C   UNL     1      -5.356  10.765  18.214  0.00  0.00    +0.000 A 
ATOM     32  C   UNL     1      -6.154  11.283  19.238  0.00  0.00    +0.000 A 
ATOM     33  C   UNL     1      -6.777  12.518  19.076  0.00  0.00    +0.000 A 
ATOM     34 CL   UNL     1      -7.743  13.163  20.345  0.00  0.00    +0.000 Cl
ATOM     35  C   UNL     1      -6.621  13.234  17.891  0.00  0.00    +0.000 A 
ATOM     36  C   UNL     1      -5.824  12.716  16.865  0.00  0.00    +0.000 A 
ENDBRANCH  29  30
ENDBRANCH  28  29
ENDBRANCH  26  28
ENDBRANCH   3  24
TORSDOF 6
ENDMDL
MODEL 3
REMARK VINA RESULT:      -7.7      3.993      9.075
REMARK  Name = 
REMARK  8 active torsions:
REMARK  status: ('A' for Active; 'I' for Inactive)
REMARK    1  A    between atoms: C_1  and  O_2
REMARK    2  A    between atoms: O_2  and  C_3
REMARK    3  A    between atoms: C_6  and  N_7
REMARK    4  A    between atoms: C_9  and  C_10
REMARK    5  A    between atoms: N_12  and  C_13
REMARK    6  A    between atoms: C_13  and  C_14
REMARK    7  A    between atoms: C_14  and  C_15
REMARK    8  A    between atoms: N_29  and  C_30
REMARK                            x       y       z     vdW  Elec       q    Type
REMARK                         _______ _______ _______ _____ _____    ______ ____
ROOT
ATOM      1  N   UNL     1       0.102  10.526  19.423  0.00  0.00    +0.000 N 
ATOM      2  N   UNL     1      -1.128  10.443  18.709  0.00  0.00    +0.000 NA
ATOM      3  C   UNL     1      -2.074  11.314  18.965  0.00  0.00    +0.000 A 
ATOM      4  C   UNL     1      -1.868  12.318  19.977  0.00  0.00    +0.000 A 
ATOM      5  C   UNL     1      -2.732  13.274  20.547  0.00  0.00    +0.000 A 
ATOM      6  C   UNL     1      -4.120  13.441  20.615  0.00  0.00    +0.000 A 
ATOM      7  C   UNL     1      -4.625  14.726  20.791  0.00  0.00    +0.000 A 
ATOM      8  C   UNL     1      -3.757  15.811  20.896  0.00  0.00    +0.000 A 
ATOM      9  C   UNL     1      -2.373  15.629  21.030  0.00  0.00    +0.000 A 
ATOM     10  C   UNL     1      -1.887  14.317  20.931  0.00  0.00    +0.000 A 
ATOM     11  N   UNL     1      -0.641  13.745  21.132  0.00  0.00    +0.000 N 
ATOM     12  C   UNL     1       0.405  14.276  21.971  0.00  0.00    +0.000 C 
ATOM     13  C   UNL     1      -0.609  12.535  20.472  0.00  0.00    +0.000 A 
ATOM     14  C   UNL     1       0.474  11.623  20.259  0.00  0.00    +0.000 A 
ATOM     15  O   UNL     1       1.579  11.803  20.767  0.00  0.00    +0.000 OA
ENDROOT
BRANCH   1  19
ATOM     16  C   UNL     1       2.763   7.261  18.843  0.00  0.00    +0.000 A 
ATOM     17  C   UNL     1       2.517   8.160  17.808  0.00  0.00    +0.000 A 
ATOM     18  C   UNL     1       1.627   9.222  17.987  0.00  0.00    +0.000 A 
ATOM     19  C   UNL     1       0.964   9.407  19.206  0.00  0.00    +0.000 A 
ATOM     20  C   UNL     1       1.209   8.485  20.236  0.00  0.00    +0.000 A 
ATOM     21  C   UNL     1       2.089   7.411  20.052  0.00  0.00    +0.000 A 
BRANCH  16  23
ATOM     22  C   UNL     1       4.498   6.514  17.431  0.00  0.00    +0.000 C 
ATOM     23  O   UNL     1       3.652   6.267  18.547  0.00  0.00    +0.000 OA
ENDBRANCH  16  23
ENDBRANCH   1  19
BRANCH   3  24
ATOM     24  C   UNL     1      -3.320  11.355  18.077  0.00  0.00    +0.000 C 
ATOM     25  O   UNL     1      -3.252  11.777  16.926  0.00  0.00    +0.000 OA
ATOM     26  N   UNL     1      -4.491  10.859  18.618  0.00  0.00    +0.000 N 
ATOM     27  H   UNL     1      -4.429  10.346  19.489  0.00  0.00    +0.000 HD
BRANCH  26  28
ATOM     28  C   UNL     1      -5.686  10.848  17.791  0.00  0.00    +0.000 C 
BRANCH  28  29
ATOM     29  C   UNL     1      -6.907  11.423  18.497  0.00  0.00    +0.000 C 
BRANCH  29  30
ATOM     30  C   UNL     1      -7.096  12.891  18.197  0.00  0.00    +0.000 A 
ATOM     31  C   UNL     1      -7.752  13.728  19.113  0.00  0.00    +0.000 A 
ATOM     32  C   UNL     1      -7.916  15.088  18.839  0.00  0.00    +0.000 A 
ATOM     33  C   UNL     1      -7.432  15.620  17.646  0.00  0.00    +0.000 A 
ATOM     34 CL   UNL     1      -7.618  17.299  17.318  0.00  0.00    +0.000 Cl
ATOM     35  C   UNL     1      -6.796  14.798  16.718  0.00  0.00    +0.000 A 
ATOM     36  C   UNL     1      -6.632  13.437  16.990  0.00  0.00    +0.000 A 
ENDBRANCH  29  30
ENDBRANCH  28  29
ENDBRANCH  26  28
ENDBRANCH   3  24
TORSDOF 6
ENDMDL
MODEL 4
REMARK VINA RESULT:      -7.7      0.621      1.025
REMARK  Name = 
REMARK  8 active torsions:
REMARK  status: ('A' for Active; 'I' for Inactive)
REMARK    1  A    between atoms: C_1  and  O_2
REMARK    2  A    between atoms: O_2  and  C_3
REMARK    3  A    between atoms: C_6  and  N_7
REMARK    4  A    between atoms: C_9  and  C_10
REMARK    5  A    between atoms: N_12  and  C_13
REMARK    6  A    between atoms: C_13  and  C_14
REMARK    7  A    between atoms: C_14  and  C_15
REMARK    8  A    between atoms: N_29  and  C_30
REMARK                            x       y       z     vdW  Elec       q    Type
REMARK                         _______ _______ _______ _____ _____    ______ ____
ROOT
ATOM      1  N   UNL     1      -2.882  13.217  20.901  0.00  0.00    +0.000 N 
ATOM      2  N   UNL     1      -1.603  12.746  20.486  0.00  0.00    +0.000 NA
ATOM      3  C   UNL     1      -1.518  11.995  19.414  0.00  0.00    +0.000 A 
ATOM      4  C   UNL     1      -2.712  11.637  18.694  0.00  0.00    +0.000 A 
ATOM      5  C   UNL     1      -2.936  10.757  17.616  0.00  0.00    +0.000 A 
ATOM      6  C   UNL     1      -2.228   9.697  17.038  0.00  0.00    +0.000 A 
ATOM      7  C   UNL     1      -2.472   9.387  15.704  0.00  0.00    +0.000 A 
ATOM      8  C   UNL     1      -3.402  10.123  14.973  0.00  0.00    +0.000 A 
ATOM      9  C   UNL     1      -4.254  11.048  15.595  0.00  0.00    +0.000 A 
ATOM     10  C   UNL     1      -4.047  11.289  16.961  0.00  0.00    +0.000 A 
ATOM     11  N   UNL     1      -4.745  12.011  17.916  0.00  0.00    +0.000 N 
ATOM     12  C   UNL     1      -6.151  12.328  17.874  0.00  0.00    +0.000 C 
ATOM     13  C   UNL     1      -3.887  12.291  18.959  0.00  0.00    +0.000 A 
ATOM     14  C   UNL     1      -4.071  13.111  20.119  0.00  0.00    +0.000 A 
ATOM     15  O   UNL     1      -5.155  13.635  20.372  0.00  0.00    +0.000 OA
ENDROOT
BRANCH   1  19
ATOM     16  C   UNL     1      -2.709  15.084  24.718  0.00  0.00    +0.000 A 
ATOM     17  C   UNL     1      -2.950  13.716  24.615  0.00  0.00    +0.000 A 
ATOM     18  C   UNL     1      -3.029  13.102  23.362  0.00  0.00    +0.000 A 
ATOM     19  C   UNL     1      -2.869  13.844  22.185  0.00  0.00    +0.000 A 
ATOM     20  C   UNL     1      -2.643  15.224  22.303  0.00  0.00    +0.000 A 
ATOM     21  C   UNL     1      -2.579  15.844  23.558  0.00  0.00    +0.000 A 
BRANCH  16  23
ATOM     22  C   UNL     1      -1.360  15.951  26.447  0.00  0.00    +0.000 C 
ATOM     23  O   UNL     1      -2.653  15.567  25.994  0.00  0.00    +0.000 OA
ENDBRANCH  16  23
ENDBRANCH   1  19
BRANCH   3  24
ATOM     24  C   UNL     1      -0.139  11.642  18.850  0.00  0.00    +0.000 C 
ATOM     25  O   UNL     1       0.445  12.418  18.101  0.00  0.00    +0.000 OA
ATOM     26  N   UNL     1       0.417  10.445  19.262  0.00  0.00    +0.000 N 
ATOM     27  H   UNL     1      -0.026   9.957  20.030  0.00  0.00    +0.000 HD
BRANCH  26  28
ATOM     28  C   UNL     1       1.741  10.094  18.775  0.00  0.00    +0.000 C 
BRANCH  28  29
ATOM     29  C   UNL     1       1.719   9.001  17.715  0.00  0.00    +0.000 C 
BRANCH  29  30
ATOM     30  C   UNL     1       2.563   7.812  18.110  0.00  0.00    +0.000 A 
ATOM     31  C   UNL     1       3.633   7.396  17.302  0.00  0.00    +0.000 A 
ATOM     32  C   UNL     1       4.419   6.302  17.674  0.00  0.00    +0.000 A 
ATOM     33  C   UNL     1       4.137   5.613  18.851  0.00  0.00    +0.000 A 
ATOM     34 CL   UNL     1       5.118   4.279  19.319  0.00  0.00    +0.000 Cl
ATOM     35  C   UNL     1       3.067   6.001  19.654  0.00  0.00    +0.000 A 
ATOM     36  C   UNL     1       2.279   7.095  19.282  0.00  0.00    +0.000 A 
ENDBRANCH  29  30
ENDBRANCH  28  29
ENDBRANCH  26  28
ENDBRANCH   3  24
TORSDOF 6
ENDMDL
MODEL 5
REMARK VINA RESULT:      -7.5      3.233      6.549
REMARK  Name = 
REMARK  8 active torsions:
REMARK  status: ('A' for Active; 'I' for Inactive)
REMARK    1  A    between atoms: C_1  and  O_2
REMARK    2  A    between atoms: O_2  and  C_3
REMARK    3  A    between atoms: C_6  and  N_7
REMARK    4  A    between atoms: C_9  and  C_10
REMARK    5  A    between atoms: N_12  and  C_13
REMARK    6  A    between atoms: C_13  and  C_14
REMARK    7  A    between atoms: C_14  and  C_15
REMARK    8  A    between atoms: N_29  and  C_30
REMARK                            x       y       z     vdW  Elec       q    Type
REMARK                         _______ _______ _______ _____ _____    ______ ____
ROOT
ATOM      1  N   UNL     1      -1.582  12.057  21.987  0.00  0.00    +0.000 N 
ATOM      2  N   UNL     1      -1.954  12.158  20.615  0.00  0.00    +0.000 NA
ATOM      3  C   UNL     1      -1.262  11.500  19.716  0.00  0.00    +0.000 A 
ATOM      4  C   UNL     1      -0.127  10.712  20.123  0.00  0.00    +0.000 A 
ATOM      5  C   UNL     1       0.858  10.027  19.385  0.00  0.00    +0.000 A 
ATOM      6  C   UNL     1       1.319  10.072  18.064  0.00  0.00    +0.000 A 
ATOM      7  C   UNL     1       1.921   8.936  17.533  0.00  0.00    +0.000 A 
ATOM      8  C   UNL     1       2.057   7.787  18.310  0.00  0.00    +0.000 A 
ATOM      9  C   UNL     1       1.782   7.799  19.686  0.00  0.00    +0.000 A 
ATOM     10  C   UNL     1       1.250   8.980  20.221  0.00  0.00    +0.000 A 
ATOM     11  N   UNL     1       0.981   9.403  21.513  0.00  0.00    +0.000 N 
ATOM     12  C   UNL     1       1.624   8.921  22.710  0.00  0.00    +0.000 C 
ATOM     13  C   UNL     1       0.065  10.432  21.450  0.00  0.00    +0.000 A 
ATOM     14  C   UNL     1      -0.633  11.119  22.495  0.00  0.00    +0.000 A 
ATOM     15  O   UNL     1      -0.398  10.898  23.682  0.00  0.00    +0.000 OA
ENDROOT
BRANCH   1  19
ATOM     16  C   UNL     1      -3.697  14.846  24.401  0.00  0.00    +0.000 A 
ATOM     17  C   UNL     1      -2.338  15.022  24.150  0.00  0.00    +0.000 A 
ATOM     18  C   UNL     1      -1.634  14.096  23.375  0.00  0.00    +0.000 A 
ATOM     19  C   UNL     1      -2.275  12.975  22.834  0.00  0.00    +0.000 A 
ATOM     20  C   UNL     1      -3.641  12.802  23.108  0.00  0.00    +0.000 A 
ATOM     21  C   UNL     1      -4.344  13.721  23.898  0.00  0.00    +0.000 A 
BRANCH  16  23
ATOM     22  C   UNL     1      -5.211  16.651  24.500  0.00  0.00    +0.000 C 
ATOM     23  O   UNL     1      -4.274  15.817  25.169  0.00  0.00    +0.000 OA
ENDBRANCH  16  23
ENDBRANCH   1  19
BRANCH   3  24
ATOM     24  C   UNL     1      -1.763  11.447  18.271  0.00  0.00    +0.000 C 
ATOM     25  O   UNL     1      -1.267  12.169  17.412  0.00  0.00    +0.000 OA
ATOM     26  N   UNL     1      -2.754  10.526  17.987  0.00  0.00    +0.000 N 
ATOM     27  H   UNL     1      -2.970   9.831  18.690  0.00  0.00    +0.000 HD
BRANCH  26  28
ATOM     28  C   UNL     1      -3.229  10.422  16.616  0.00  0.00    +0.000 C 
BRANCH  28  29
ATOM     29  C   UNL     1      -4.588  11.076  16.403  0.00  0.00    +0.000 C 
BRANCH  29  30
ATOM     30  C   UNL     1      -5.306  11.329  17.708  0.00  0.00    +0.000 A 
ATOM     31  C   UNL     1      -6.133  10.345  18.271  0.00  0.00    +0.000 A 
ATOM     32  C   UNL     1      -6.788  10.577  19.483  0.00  0.00    +0.000 A 
ATOM     33  C   UNL     1      -6.626  11.796  20.137  0.00  0.00    +0.000 A 
ATOM     34 CL   UNL     1      -7.418  12.073  21.640  0.00  0.00    +0.000 Cl
ATOM     35  C   UNL     1      -5.824  12.791  19.582  0.00  0.00    +0.000 A 
ATOM     36  C   UNL     1      -5.169  12.560  18.368  0.00  0.00    +0.000 A 
ENDBRANCH  29  30
ENDBRANCH  28  29
ENDBRANCH  26  28
ENDBRANCH   3  24
TORSDOF 6
ENDMDL
MODEL 6
REMARK VINA RESULT:      -7.5      3.838      8.935
REMARK  Name = 
REMARK  8 active torsions:
REMARK  status: ('A' for Active; 'I' for Inactive)
REMARK    1  A    between atoms: C_1  and  O_2
REMARK    2  A    between atoms: O_2  and  C_3
REMARK    3  A    between atoms: C_6  and  N_7
REMARK    4  A    between atoms: C_9  and  C_10
REMARK    5  A    between atoms: N_12  and  C_13
REMARK    6  A    between atoms: C_13  and  C_14
REMARK    7  A    between atoms: C_14  and  C_15
REMARK    8  A    between atoms: N_29  and  C_30
REMARK                            x       y       z     vdW  Elec       q    Type
REMARK                         _______ _______ _______ _____ _____    ______ ____
ROOT
ATOM      1  N   UNL     1      -1.343  12.107  22.095  0.00  0.00    +0.000 N 
ATOM      2  N   UNL     1      -2.507  11.834  22.870  0.00  0.00    +0.000 NA
ATOM      3  C   UNL     1      -3.148  12.830  23.433  0.00  0.00    +0.000 A 
ATOM      4  C   UNL     1      -2.653  14.174  23.283  0.00  0.00    +0.000 A 
ATOM      5  C   UNL     1      -3.044  15.394  23.869  0.00  0.00    +0.000 A 
ATOM      6  C   UNL     1      -3.796  15.758  24.993  0.00  0.00    +0.000 A 
ATOM      7  C   UNL     1      -4.419  17.003  24.998  0.00  0.00    +0.000 A 
ATOM      8  C   UNL     1      -4.289  17.855  23.903  0.00  0.00    +0.000 A 
ATOM      9  C   UNL     1      -3.382  17.583  22.869  0.00  0.00    +0.000 A 
ATOM     10  C   UNL     1      -2.701  16.359  22.921  0.00  0.00    +0.000 A 
ATOM     11  N   UNL     1      -1.668  15.811  22.177  0.00  0.00    +0.000 N 
ATOM     12  C   UNL     1      -0.677  16.553  21.435  0.00  0.00    +0.000 C 
ATOM     13  C   UNL     1      -1.690  14.443  22.346  0.00  0.00    +0.000 A 
ATOM     14  C   UNL     1      -0.929  13.415  21.701  0.00  0.00    +0.000 A 
ATOM     15  O   UNL     1      -0.025  13.682  20.912  0.00  0.00    +0.000 OA
ENDROOT
BRANCH   1  19
ATOM     16  C   UNL     1       0.910   8.674  20.994  0.00  0.00    +0.000 A 
ATOM     17  C   UNL     1       0.460   9.561  20.020  0.00  0.00    +0.000 A 
ATOM     18  C   UNL     1      -0.298  10.679  20.375  0.00  0.00    +0.000 A 
ATOM     19  C   UNL     1      -0.624  10.933  21.713  0.00  0.00    +0.000 A 
ATOM     20  C   UNL     1      -0.178  10.022  22.684  0.00  0.00    +0.000 A 
ATOM     21  C   UNL     1       0.570   8.892  22.327  0.00  0.00    +0.000 A 
BRANCH  16  23
ATOM     22  C   UNL     1       2.107   7.746  19.186  0.00  0.00    +0.000 C 
ATOM     23  O   UNL     1       1.643   7.621  20.525  0.00  0.00    +0.000 OA
ENDBRANCH  16  23
ENDBRANCH   1  19
BRANCH   3  24
ATOM     24  C   UNL     1      -4.499  12.573  24.105  0.00  0.00    +0.000 C 
ATOM     25  O   UNL     1      -4.561  12.327  25.306  0.00  0.00    +0.000 OA
ATOM     26  N   UNL     1      -5.623  12.676  23.308  0.00  0.00    +0.000 N 
ATOM     27  H   UNL     1      -5.513  13.077  22.385  0.00  0.00    +0.000 HD
BRANCH  26  28
ATOM     28  C   UNL     1      -6.926  12.475  23.920  0.00  0.00    +0.000 C 
BRANCH  28  29
ATOM     29  C   UNL     1      -7.916  11.770  23.001  0.00  0.00    +0.000 C 
BRANCH  29  30
ATOM     30  C   UNL     1      -7.619  12.030  21.543  0.00  0.00    +0.000 A 
ATOM     31  C   UNL     1      -7.745  13.322  21.008  0.00  0.00    +0.000 A 
ATOM     32  C   UNL     1      -7.460  13.562  19.661  0.00  0.00    +0.000 A 
ATOM     33  C   UNL     1      -7.055  12.514  18.839  0.00  0.00    +0.000 A 
ATOM     34 CL   UNL     1      -6.686  12.815  17.186  0.00  0.00    +0.000 Cl
ATOM     35  C   UNL     1      -6.945  11.222  19.350  0.00  0.00    +0.000 A 
ATOM     36  C   UNL     1      -7.230  10.980  20.698  0.00  0.00    +0.000 A 
ENDBRANCH  29  30
ENDBRANCH  28  29
ENDBRANCH  26  28
ENDBRANCH   3  24
TORSDOF 6
ENDMDL
MODEL 7
REMARK VINA RESULT:      -7.5      0.801      1.237
REMARK  Name = 
REMARK  8 active torsions:
REMARK  status: ('A' for Active; 'I' for Inactive)
REMARK    1  A    between atoms: C_1  and  O_2
REMARK    2  A    between atoms: O_2  and  C_3
REMARK    3  A    between atoms: C_6  and  N_7
REMARK    4  A    between atoms: C_9  and  C_10
REMARK    5  A    between atoms: N_12  and  C_13
REMARK    6  A    between atoms: C_13  and  C_14
REMARK    7  A    between atoms: C_14  and  C_15
REMARK    8  A    between atoms: N_29  and  C_30
REMARK                            x       y       z     vdW  Elec       q    Type
REMARK                         _______ _______ _______ _____ _____    ______ ____
ROOT
ATOM      1  N   UNL     1      -2.403  13.396  21.558  0.00  0.00    +0.000 N 
ATOM      2  N   UNL     1      -1.260  12.691  21.082  0.00  0.00    +0.000 NA
ATOM      3  C   UNL     1      -1.378  11.923  20.025  0.00  0.00    +0.000 A 
ATOM      4  C   UNL     1      -2.659  11.785  19.382  0.00  0.00    +0.000 A 
ATOM      5  C   UNL     1      -3.106  10.948  18.339  0.00  0.00    +0.000 A 
ATOM      6  C   UNL     1      -2.640   9.767  17.747  0.00  0.00    +0.000 A 
ATOM      7  C   UNL     1      -3.016   9.492  16.436  0.00  0.00    +0.000 A 
ATOM      8  C   UNL     1      -3.837  10.379  15.742  0.00  0.00    +0.000 A 
ATOM      9  C   UNL     1      -4.465  11.453  16.389  0.00  0.00    +0.000 A 
ATOM     10  C   UNL     1      -4.136  11.669  17.735  0.00  0.00    +0.000 A 
ATOM     11  N   UNL     1      -4.630  12.519  18.711  0.00  0.00    +0.000 N 
ATOM     12  C   UNL     1      -5.955  13.090  18.741  0.00  0.00    +0.000 C 
ATOM     13  C   UNL     1      -3.675  12.648  19.697  0.00  0.00    +0.000 A 
ATOM     14  C   UNL     1      -3.636  13.502  20.846  0.00  0.00    +0.000 A 
ATOM     15  O   UNL     1      -4.587  14.221  21.147  0.00  0.00    +0.000 OA
ENDROOT
BRANCH   1  19
ATOM     16  C   UNL     1      -1.886  15.359  25.294  0.00  0.00    +0.000 A 
ATOM     17  C   UNL     1      -0.979  15.568  24.259  0.00  0.00    +0.000 A 
ATOM     18  C   UNL     1      -1.132  14.909  23.037  0.00  0.00    +0.000 A 
ATOM     19  C   UNL     1      -2.198  14.025  22.824  0.00  0.00    +0.000 A 
ATOM     20  C   UNL     1      -3.097  13.811  23.881  0.00  0.00    +0.000 A 
ATOM     21  C   UNL     1      -2.934  14.460  25.113  0.00  0.00    +0.000 A 
BRANCH  16  23
ATOM     22  C   UNL     1      -0.284  16.020  26.893  0.00  0.00    +0.000 C 
ATOM     23  O   UNL     1      -1.631  16.060  26.438  0.00  0.00    +0.000 OA
ENDBRANCH  16  23
ENDBRANCH   1  19
BRANCH   3  24
ATOM     24  C   UNL     1      -0.124  11.314  19.393  0.00  0.00    +0.000 C 
ATOM     25  O   UNL     1       0.619  12.000  18.699  0.00  0.00    +0.000 OA
ATOM     26  N   UNL     1       0.139   9.988  19.681  0.00  0.00    +0.000 N 
ATOM     27  H   UNL     1      -0.399   9.547  20.415  0.00  0.00    +0.000 HD
BRANCH  26  28
ATOM     28  C   UNL     1       1.342   9.386  19.127  0.00  0.00    +0.000 C 
BRANCH  28  29
ATOM     29  C   UNL     1       1.767   8.120  19.858  0.00  0.00    +0.000 C 
BRANCH  29  30
ATOM     30  C   UNL     1       2.548   7.185  18.964  0.00  0.00    +0.000 A 
ATOM     31  C   UNL     1       2.493   5.797  19.161  0.00  0.00    +0.000 A 
ATOM     32  C   UNL     1       3.208   4.933  18.327  0.00  0.00    +0.000 A 
ATOM     33  C   UNL     1       3.987   5.452  17.295  0.00  0.00    +0.000 A 
ATOM     34 CL   UNL     1       4.851   4.386  16.256  0.00  0.00    +0.000 Cl
ATOM     35  C   UNL     1       4.068   6.828  17.099  0.00  0.00    +0.000 A 
ATOM     36  C   UNL     1       3.354   7.694  17.934  0.00  0.00    +0.000 A 
ENDBRANCH  29  30
ENDBRANCH  28  29
ENDBRANCH  26  28
ENDBRANCH   3  24
TORSDOF 6
ENDMDL
MODEL 8
REMARK VINA RESULT:      -7.4      3.872      8.996
REMARK  Name = 
REMARK  8 active torsions:
REMARK  status: ('A' for Active; 'I' for Inactive)
REMARK    1  A    between atoms: C_1  and  O_2
REMARK    2  A    between atoms: O_2  and  C_3
REMARK    3  A    between atoms: C_6  and  N_7
REMARK    4  A    between atoms: C_9  and  C_10
REMARK    5  A    between atoms: N_12  and  C_13
REMARK    6  A    between atoms: C_13  and  C_14
REMARK    7  A    between atoms: C_14  and  C_15
REMARK    8  A    between atoms: N_29  and  C_30
REMARK                            x       y       z     vdW  Elec       q    Type
REMARK                         _______ _______ _______ _____ _____    ______ ____
ROOT
ATOM      1  N   UNL     1       0.533  11.286  19.265  0.00  0.00    +0.000 N 
ATOM      2  N   UNL     1      -0.844  11.285  19.634  0.00  0.00    +0.000 NA
ATOM      3  C   UNL     1      -1.449  12.429  19.844  0.00  0.00    +0.000 A 
ATOM      4  C   UNL     1      -0.712  13.660  19.726  0.00  0.00    +0.000 A 
ATOM      5  C   UNL     1      -1.053  14.996  20.017  0.00  0.00    +0.000 A 
ATOM      6  C   UNL     1      -2.045  15.621  20.783  0.00  0.00    +0.000 A 
ATOM      7  C   UNL     1      -2.418  16.920  20.450  0.00  0.00    +0.000 A 
ATOM      8  C   UNL     1      -1.811  17.570  19.377  0.00  0.00    +0.000 A 
ATOM      9  C   UNL     1      -0.686  17.029  18.737  0.00  0.00    +0.000 A 
ATOM     10  C   UNL     1      -0.273  15.751  19.141  0.00  0.00    +0.000 A 
ATOM     11  N   UNL     1       0.832  14.970  18.843  0.00  0.00    +0.000 N 
ATOM     12  C   UNL     1       2.115  15.456  18.399  0.00  0.00    +0.000 C 
ATOM     13  C   UNL     1       0.526  13.658  19.138  0.00  0.00    +0.000 A 
ATOM     14  C   UNL     1       1.264  12.455  18.895  0.00  0.00    +0.000 A 
ATOM     15  O   UNL     1       2.401  12.480  18.427  0.00  0.00    +0.000 OA
ENDROOT
BRANCH   1  19
ATOM     16  C   UNL     1       2.183   7.368  19.222  0.00  0.00    +0.000 A 
ATOM     17  C   UNL     1       1.677   7.905  20.404  0.00  0.00    +0.000 A 
ATOM     18  C   UNL     1       1.154   9.200  20.427  0.00  0.00    +0.000 A 
ATOM     19  C   UNL     1       1.125   9.986  19.268  0.00  0.00    +0.000 A 
ATOM     20  C   UNL     1       1.653   9.439  18.088  0.00  0.00    +0.000 A 
ATOM     21  C   UNL     1       2.193   8.146  18.067  0.00  0.00    +0.000 A 
BRANCH  16  23
ATOM     22  C   UNL     1       3.729   5.769  18.437  0.00  0.00    +0.000 C 
ATOM     23  O   UNL     1       2.667   6.095  19.325  0.00  0.00    +0.000 OA
ENDBRANCH  16  23
ENDBRANCH   1  19
BRANCH   3  24
ATOM     24  C   UNL     1      -2.965  12.451  20.053  0.00  0.00    +0.000 C 
ATOM     25  O   UNL     1      -3.727  12.246  19.113  0.00  0.00    +0.000 OA
ATOM     26  N   UNL     1      -3.415  12.667  21.342  0.00  0.00    +0.000 N 
ATOM     27  H   UNL     1      -2.738  12.626  22.093  0.00  0.00    +0.000 HD
BRANCH  26  28
ATOM     28  C   UNL     1      -4.849  12.658  21.584  0.00  0.00    +0.000 C 
BRANCH  28  29
ATOM     29  C   UNL     1      -5.209  12.881  23.047  0.00  0.00    +0.000 C 
BRANCH  29  30
ATOM     30  C   UNL     1      -4.571  14.132  23.604  0.00  0.00    +0.000 A 
ATOM     31  C   UNL     1      -4.969  15.399  23.152  0.00  0.00    +0.000 A 
ATOM     32  C   UNL     1      -4.384  16.555  23.675  0.00  0.00    +0.000 A 
ATOM     33  C   UNL     1      -3.393  16.452  24.648  0.00  0.00    +0.000 A 
ATOM     34 CL   UNL     1      -2.687  17.877  25.306  0.00  0.00    +0.000 Cl
ATOM     35  C   UNL     1      -2.972  15.201  25.093  0.00  0.00    +0.000 A 
ATOM     36  C   UNL     1      -3.556  14.043  24.569  0.00  0.00    +0.000 A 
ENDBRANCH  29  30
ENDBRANCH  28  29
ENDBRANCH  26  28
ENDBRANCH   3  24
TORSDOF 6
ENDMDL
MODEL 9
REMARK VINA RESULT:      -7.4      1.144      1.305
REMARK  Name = 
REMARK  8 active torsions:
REMARK  status: ('A' for Active; 'I' for Inactive)
REMARK    1  A    between atoms: C_1  and  O_2
REMARK    2  A    between atoms: O_2  and  C_3
REMARK    3  A    between atoms: C_6  and  N_7
REMARK    4  A    between atoms: C_9  and  C_10
REMARK    5  A    between atoms: N_12  and  C_13
REMARK    6  A    between atoms: C_13  and  C_14
REMARK    7  A    between atoms: C_14  and  C_15
REMARK    8  A    between atoms: N_29  and  C_30
REMARK                            x       y       z     vdW  Elec       q    Type
REMARK                         _______ _______ _______ _____ _____    ______ ____
ROOT
ATOM      1  N   UNL     1      -2.778  13.010  20.960  0.00  0.00    +0.000 N 
ATOM      2  N   UNL     1      -1.586  12.315  20.604  0.00  0.00    +0.000 NA
ATOM      3  C   UNL     1      -1.580  11.571  19.523  0.00  0.00    +0.000 A 
ATOM      4  C   UNL     1      -2.777  11.448  18.733  0.00  0.00    +0.000 A 
ATOM      5  C   UNL     1      -3.099  10.636  17.627  0.00  0.00    +0.000 A 
ATOM      6  C   UNL     1      -2.565   9.468  17.066  0.00  0.00    +0.000 A 
ATOM      7  C   UNL     1      -2.786   9.223  15.714  0.00  0.00    +0.000 A 
ATOM      8  C   UNL     1      -3.523  10.126  14.950  0.00  0.00    +0.000 A 
ATOM      9  C   UNL     1      -4.224  11.185  15.544  0.00  0.00    +0.000 A 
ATOM     10  C   UNL     1      -4.054  11.371  16.924  0.00  0.00    +0.000 A 
ATOM     11  N   UNL     1      -4.659  12.199  17.855  0.00  0.00    +0.000 N 
ATOM     12  C   UNL     1      -5.979  12.770  17.744  0.00  0.00    +0.000 C 
ATOM     13  C   UNL     1      -3.825  12.305  18.948  0.00  0.00    +0.000 A 
ATOM     14  C   UNL     1      -3.921  13.133  20.112  0.00  0.00    +0.000 A 
ATOM     15  O   UNL     1      -4.901  13.846  20.318  0.00  0.00    +0.000 OA
ENDROOT
BRANCH   1  19
ATOM     16  C   UNL     1      -2.496  14.734  24.836  0.00  0.00    +0.000 A 
ATOM     17  C   UNL     1      -3.327  13.639  24.613  0.00  0.00    +0.000 A 
ATOM     18  C   UNL     1      -3.439  13.083  23.336  0.00  0.00    +0.000 A 
ATOM     19  C   UNL     1      -2.722  13.610  22.255  0.00  0.00    +0.000 A 
ATOM     20  C   UNL     1      -1.900  14.724  22.490  0.00  0.00    +0.000 A 
ATOM     21  C   UNL     1      -1.799  15.292  23.767  0.00  0.00    +0.000 A 
BRANCH  16  23
ATOM     22  C   UNL     1      -1.362  16.016  26.459  0.00  0.00    +0.000 C 
ATOM     23  O   UNL     1      -2.469  15.188  26.124  0.00  0.00    +0.000 OA
ENDBRANCH  16  23
ENDBRANCH   1  19
BRANCH   3  24
ATOM     24  C   UNL     1      -0.260  10.976  19.027  0.00  0.00    +0.000 C 
ATOM     25  O   UNL     1       0.471  11.617  18.279  0.00  0.00    +0.000 OA
ATOM     26  N   UNL     1       0.074   9.720  19.497  0.00  0.00    +0.000 N 
ATOM     27  H   UNL     1      -0.470   9.339  20.260  0.00  0.00    +0.000 HD
BRANCH  26  28
ATOM     28  C   UNL     1       1.338   9.137  19.075  0.00  0.00    +0.000 C 
BRANCH  28  29
ATOM     29  C   UNL     1       1.949   8.214  20.121  0.00  0.00    +0.000 C 
BRANCH  29  30
ATOM     30  C   UNL     1       2.041   6.787  19.632  0.00  0.00    +0.000 A 
ATOM     31  C   UNL     1       1.768   5.717  20.497  0.00  0.00    +0.000 A 
ATOM     32  C   UNL     1       1.844   4.399  20.040  0.00  0.00    +0.000 A 
ATOM     33  C   UNL     1       2.200   4.141  18.719  0.00  0.00    +0.000 A 
ATOM     34 CL   UNL     1       2.274   2.518  18.152  0.00  0.00    +0.000 Cl
ATOM     35  C   UNL     1       2.494   5.192  17.853  0.00  0.00    +0.000 A 
ATOM     36  C   UNL     1       2.420   6.512  18.309  0.00  0.00    +0.000 A 
ENDBRANCH  29  30
ENDBRANCH  28  29
ENDBRANCH  26  28
ENDBRANCH   3  24
TORSDOF 6
ENDMDL
