MODEL 1
REMARK VINA RESULT:      -8.4      0.000      0.000
REMARK  Name = 
REMARK  8 active torsions:
REMARK  status: ('A' for Active; 'I' for Inactive)
REMARK    1  A    between atoms: C_2  and  C_4
REMARK    2  A    between atoms: C_8  and  C_9
REMARK    3  A    between atoms: N_17  and  C_18
REMARK    4  A    between atoms: C_18  and  C_19
REMARK    5  A    between atoms: C_19  and  C_20
REMARK    6  A    between atoms: C_20  and  C_21
REMARK    7  A    between atoms: C_21  and  C_22
REMARK    8  A    between atoms: C_22  and  N_23
REMARK                            x       y       z     vdW  Elec       q    Type
REMARK                         _______ _______ _______ _____ _____    ______ ____
ROOT
ATOM      1  C   UNL     1       5.096   3.498  17.726  0.00  0.00    +0.000 C 
ATOM      2  O   UNL     1       3.826   2.928  17.375  0.00  0.00    +0.000 OA
ATOM      3  C   UNL     1       2.821   3.114  18.286  0.00  0.00    +0.000 A 
ATOM      4  C   UNL     1       1.712   2.277  18.180  0.00  0.00    +0.000 A 
ATOM      5  C   UNL     1       0.665   2.381  19.099  0.00  0.00    +0.000 A 
ATOM      6  C   UNL     1       0.740   3.318  20.127  0.00  0.00    +0.000 A 
ATOM      7  C   UNL     1       1.814   4.210  20.184  0.00  0.00    +0.000 A 
ATOM      8  C   UNL     1       2.830   4.142  19.226  0.00  0.00    +0.000 A 
ATOM      9  N   UNL     1       3.915   5.029  19.264  0.00  0.00    +0.000 N 
ATOM     10  C   UNL     1       5.144   4.548  18.870  0.00  0.00    +0.000 C 
ATOM     11  O   UNL     1       6.188   4.990  19.362  0.00  0.00    +0.000 OA
ENDROOT
BRANCH   1  16
ATOM     12  C   UNL     1       6.086   4.028  14.045  0.00  0.00    +0.000 A 
ATOM     13  C   UNL     1       7.097   4.979  14.143  0.00  0.00    +0.000 A 
ATOM     14  C   UNL     1       7.418   5.521  15.388  0.00  0.00    +0.000 A 
ATOM     15  C   UNL     1       6.763   5.080  16.544  0.00  0.00    +0.000 A 
ATOM     16  C   UNL     1       5.758   4.104  16.474  0.00  0.00    +0.000 A 
ATOM     17  C   UNL     1       5.401   3.627  15.195  0.00  0.00    +0.000 A 
BRANCH  12  19
ATOM     18  N   UNL     1       6.668   2.615  12.187  0.00  0.00    +0.000 NA
ATOM     19  C   UNL     1       5.779   3.372  12.741  0.00  0.00    +0.000 C 
ATOM     20  N   UNL     1       4.566   3.559  12.143  0.00  0.00    +0.000 N 
ATOM     21  H   UNL     1       6.275   2.195  11.343  0.00  0.00    +0.000 HD
ATOM     22  H   UNL     1       4.524   3.373  11.149  0.00  0.00    +0.000 HD
ATOM     23  H   UNL     1       4.070   4.404  12.396  0.00  0.00    +0.000 HD
ENDBRANCH  12  19
ENDBRANCH   1  16
BRANCH   9  24
ATOM     24  C   UNL     1       3.753   6.482  19.278  0.00  0.00    +0.000 C 
BRANCH  24  25
ATOM     25  C   UNL     1       3.257   7.069  17.923  0.00  0.00    +0.000 C 
BRANCH  25  26
ATOM     26  C   UNL     1       2.756   8.527  17.844  0.00  0.00    +0.000 C 
BRANCH  26  27
ATOM     27  C   UNL     1       1.237   8.744  17.941  0.00  0.00    +0.000 C 
BRANCH  27  28
ATOM     28  C   UNL     1       0.872  10.140  18.431  0.00  0.00    +0.000 C 
BRANCH  28  29
ATOM     29  N   UNL     1      -0.278  10.277  19.335  0.00  0.00    +0.000 NA
ATOM     30  C   UNL     1      -0.484  11.649  19.845  0.00  0.00    +0.000 C 
ATOM     31  C   UNL     1       0.541  12.123  20.895  0.00  0.00    +0.000 C 
ATOM     32  O   UNL     1       0.637  11.208  21.996  0.00  0.00    +0.000 OA
ATOM     33  C   UNL     1       0.974   9.900  21.526  0.00  0.00    +0.000 C 
ATOM     34  C   UNL     1      -0.093   9.398  20.522  0.00  0.00    +0.000 C 
ENDBRANCH  28  29
ENDBRANCH  27  28
ENDBRANCH  26  27
ENDBRANCH  25  26
ENDBRANCH  24  25
ENDBRANCH   9  24
TORSDOF 8
ENDMDL
MODEL 2
REMARK VINA RESULT:      -8.4      4.605      5.851
REMARK  Name = 
REMARK  8 active torsions:
REMARK  status: ('A' for Active; 'I' for Inactive)
REMARK    1  A    between atoms: C_2  and  C_4
REMARK    2  A    between atoms: C_8  and  C_9
REMARK    3  A    between atoms: N_17  and  C_18
REMARK    4  A    between atoms: C_18  and  C_19
REMARK    5  A    between atoms: C_19  and  C_20
REMARK    6  A    between atoms: C_20  and  C_21
REMARK    7  A    between atoms: C_21  and  C_22
REMARK    8  A    between atoms: C_22  and  N_23
REMARK                            x       y       z     vdW  Elec       q    Type
REMARK                         _______ _______ _______ _____ _____    ______ ____
ROOT
ATOM      1  C   UNL     1       5.799   3.892  16.203  0.00  0.00    +0.000 C 
ATOM      2  O   UNL     1       4.368   3.886  16.321  0.00  0.00    +0.000 OA
ATOM      3  C   UNL     1       3.860   4.544  17.409  0.00  0.00    +0.000 A 
ATOM      4  C   UNL     1       2.547   4.247  17.769  0.00  0.00    +0.000 A 
ATOM      5  C   UNL     1       1.975   4.849  18.893  0.00  0.00    +0.000 A 
ATOM      6  C   UNL     1       2.727   5.738  19.656  0.00  0.00    +0.000 A 
ATOM      7  C   UNL     1       4.014   6.096  19.248  0.00  0.00    +0.000 A 
ATOM      8  C   UNL     1       4.561   5.538  18.090  0.00  0.00    +0.000 A 
ATOM      9  N   UNL     1       5.850   5.885  17.662  0.00  0.00    +0.000 N 
ATOM     10  C   UNL     1       6.607   4.903  17.061  0.00  0.00    +0.000 C 
ATOM     11  O   UNL     1       7.839   4.899  17.161  0.00  0.00    +0.000 OA
ENDROOT
BRANCH   1  16
ATOM     12  C   UNL     1       5.990   3.312  12.403  0.00  0.00    +0.000 A 
ATOM     13  C   UNL     1       7.035   4.150  12.027  0.00  0.00    +0.000 A 
ATOM     14  C   UNL     1       7.639   4.972  12.979  0.00  0.00    +0.000 A 
ATOM     15  C   UNL     1       7.232   4.926  14.317  0.00  0.00    +0.000 A 
ATOM     16  C   UNL     1       6.197   4.070  14.726  0.00  0.00    +0.000 A 
ATOM     17  C   UNL     1       5.555   3.304  13.730  0.00  0.00    +0.000 A 
BRANCH  12  19
ATOM     18  N   UNL     1       4.246   2.651  10.883  0.00  0.00    +0.000 NA
ATOM     19  C   UNL     1       5.383   2.362  11.425  0.00  0.00    +0.000 C 
ATOM     20  N   UNL     1       6.026   1.204  11.097  0.00  0.00    +0.000 N 
ATOM     21  H   UNL     1       4.008   1.935  10.195  0.00  0.00    +0.000 HD
ATOM     22  H   UNL     1       5.452   0.470  10.704  0.00  0.00    +0.000 HD
ATOM     23  H   UNL     1       6.685   0.850  11.780  0.00  0.00    +0.000 HD
ENDBRANCH  12  19
ENDBRANCH   1  16
BRANCH   9  24
ATOM     24  C   UNL     1       6.264   7.268  17.430  0.00  0.00    +0.000 C 
BRANCH  24  25
ATOM     25  C   UNL     1       7.595   7.649  18.143  0.00  0.00    +0.000 C 
BRANCH  25  26
ATOM     26  C   UNL     1       8.411   8.870  17.666  0.00  0.00    +0.000 C 
BRANCH  26  27
ATOM     27  C   UNL     1       8.992   9.783  18.759  0.00  0.00    +0.000 C 
BRANCH  27  28
ATOM     28  C   UNL     1       9.143  11.228  18.298  0.00  0.00    +0.000 C 
BRANCH  28  29
ATOM     29  N   UNL     1      10.481  11.694  17.912  0.00  0.00    +0.000 NA
ATOM     30  C   UNL     1      11.517  11.472  18.944  0.00  0.00    +0.000 C 
ATOM     31  C   UNL     1      11.428  12.395  20.177  0.00  0.00    +0.000 C 
ATOM     32  O   UNL     1      11.406  13.780  19.805  0.00  0.00    +0.000 OA
ATOM     33  C   UNL     1      10.319  14.037  18.911  0.00  0.00    +0.000 C 
ATOM     34  C   UNL     1      10.447  13.158  17.642  0.00  0.00    +0.000 C 
ENDBRANCH  28  29
ENDBRANCH  27  28
ENDBRANCH  26  27
ENDBRANCH  25  26
ENDBRANCH  24  25
ENDBRANCH   9  24
TORSDOF 8
ENDMDL
MODEL 3
REMARK VINA RESULT:      -8.4      1.267      1.876
REMARK  Name = 
REMARK  8 active torsions:
REMARK  status: ('A' for Active; 'I' for Inactive)
REMARK    1  A    between atoms: C_2  and  C_4
REMARK    2  A    between atoms: C_8  and  C_9
REMARK    3  A    between atoms: N_17  and  C_18
REMARK    4  A    between atoms: C_18  and  C_19
REMARK    5  A    between atoms: C_19  and  C_20
REMARK    6  A    between atoms: C_20  and  C_21
REMARK    7  A    between atoms: C_21  and  C_22
REMARK    8  A    between atoms: C_22  and  N_23
REMARK                            x       y       z     vdW  Elec       q    Type
REMARK                         _______ _______ _______ _____ _____    ______ ____
ROOT
ATOM      1  C   UNL     1       5.542   4.200  16.724  0.00  0.00    +0.000 C 
ATOM      2  O   UNL     1       4.438   3.282  16.749  0.00  0.00    +0.000 OA
ATOM      3  C   UNL     1       3.416   3.608  17.600  0.00  0.00    +0.000 A 
ATOM      4  C   UNL     1       2.530   2.587  17.941  0.00  0.00    +0.000 A 
ATOM      5  C   UNL     1       1.487   2.835  18.836  0.00  0.00    +0.000 A 
ATOM      6  C   UNL     1       1.342   4.103  19.393  0.00  0.00    +0.000 A 
ATOM      7  C   UNL     1       2.181   5.144  18.989  0.00  0.00    +0.000 A 
ATOM      8  C   UNL     1       3.186   4.907  18.048  0.00  0.00    +0.000 A 
ATOM      9  N   UNL     1       4.037   5.939  17.627  0.00  0.00    +0.000 N 
ATOM     10  C   UNL     1       5.345   5.610  17.344  0.00  0.00    +0.000 C 
ATOM     11  O   UNL     1       6.258   6.425  17.519  0.00  0.00    +0.000 OA
ENDROOT
BRANCH   1  16
ATOM     12  C   UNL     1       5.922   3.663  12.931  0.00  0.00    +0.000 A 
ATOM     13  C   UNL     1       7.057   4.411  12.638  0.00  0.00    +0.000 A 
ATOM     14  C   UNL     1       7.669   5.164  13.641  0.00  0.00    +0.000 A 
ATOM     15  C   UNL     1       7.175   5.133  14.951  0.00  0.00    +0.000 A 
ATOM     16  C   UNL     1       6.047   4.365  15.278  0.00  0.00    +0.000 A 
ATOM     17  C   UNL     1       5.404   3.674  14.229  0.00  0.00    +0.000 A 
BRANCH  12  19
ATOM     18  N   UNL     1       4.194   3.153  11.336  0.00  0.00    +0.000 NA
ATOM     19  C   UNL     1       5.297   2.785  11.899  0.00  0.00    +0.000 C 
ATOM     20  N   UNL     1       5.891   1.608  11.544  0.00  0.00    +0.000 N 
ATOM     21  H   UNL     1       3.942   2.478  10.613  0.00  0.00    +0.000 HD
ATOM     22  H   UNL     1       5.292   0.920  11.105  0.00  0.00    +0.000 HD
ATOM     23  H   UNL     1       6.509   1.194  12.231  0.00  0.00    +0.000 HD
ENDBRANCH  12  19
ENDBRANCH   1  16
BRANCH   9  24
ATOM     24  C   UNL     1       3.543   7.200  17.077  0.00  0.00    +0.000 C 
BRANCH  24  25
ATOM     25  C   UNL     1       2.818   8.097  18.124  0.00  0.00    +0.000 C 
BRANCH  25  26
ATOM     26  C   UNL     1       1.397   8.629  17.841  0.00  0.00    +0.000 C 
BRANCH  26  27
ATOM     27  C   UNL     1       0.972   9.901  18.595  0.00  0.00    +0.000 C 
BRANCH  27  28
ATOM     28  C   UNL     1       0.432   9.604  19.990  0.00  0.00    +0.000 C 
BRANCH  28  29
ATOM     29  N   UNL     1       1.190  10.101  21.144  0.00  0.00    +0.000 NA
ATOM     30  C   UNL     1       0.835   9.450  22.424  0.00  0.00    +0.000 C 
ATOM     31  C   UNL     1      -0.535   9.851  23.009  0.00  0.00    +0.000 C 
ATOM     32  O   UNL     1      -0.663  11.274  23.139  0.00  0.00    +0.000 OA
ATOM     33  C   UNL     1      -0.457  11.908  21.873  0.00  0.00    +0.000 C 
ATOM     34  C   UNL     1       0.946  11.559  21.318  0.00  0.00    +0.000 C 
ENDBRANCH  28  29
ENDBRANCH  27  28
ENDBRANCH  26  27
ENDBRANCH  25  26
ENDBRANCH  24  25
ENDBRANCH   9  24
TORSDOF 8
ENDMDL
MODEL 4
REMARK VINA RESULT:      -8.3      4.731      5.933
REMARK  Name = 
REMARK  8 active torsions:
REMARK  status: ('A' for Active; 'I' for Inactive)
REMARK    1  A    between atoms: C_2  and  C_4
REMARK    2  A    between atoms: C_8  and  C_9
REMARK    3  A    between atoms: N_17  and  C_18
REMARK    4  A    between atoms: C_18  and  C_19
REMARK    5  A    between atoms: C_19  and  C_20
REMARK    6  A    between atoms: C_20  and  C_21
REMARK    7  A    between atoms: C_21  and  C_22
REMARK    8  A    between atoms: C_22  and  N_23
REMARK                            x       y       z     vdW  Elec       q    Type
REMARK                         _______ _______ _______ _____ _____    ______ ____
ROOT
ATOM      1  C   UNL     1       5.823   3.969  16.166  0.00  0.00    +0.000 C 
ATOM      2  O   UNL     1       4.394   3.994  16.295  0.00  0.00    +0.000 OA
ATOM      3  C   UNL     1       3.908   4.683  17.373  0.00  0.00    +0.000 A 
ATOM      4  C   UNL     1       2.592   4.419  17.750  0.00  0.00    +0.000 A 
ATOM      5  C   UNL     1       2.041   5.054  18.865  0.00  0.00    +0.000 A 
ATOM      6  C   UNL     1       2.816   5.944  19.605  0.00  0.00    +0.000 A 
ATOM      7  C   UNL     1       4.106   6.268  19.180  0.00  0.00    +0.000 A 
ATOM      8  C   UNL     1       4.633   5.676  18.029  0.00  0.00    +0.000 A 
ATOM      9  N   UNL     1       5.925   5.989  17.584  0.00  0.00    +0.000 N 
ATOM     10  C   UNL     1       6.658   4.981  16.997  0.00  0.00    +0.000 C 
ATOM     11  O   UNL     1       7.890   4.955  17.088  0.00  0.00    +0.000 OA
ENDROOT
BRANCH   1  16
ATOM     12  C   UNL     1       5.952   3.327  12.373  0.00  0.00    +0.000 A 
ATOM     13  C   UNL     1       7.025   4.117  11.974  0.00  0.00    +0.000 A 
ATOM     14  C   UNL     1       7.672   4.928  12.908  0.00  0.00    +0.000 A 
ATOM     15  C   UNL     1       7.277   4.917  14.251  0.00  0.00    +0.000 A 
ATOM     16  C   UNL     1       6.213   4.109  14.682  0.00  0.00    +0.000 A 
ATOM     17  C   UNL     1       5.530   3.356  13.705  0.00  0.00    +0.000 A 
BRANCH  12  19
ATOM     18  N   UNL     1       5.875   1.270  11.128  0.00  0.00    +0.000 NA
ATOM     19  C   UNL     1       5.296   2.389  11.416  0.00  0.00    +0.000 C 
ATOM     20  N   UNL     1       4.090   2.702  10.858  0.00  0.00    +0.000 N 
ATOM     21  H   UNL     1       5.266   0.722  10.517  0.00  0.00    +0.000 HD
ATOM     22  H   UNL     1       3.853   2.216  10.004  0.00  0.00    +0.000 HD
ATOM     23  H   UNL     1       3.863   3.688  10.813  0.00  0.00    +0.000 HD
ENDBRANCH  12  19
ENDBRANCH   1  16
BRANCH   9  24
ATOM     24  C   UNL     1       6.363   7.359  17.321  0.00  0.00    +0.000 C 
BRANCH  24  25
ATOM     25  C   UNL     1       7.663   7.755  18.082  0.00  0.00    +0.000 C 
BRANCH  25  26
ATOM     26  C   UNL     1       8.215   9.194  17.983  0.00  0.00    +0.000 C 
BRANCH  26  27
ATOM     27  C   UNL     1       9.231   9.621  19.055  0.00  0.00    +0.000 C 
BRANCH  27  28
ATOM     28  C   UNL     1       9.473  11.126  19.070  0.00  0.00    +0.000 C 
BRANCH  28  29
ATOM     29  N   UNL     1      10.587  11.639  19.877  0.00  0.00    +0.000 NA
ATOM     30  C   UNL     1      10.378  13.009  20.392  0.00  0.00    +0.000 C 
ATOM     31  C   UNL     1      10.477  14.132  19.339  0.00  0.00    +0.000 C 
ATOM     32  O   UNL     1      11.712  14.073  18.612  0.00  0.00    +0.000 OA
ATOM     33  C   UNL     1      11.862  12.792  17.992  0.00  0.00    +0.000 C 
ATOM     34  C   UNL     1      11.830  11.670  19.059  0.00  0.00    +0.000 C 
ENDBRANCH  28  29
ENDBRANCH  27  28
ENDBRANCH  26  27
ENDBRANCH  25  26
ENDBRANCH  24  25
ENDBRANCH   9  24
TORSDOF 8
ENDMDL
MODEL 5
REMARK VINA RESULT:      -8.3      0.826      1.265
REMARK  Name = 
REMARK  8 active torsions:
REMARK  status: ('A' for Active; 'I' for Inactive)
REMARK    1  A    between atoms: C_2  and  C_4
REMARK    2  A    between atoms: C_8  and  C_9
REMARK    3  A    between atoms: N_17  and  C_18
REMARK    4  A    between atoms: C_18  and  C_19
REMARK    5  A    between atoms: C_19  and  C_20
REMARK    6  A    between atoms: C_20  and  C_21
REMARK    7  A    between atoms: C_21  and  C_22
REMARK    8  A    between atoms: C_22  and  N_23
REMARK                            x       y       z     vdW  Elec       q    Type
REMARK                         _______ _______ _______ _____ _____    ______ ____
ROOT
ATOM      1  C   UNL     1       5.155   3.536  17.656  0.00  0.00    +0.000 C 
ATOM      2  O   UNL     1       3.871   2.987  17.322  0.00  0.00    +0.000 OA
ATOM      3  C   UNL     1       2.878   3.204  18.239  0.00  0.00    +0.000 A 
ATOM      4  C   UNL     1       1.751   2.387  18.153  0.00  0.00    +0.000 A 
ATOM      5  C   UNL     1       0.715   2.523  19.080  0.00  0.00    +0.000 A 
ATOM      6  C   UNL     1       0.817   3.471  20.094  0.00  0.00    +0.000 A 
ATOM      7  C   UNL     1       1.908   4.343  20.131  0.00  0.00    +0.000 A 
ATOM      8  C   UNL     1       2.914   4.243  19.166  0.00  0.00    +0.000 A 
ATOM      9  N   UNL     1       4.016   5.109  19.183  0.00  0.00    +0.000 N 
ATOM     10  C   UNL     1       5.233   4.599  18.785  0.00  0.00    +0.000 C 
ATOM     11  O   UNL     1       6.289   5.028  19.263  0.00  0.00    +0.000 OA
ENDROOT
BRANCH   1  16
ATOM     12  C   UNL     1       6.107   4.014  13.957  0.00  0.00    +0.000 A 
ATOM     13  C   UNL     1       7.149   4.932  14.035  0.00  0.00    +0.000 A 
ATOM     14  C   UNL     1       7.507   5.469  15.272  0.00  0.00    +0.000 A 
ATOM     15  C   UNL     1       6.855   5.057  16.440  0.00  0.00    +0.000 A 
ATOM     16  C   UNL     1       5.817   4.113  16.390  0.00  0.00    +0.000 A 
ATOM     17  C   UNL     1       5.426   3.642  15.119  0.00  0.00    +0.000 A 
BRANCH  12  19
ATOM     18  N   UNL     1       4.587   3.551  12.151  0.00  0.00    +0.000 NA
ATOM     19  C   UNL     1       5.759   3.361  12.661  0.00  0.00    +0.000 C 
ATOM     20  N   UNL     1       6.672   2.580  12.015  0.00  0.00    +0.000 N 
ATOM     21  H   UNL     1       4.538   3.092  11.239  0.00  0.00    +0.000 HD
ATOM     22  H   UNL     1       6.301   1.922  11.342  0.00  0.00    +0.000 HD
ATOM     23  H   UNL     1       7.397   2.171  12.591  0.00  0.00    +0.000 HD
ENDBRANCH  12  19
ENDBRANCH   1  16
BRANCH   9  24
ATOM     24  C   UNL     1       3.882   6.565  19.180  0.00  0.00    +0.000 C 
BRANCH  24  25
ATOM     25  C   UNL     1       3.381   7.144  17.824  0.00  0.00    +0.000 C 
BRANCH  25  26
ATOM     26  C   UNL     1       2.027   7.882  17.746  0.00  0.00    +0.000 C 
BRANCH  26  27
ATOM     27  C   UNL     1       2.056   9.405  17.958  0.00  0.00    +0.000 C 
BRANCH  27  28
ATOM     28  C   UNL     1       1.073   9.868  19.027  0.00  0.00    +0.000 C 
BRANCH  28  29
ATOM     29  N   UNL     1       0.983  11.307  19.306  0.00  0.00    +0.000 NA
ATOM     30  C   UNL     1       0.962  11.642  20.746  0.00  0.00    +0.000 C 
ATOM     31  C   UNL     1      -0.350  11.303  21.483  0.00  0.00    +0.000 C 
ATOM     32  O   UNL     1      -1.490  11.885  20.835  0.00  0.00    +0.000 OA
ATOM     33  C   UNL     1      -1.558  11.457  19.472  0.00  0.00    +0.000 C 
ATOM     34  C   UNL     1      -0.268  11.858  18.716  0.00  0.00    +0.000 C 
ENDBRANCH  28  29
ENDBRANCH  27  28
ENDBRANCH  26  27
ENDBRANCH  25  26
ENDBRANCH  24  25
ENDBRANCH   9  24
TORSDOF 8
ENDMDL
MODEL 6
REMARK VINA RESULT:      -8.2      0.930      1.304
REMARK  Name = 
REMARK  8 active torsions:
REMARK  status: ('A' for Active; 'I' for Inactive)
REMARK    1  A    between atoms: C_2  and  C_4
REMARK    2  A    between atoms: C_8  and  C_9
REMARK    3  A    between atoms: N_17  and  C_18
REMARK    4  A    between atoms: C_18  and  C_19
REMARK    5  A    between atoms: C_19  and  C_20
REMARK    6  A    between atoms: C_20  and  C_21
REMARK    7  A    between atoms: C_21  and  C_22
REMARK    8  A    between atoms: C_22  and  N_23
REMARK                            x       y       z     vdW  Elec       q    Type
REMARK                         _______ _______ _______ _____ _____    ______ ____
ROOT
ATOM      1  C   UNL     1       5.074   3.680  17.805  0.00  0.00    +0.000 C 
ATOM      2  O   UNL     1       3.845   3.023  17.458  0.00  0.00    +0.000 OA
ATOM      3  C   UNL     1       2.810   3.199  18.336  0.00  0.00    +0.000 A 
ATOM      4  C   UNL     1       1.751   2.297  18.251  0.00  0.00    +0.000 A 
ATOM      5  C   UNL     1       0.679   2.390  19.142  0.00  0.00    +0.000 A 
ATOM      6  C   UNL     1       0.678   3.381  20.119  0.00  0.00    +0.000 A 
ATOM      7  C   UNL     1       1.699   4.333  20.152  0.00  0.00    +0.000 A 
ATOM      8  C   UNL     1       2.740   4.273  19.221  0.00  0.00    +0.000 A 
ATOM      9  N   UNL     1       3.774   5.220  19.234  0.00  0.00    +0.000 N 
ATOM     10  C   UNL     1       5.037   4.788  18.893  0.00  0.00    +0.000 C 
ATOM     11  O   UNL     1       6.043   5.313  19.383  0.00  0.00    +0.000 OA
ENDROOT
BRANCH   1  16
ATOM     12  C   UNL     1       6.052   4.124  14.109  0.00  0.00    +0.000 A 
ATOM     13  C   UNL     1       7.062   5.078  14.182  0.00  0.00    +0.000 A 
ATOM     14  C   UNL     1       7.387   5.649  15.413  0.00  0.00    +0.000 A 
ATOM     15  C   UNL     1       6.735   5.235  16.581  0.00  0.00    +0.000 A 
ATOM     16  C   UNL     1       5.731   4.256  16.537  0.00  0.00    +0.000 A 
ATOM     17  C   UNL     1       5.371   3.750  15.270  0.00  0.00    +0.000 A 
BRANCH  12  19
ATOM     18  N   UNL     1       4.567   3.570  12.299  0.00  0.00    +0.000 NA
ATOM     19  C   UNL     1       5.741   3.437  12.822  0.00  0.00    +0.000 C 
ATOM     20  N   UNL     1       6.691   2.683  12.195  0.00  0.00    +0.000 N 
ATOM     21  H   UNL     1       4.544   3.095  11.395  0.00  0.00    +0.000 HD
ATOM     22  H   UNL     1       6.353   1.999  11.531  0.00  0.00    +0.000 HD
ATOM     23  H   UNL     1       7.427   2.313  12.784  0.00  0.00    +0.000 HD
ENDBRANCH  12  19
ENDBRANCH   1  16
BRANCH   9  24
ATOM     24  C   UNL     1       3.532   6.661  19.169  0.00  0.00    +0.000 C 
BRANCH  24  25
ATOM     25  C   UNL     1       2.927   7.131  17.813  0.00  0.00    +0.000 C 
BRANCH  25  26
ATOM     26  C   UNL     1       2.329   8.548  17.679  0.00  0.00    +0.000 C 
BRANCH  26  27
ATOM     27  C   UNL     1       1.531   9.079  18.882  0.00  0.00    +0.000 C 
BRANCH  27  28
ATOM     28  C   UNL     1       0.373   9.981  18.468  0.00  0.00    +0.000 C 
BRANCH  28  29
ATOM     29  N   UNL     1      -0.297  10.767  19.511  0.00  0.00    +0.000 NA
ATOM     30  C   UNL     1      -1.211  11.807  18.988  0.00  0.00    +0.000 C 
ATOM     31  C   UNL     1      -0.521  13.030  18.352  0.00  0.00    +0.000 C 
ATOM     32  O   UNL     1       0.433  13.628  19.242  0.00  0.00    +0.000 OA
ATOM     33  C   UNL     1       1.406  12.661  19.647  0.00  0.00    +0.000 C 
ATOM     34  C   UNL     1       0.718  11.464  20.347  0.00  0.00    +0.000 C 
ENDBRANCH  28  29
ENDBRANCH  27  28
ENDBRANCH  26  27
ENDBRANCH  25  26
ENDBRANCH  24  25
ENDBRANCH   9  24
TORSDOF 8
ENDMDL
MODEL 7
REMARK VINA RESULT:      -8.1      0.870      1.139
REMARK  Name = 
REMARK  8 active torsions:
REMARK  status: ('A' for Active; 'I' for Inactive)
REMARK    1  A    between atoms: C_2  and  C_4
REMARK    2  A    between atoms: C_8  and  C_9
REMARK    3  A    between atoms: N_17  and  C_18
REMARK    4  A    between atoms: C_18  and  C_19
REMARK    5  A    between atoms: C_19  and  C_20
REMARK    6  A    between atoms: C_20  and  C_21
REMARK    7  A    between atoms: C_21  and  C_22
REMARK    8  A    between atoms: C_22  and  N_23
REMARK                            x       y       z     vdW  Elec       q    Type
REMARK                         _______ _______ _______ _____ _____    ______ ____
ROOT
ATOM      1  C   UNL     1       5.193   3.742  17.578  0.00  0.00    +0.000 C 
ATOM      2  O   UNL     1       3.948   3.090  17.285  0.00  0.00    +0.000 OA
ATOM      3  C   UNL     1       2.927   3.340  18.163  0.00  0.00    +0.000 A 
ATOM      4  C   UNL     1       1.850   2.455  18.145  0.00  0.00    +0.000 A 
ATOM      5  C   UNL     1       0.791   2.623  19.040  0.00  0.00    +0.000 A 
ATOM      6  C   UNL     1       0.821   3.672  19.956  0.00  0.00    +0.000 A 
ATOM      7  C   UNL     1       1.861   4.604  19.919  0.00  0.00    +0.000 A 
ATOM      8  C   UNL     1       2.889   4.466  18.982  0.00  0.00    +0.000 A 
ATOM      9  N   UNL     1       3.941   5.391  18.926  0.00  0.00    +0.000 N 
ATOM     10  C   UNL     1       5.191   4.915  18.596  0.00  0.00    +0.000 C 
ATOM     11  O   UNL     1       6.213   5.448  19.042  0.00  0.00    +0.000 OA
ENDROOT
BRANCH   1  16
ATOM     12  C   UNL     1       6.085   3.981  13.842  0.00  0.00    +0.000 A 
ATOM     13  C   UNL     1       7.152   4.873  13.847  0.00  0.00    +0.000 A 
ATOM     14  C   UNL     1       7.547   5.472  15.044  0.00  0.00    +0.000 A 
ATOM     15  C   UNL     1       6.907   5.144  16.246  0.00  0.00    +0.000 A 
ATOM     16  C   UNL     1       5.845   4.227  16.269  0.00  0.00    +0.000 A 
ATOM     17  C   UNL     1       5.418   3.694  15.035  0.00  0.00    +0.000 A 
BRANCH  12  19
ATOM     18  N   UNL     1       4.524   3.463  12.085  0.00  0.00    +0.000 NA
ATOM     19  C   UNL     1       5.695   3.263  12.592  0.00  0.00    +0.000 C 
ATOM     20  N   UNL     1       6.572   2.412  11.983  0.00  0.00    +0.000 N 
ATOM     21  H   UNL     1       4.446   2.952  11.204  0.00  0.00    +0.000 HD
ATOM     22  H   UNL     1       6.168   1.728  11.357  0.00  0.00    +0.000 HD
ATOM     23  H   UNL     1       7.290   2.013  12.575  0.00  0.00    +0.000 HD
ENDBRANCH  12  19
ENDBRANCH   1  16
BRANCH   9  24
ATOM     24  C   UNL     1       3.726   6.830  18.776  0.00  0.00    +0.000 C 
BRANCH  24  25
ATOM     25  C   UNL     1       2.629   7.192  17.731  0.00  0.00    +0.000 C 
BRANCH  25  26
ATOM     26  C   UNL     1       1.667   8.371  17.990  0.00  0.00    +0.000 C 
BRANCH  26  27
ATOM     27  C   UNL     1       1.904   9.189  19.271  0.00  0.00    +0.000 C 
BRANCH  27  28
ATOM     28  C   UNL     1       1.210   8.589  20.489  0.00  0.00    +0.000 C 
BRANCH  28  29
ATOM     29  N   UNL     1      -0.183   8.970  20.747  0.00  0.00    +0.000 NA
ATOM     30  C   UNL     1      -0.460  10.410  20.556  0.00  0.00    +0.000 C 
ATOM     31  C   UNL     1       0.114  11.341  21.643  0.00  0.00    +0.000 C 
ATOM     32  O   UNL     1      -0.296  10.941  22.959  0.00  0.00    +0.000 OA
ATOM     33  C   UNL     1       0.090   9.586  23.208  0.00  0.00    +0.000 C 
ATOM     34  C   UNL     1      -0.543   8.644  22.154  0.00  0.00    +0.000 C 
ENDBRANCH  28  29
ENDBRANCH  27  28
ENDBRANCH  26  27
ENDBRANCH  25  26
ENDBRANCH  24  25
ENDBRANCH   9  24
TORSDOF 8
ENDMDL
MODEL 8
REMARK VINA RESULT:      -8.1      1.515      2.046
REMARK  Name = 
REMARK  8 active torsions:
REMARK  status: ('A' for Active; 'I' for Inactive)
REMARK    1  A    between atoms: C_2  and  C_4
REMARK    2  A    between atoms: C_8  and  C_9
REMARK    3  A    between atoms: N_17  and  C_18
REMARK    4  A    between atoms: C_18  and  C_19
REMARK    5  A    between atoms: C_19  and  C_20
REMARK    6  A    between atoms: C_20  and  C_21
REMARK    7  A    between atoms: C_21  and  C_22
REMARK    8  A    between atoms: C_22  and  N_23
REMARK                            x       y       z     vdW  Elec       q    Type
REMARK                         _______ _______ _______ _____ _____    ______ ____
ROOT
ATOM      1  C   UNL     1       5.473   4.062  16.821  0.00  0.00    +0.000 C 
ATOM      2  O   UNL     1       4.351   3.168  16.777  0.00  0.00    +0.000 OA
ATOM      3  C   UNL     1       3.323   3.464  17.630  0.00  0.00    +0.000 A 
ATOM      4  C   UNL     1       2.412   2.444  17.899  0.00  0.00    +0.000 A 
ATOM      5  C   UNL     1       1.360   2.661  18.792  0.00  0.00    +0.000 A 
ATOM      6  C   UNL     1       1.232   3.897  19.420  0.00  0.00    +0.000 A 
ATOM      7  C   UNL     1       2.097   4.943  19.090  0.00  0.00    +0.000 A 
ATOM      8  C   UNL     1       3.112   4.740  18.150  0.00  0.00    +0.000 A 
ATOM      9  N   UNL     1       3.989   5.776  17.802  0.00  0.00    +0.000 N 
ATOM     10  C   UNL     1       5.294   5.437  17.520  0.00  0.00    +0.000 C 
ATOM     11  O   UNL     1       6.221   6.221  17.755  0.00  0.00    +0.000 OA
ENDROOT
BRANCH   1  16
ATOM     12  C   UNL     1       5.944   3.696  13.018  0.00  0.00    +0.000 A 
ATOM     13  C   UNL     1       7.066   4.483  12.781  0.00  0.00    +0.000 A 
ATOM     14  C   UNL     1       7.639   5.206  13.828  0.00  0.00    +0.000 A 
ATOM     15  C   UNL     1       7.119   5.108  15.125  0.00  0.00    +0.000 A 
ATOM     16  C   UNL     1       6.003   4.300  15.394  0.00  0.00    +0.000 A 
ATOM     17  C   UNL     1       5.399   3.640  14.304  0.00  0.00    +0.000 A 
BRANCH  12  19
ATOM     18  N   UNL     1       4.248   3.200  11.386  0.00  0.00    +0.000 NA
ATOM     19  C   UNL     1       5.362   2.848  11.937  0.00  0.00    +0.000 C 
ATOM     20  N   UNL     1       6.006   1.717  11.525  0.00  0.00    +0.000 N 
ATOM     21  H   UNL     1       4.028   2.553  10.626  0.00  0.00    +0.000 HD
ATOM     22  H   UNL     1       5.439   1.030  11.046  0.00  0.00    +0.000 HD
ATOM     23  H   UNL     1       6.638   1.294  12.194  0.00  0.00    +0.000 HD
ENDBRANCH  12  19
ENDBRANCH   1  16
BRANCH   9  24
ATOM     24  C   UNL     1       3.530   7.078  17.320  0.00  0.00    +0.000 C 
BRANCH  24  25
ATOM     25  C   UNL     1       2.572   7.808  18.308  0.00  0.00    +0.000 C 
BRANCH  25  26
ATOM     26  C   UNL     1       1.619   8.909  17.797  0.00  0.00    +0.000 C 
BRANCH  26  27
ATOM     27  C   UNL     1       1.275  10.039  18.783  0.00  0.00    +0.000 C 
BRANCH  27  28
ATOM     28  C   UNL     1      -0.202  10.414  18.755  0.00  0.00    +0.000 C 
BRANCH  28  29
ATOM     29  N   UNL     1      -0.554  11.817  18.504  0.00  0.00    +0.000 NA
ATOM     30  C   UNL     1      -0.743  12.620  19.731  0.00  0.00    +0.000 C 
ATOM     31  C   UNL     1      -2.034  12.322  20.521  0.00  0.00    +0.000 C 
ATOM     32  O   UNL     1      -3.201  12.422  19.693  0.00  0.00    +0.000 OA
ATOM     33  C   UNL     1      -3.089  11.543  18.570  0.00  0.00    +0.000 C 
ATOM     34  C   UNL     1      -1.829  11.888  17.739  0.00  0.00    +0.000 C 
ENDBRANCH  28  29
ENDBRANCH  27  28
ENDBRANCH  26  27
ENDBRANCH  25  26
ENDBRANCH  24  25
ENDBRANCH   9  24
TORSDOF 8
ENDMDL
MODEL 9
REMARK VINA RESULT:      -8.1      1.423      1.888
REMARK  Name = 
REMARK  8 active torsions:
REMARK  status: ('A' for Active; 'I' for Inactive)
REMARK    1  A    between atoms: C_2  and  C_4
REMARK    2  A    between atoms: C_8  and  C_9
REMARK    3  A    between atoms: N_17  and  C_18
REMARK    4  A    between atoms: C_18  and  C_19
REMARK    5  A    between atoms: C_19  and  C_20
REMARK    6  A    between atoms: C_20  and  C_21
REMARK    7  A    between atoms: C_21  and  C_22
REMARK    8  A    between atoms: C_22  and  N_23
REMARK                            x       y       z     vdW  Elec       q    Type
REMARK                         _______ _______ _______ _____ _____    ______ ____
ROOT
ATOM      1  C   UNL     1       5.534   4.104  16.745  0.00  0.00    +0.000 C 
ATOM      2  O   UNL     1       4.438   3.176  16.738  0.00  0.00    +0.000 OA
ATOM      3  C   UNL     1       3.405   3.473  17.585  0.00  0.00    +0.000 A 
ATOM      4  C   UNL     1       2.524   2.437  17.893  0.00  0.00    +0.000 A 
ATOM      5  C   UNL     1       1.470   2.656  18.783  0.00  0.00    +0.000 A 
ATOM      6  C   UNL     1       1.308   3.909  19.367  0.00  0.00    +0.000 A 
ATOM      7  C   UNL     1       2.142   4.967  18.996  0.00  0.00    +0.000 A 
ATOM      8  C   UNL     1       3.159   4.760  18.060  0.00  0.00    +0.000 A 
ATOM      9  N   UNL     1       4.005   5.808  17.673  0.00  0.00    +0.000 N 
ATOM     10  C   UNL     1       5.318   5.497  17.397  0.00  0.00    +0.000 C 
ATOM     11  O   UNL     1       6.222   6.315  17.600  0.00  0.00    +0.000 OA
ENDROOT
BRANCH   1  16
ATOM     12  C   UNL     1       5.950   3.666  12.944  0.00  0.00    +0.000 A 
ATOM     13  C   UNL     1       7.087   4.422  12.681  0.00  0.00    +0.000 A 
ATOM     14  C   UNL     1       7.690   5.148  13.710  0.00  0.00    +0.000 A 
ATOM     15  C   UNL     1       7.184   5.082  15.014  0.00  0.00    +0.000 A 
ATOM     16  C   UNL     1       6.053   4.306  15.309  0.00  0.00    +0.000 A 
ATOM     17  C   UNL     1       5.420   3.643  14.237  0.00  0.00    +0.000 A 
BRANCH  12  19
ATOM     18  N   UNL     1       5.913   1.712  11.542  0.00  0.00    +0.000 NA
ATOM     19  C   UNL     1       5.335   2.816  11.883  0.00  0.00    +0.000 C 
ATOM     20  N   UNL     1       4.167   3.194  11.286  0.00  0.00    +0.000 N 
ATOM     21  H   UNL     1       5.331   1.223  10.859  0.00  0.00    +0.000 HD
ATOM     22  H   UNL     1       3.971   2.777  10.386  0.00  0.00    +0.000 HD
ATOM     23  H   UNL     1       3.957   4.184  11.304  0.00  0.00    +0.000 HD
ENDBRANCH  12  19
ENDBRANCH   1  16
BRANCH   9  24
ATOM     24  C   UNL     1       3.506   7.078  17.146  0.00  0.00    +0.000 C 
BRANCH  24  25
ATOM     25  C   UNL     1       2.760   7.943  18.206  0.00  0.00    +0.000 C 
BRANCH  25  26
ATOM     26  C   UNL     1       1.588   8.854  17.781  0.00  0.00    +0.000 C 
BRANCH  26  27
ATOM     27  C   UNL     1       1.650  10.320  18.241  0.00  0.00    +0.000 C 
BRANCH  27  28
ATOM     28  C   UNL     1       0.904  10.558  19.549  0.00  0.00    +0.000 C 
BRANCH  28  29
ATOM     29  N   UNL     1       1.011  11.882  20.174  0.00  0.00    +0.000 NA
ATOM     30  C   UNL     1       0.026  12.121  21.251  0.00  0.00    +0.000 C 
ATOM     31  C   UNL     1      -1.426  12.337  20.780  0.00  0.00    +0.000 C 
ATOM     32  O   UNL     1      -1.519  13.381  19.800  0.00  0.00    +0.000 OA
ATOM     33  C   UNL     1      -0.671  13.091  18.685  0.00  0.00    +0.000 C 
ATOM     34  C   UNL     1       0.799  12.942  19.151  0.00  0.00    +0.000 C 
ENDBRANCH  28  29
ENDBRANCH  27  28
ENDBRANCH  26  27
ENDBRANCH  25  26
ENDBRANCH  24  25
ENDBRANCH   9  24
TORSDOF 8
ENDMDL
