MODEL 1
REMARK VINA RESULT:      -7.2      0.000      0.000
REMARK  Name = 
REMARK  8 active torsions:
REMARK  status: ('A' for Active; 'I' for Inactive)
REMARK    1  A    between atoms: C_1  and  N_2
REMARK    2  A    between atoms: N_2  and  C_3
REMARK    3  A    between atoms: N_2  and  C_4
REMARK    4  A    between atoms: C_4  and  C_5
REMARK    5  A    between atoms: C_5  and  C_6
REMARK    6  A    between atoms: C_6  and  N_7
REMARK    7  A    between atoms: C_13  and  N_14
REMARK    8  A    between atoms: C_15  and  C_17
REMARK                            x       y       z     vdW  Elec       q    Type
REMARK                         _______ _______ _______ _____ _____    ______ ____
ROOT
ATOM      1  N   UNL     1       5.002   4.645  18.274  0.00  0.00    +0.000 N 
ATOM      2  C   UNL     1       6.111   4.829  17.348  0.00  0.00    +0.000 C 
ATOM      3  C   UNL     1       5.554   5.377  16.044  0.00  0.00    +0.000 C 
ATOM      4  C   UNL     1       4.880   6.743  16.275  0.00  0.00    +0.000 C 
ATOM      5  C   UNL     1       4.006   6.773  17.518  0.00  0.00    +0.000 A 
ATOM      6  C   UNL     1       3.090   7.830  17.727  0.00  0.00    +0.000 A 
ATOM      7  C   UNL     1       2.254   7.878  18.876  0.00  0.00    +0.000 A 
ATOM      8  C   UNL     1       2.418   6.848  19.815  0.00  0.00    +0.000 A 
ATOM      9  C   UNL     1       3.304   5.810  19.617  0.00  0.00    +0.000 A 
ATOM     10  C   UNL     1       4.098   5.736  18.476  0.00  0.00    +0.000 A 
ENDROOT
BRANCH   7  11
ATOM     11  N   UNL     1       1.297   8.959  18.996  0.00  0.00    +0.000 N 
ATOM     12  C   UNL     1       1.251  10.299  18.427  0.00  0.00    +0.000 C 
ATOM     13  N   UNL     1       2.110  10.802  17.606  0.00  0.00    +0.000 NA
ATOM     14  H   UNL     1       0.524   8.756  19.648  0.00  0.00    +0.000 HD
ATOM     15  H   UNL     1       2.946  10.428  17.192  0.00  0.00    +0.000 HD
BRANCH  12  16
ATOM     16  C   UNL     1       0.151  11.223  18.793  0.00  0.00    +0.000 A 
ATOM     17  C   UNL     1      -1.205  10.901  18.711  0.00  0.00    +0.000 A 
ATOM     18  C   UNL     1      -2.051  11.937  19.107  0.00  0.00    +0.000 A 
ATOM     19  C   UNL     1      -1.374  13.081  19.501  0.00  0.00    +0.000 A 
ATOM     20  S   UNL     1       0.282  12.804  19.359  0.00  0.00    +0.000 S 
ENDBRANCH  12  16
ENDBRANCH   7  11
BRANCH   1  21
ATOM     21  C   UNL     1       4.746   3.322  18.854  0.00  0.00    +0.000 C 
BRANCH  21  22
ATOM     22  C   UNL     1       3.683   2.524  18.091  0.00  0.00    +0.000 C 
BRANCH  22  23
ATOM     23  C   UNL     1       2.801   1.633  18.983  0.00  0.00    +0.000 C 
BRANCH  23  25
ATOM     24  C   UNL     1       1.445   2.767  20.684  0.00  0.00    +0.000 C 
ATOM     25  N   UNL     1       1.482   2.221  19.315  0.00  0.00    +0.000 NA
ATOM     26  C   UNL     1       1.156   3.268  18.332  0.00  0.00    +0.000 C 
ENDBRANCH  23  25
ENDBRANCH  22  23
ENDBRANCH  21  22
ENDBRANCH   1  21
TORSDOF 6
ENDMDL
MODEL 2
REMARK VINA RESULT:      -7.0      2.291      4.299
REMARK  Name = 
REMARK  8 active torsions:
REMARK  status: ('A' for Active; 'I' for Inactive)
REMARK    1  A    between atoms: C_1  and  N_2
REMARK    2  A    between atoms: N_2  and  C_3
REMARK    3  A    between atoms: N_2  and  C_4
REMARK    4  A    between atoms: C_4  and  C_5
REMARK    5  A    between atoms: C_5  and  C_6
REMARK    6  A    between atoms: C_6  and  N_7
REMARK    7  A    between atoms: C_13  and  N_14
REMARK    8  A    between atoms: C_15  and  C_17
REMARK                            x       y       z     vdW  Elec       q    Type
REMARK                         _______ _______ _______ _____ _____    ______ ____
ROOT
ATOM      1  N   UNL     1       3.732   3.953  18.977  0.00  0.00    +0.000 N 
ATOM      2  C   UNL     1       3.215   2.662  19.408  0.00  0.00    +0.000 C 
ATOM      3  C   UNL     1       2.947   2.733  20.903  0.00  0.00    +0.000 C 
ATOM      4  C   UNL     1       1.889   3.809  21.212  0.00  0.00    +0.000 C 
ATOM      5  C   UNL     1       2.113   5.101  20.443  0.00  0.00    +0.000 A 
ATOM      6  C   UNL     1       1.429   6.283  20.812  0.00  0.00    +0.000 A 
ATOM      7  C   UNL     1       1.626   7.507  20.115  0.00  0.00    +0.000 A 
ATOM      8  C   UNL     1       2.496   7.471  19.015  0.00  0.00    +0.000 A 
ATOM      9  C   UNL     1       3.172   6.324  18.653  0.00  0.00    +0.000 A 
ATOM     10  C   UNL     1       3.013   5.132  19.354  0.00  0.00    +0.000 A 
ENDROOT
BRANCH   7  11
ATOM     11  N   UNL     1       0.938   8.693  20.584  0.00  0.00    +0.000 N 
ATOM     12  C   UNL     1       1.033   9.461  21.819  0.00  0.00    +0.000 C 
ATOM     13  N   UNL     1       1.847   9.230  22.793  0.00  0.00    +0.000 NA
ATOM     14  H   UNL     1       0.207   9.029  19.939  0.00  0.00    +0.000 HD
ATOM     15  H   UNL     1       2.555   8.529  22.928  0.00  0.00    +0.000 HD
BRANCH  12  16
ATOM     16  C   UNL     1       0.133  10.617  22.045  0.00  0.00    +0.000 A 
ATOM     17  C   UNL     1      -0.893  10.639  22.992  0.00  0.00    +0.000 A 
ATOM     18  C   UNL     1      -1.607  11.837  23.016  0.00  0.00    +0.000 A 
ATOM     19  C   UNL     1      -1.154  12.766  22.092  0.00  0.00    +0.000 A 
ATOM     20  S   UNL     1       0.138  12.097  21.243  0.00  0.00    +0.000 S 
ENDBRANCH  12  16
ENDBRANCH   7  11
BRANCH   1  21
ATOM     21  C   UNL     1       5.037   4.032  18.311  0.00  0.00    +0.000 C 
BRANCH  21  22
ATOM     22  C   UNL     1       4.932   4.333  16.812  0.00  0.00    +0.000 C 
BRANCH  22  23
ATOM     23  C   UNL     1       6.057   3.713  15.963  0.00  0.00    +0.000 C 
BRANCH  23  25
ATOM     24  C   UNL     1       7.162   4.954  14.158  0.00  0.00    +0.000 C 
ATOM     25  N   UNL     1       7.138   4.660  15.603  0.00  0.00    +0.000 NA
ATOM     26  C   UNL     1       6.976   5.900  16.380  0.00  0.00    +0.000 C 
ENDBRANCH  23  25
ENDBRANCH  22  23
ENDBRANCH  21  22
ENDBRANCH   1  21
TORSDOF 6
ENDMDL
MODEL 3
REMARK VINA RESULT:      -7.0      2.232      4.279
REMARK  Name = 
REMARK  8 active torsions:
REMARK  status: ('A' for Active; 'I' for Inactive)
REMARK    1  A    between atoms: C_1  and  N_2
REMARK    2  A    between atoms: N_2  and  C_3
REMARK    3  A    between atoms: N_2  and  C_4
REMARK    4  A    between atoms: C_4  and  C_5
REMARK    5  A    between atoms: C_5  and  C_6
REMARK    6  A    between atoms: C_6  and  N_7
REMARK    7  A    between atoms: C_13  and  N_14
REMARK    8  A    between atoms: C_15  and  C_17
REMARK                            x       y       z     vdW  Elec       q    Type
REMARK                         _______ _______ _______ _____ _____    ______ ____
ROOT
ATOM      1  N   UNL     1       3.933   4.021  17.892  0.00  0.00    +0.000 N 
ATOM      2  C   UNL     1       3.624   2.719  18.467  0.00  0.00    +0.000 C 
ATOM      3  C   UNL     1       3.725   2.833  19.979  0.00  0.00    +0.000 C 
ATOM      4  C   UNL     1       2.705   3.858  20.514  0.00  0.00    +0.000 C 
ATOM      5  C   UNL     1       2.648   5.129  19.683  0.00  0.00    +0.000 A 
ATOM      6  C   UNL     1       1.998   6.283  20.180  0.00  0.00    +0.000 A 
ATOM      7  C   UNL     1       1.937   7.488  19.428  0.00  0.00    +0.000 A 
ATOM      8  C   UNL     1       2.513   7.459  18.148  0.00  0.00    +0.000 A 
ATOM      9  C   UNL     1       3.155   6.340  17.658  0.00  0.00    +0.000 A 
ATOM     10  C   UNL     1       3.251   5.170  18.405  0.00  0.00    +0.000 A 
ENDROOT
BRANCH   7  11
ATOM     11  N   UNL     1       1.307   8.649  20.023  0.00  0.00    +0.000 N 
ATOM     12  C   UNL     1       1.269   9.155  21.388  0.00  0.00    +0.000 C 
ATOM     13  N   UNL     1       1.876   8.639  22.403  0.00  0.00    +0.000 NA
ATOM     14  H   UNL     1       0.737   9.195  19.359  0.00  0.00    +0.000 HD
ATOM     15  H   UNL     1       2.473   7.835  22.495  0.00  0.00    +0.000 HD
BRANCH  12  16
ATOM     16  C   UNL     1       0.470  10.361  21.711  0.00  0.00    +0.000 A 
ATOM     17  C   UNL     1      -0.474  10.425  22.738  0.00  0.00    +0.000 A 
ATOM     18  C   UNL     1      -1.101  11.666  22.845  0.00  0.00    +0.000 A 
ATOM     19  C   UNL     1      -0.662  12.588  21.907  0.00  0.00    +0.000 A 
ATOM     20  S   UNL     1       0.511  11.859  20.942  0.00  0.00    +0.000 S 
ENDBRANCH  12  16
ENDBRANCH   7  11
BRANCH   1  21
ATOM     21  C   UNL     1       5.029   4.150  16.924  0.00  0.00    +0.000 C 
BRANCH  21  22
ATOM     22  C   UNL     1       6.323   4.685  17.545  0.00  0.00    +0.000 C 
BRANCH  22  23
ATOM     23  C   UNL     1       6.888   5.937  16.850  0.00  0.00    +0.000 C 
BRANCH  23  25
ATOM     24  C   UNL     1       7.697   8.123  17.614  0.00  0.00    +0.000 C 
ATOM     25  N   UNL     1       7.907   6.664  17.642  0.00  0.00    +0.000 NA
ATOM     26  C   UNL     1       7.889   6.167  19.029  0.00  0.00    +0.000 C 
ENDBRANCH  23  25
ENDBRANCH  22  23
ENDBRANCH  21  22
ENDBRANCH   1  21
TORSDOF 6
ENDMDL
MODEL 4
REMARK VINA RESULT:      -7.0      0.903      1.280
REMARK  Name = 
REMARK  8 active torsions:
REMARK  status: ('A' for Active; 'I' for Inactive)
REMARK    1  A    between atoms: C_1  and  N_2
REMARK    2  A    between atoms: N_2  and  C_3
REMARK    3  A    between atoms: N_2  and  C_4
REMARK    4  A    between atoms: C_4  and  C_5
REMARK    5  A    between atoms: C_5  and  C_6
REMARK    6  A    between atoms: C_6  and  N_7
REMARK    7  A    between atoms: C_13  and  N_14
REMARK    8  A    between atoms: C_15  and  C_17
REMARK                            x       y       z     vdW  Elec       q    Type
REMARK                         _______ _______ _______ _____ _____    ______ ____
ROOT
ATOM      1  N   UNL     1       5.153   4.851  18.324  0.00  0.00    +0.000 N 
ATOM      2  C   UNL     1       6.264   5.065  17.407  0.00  0.00    +0.000 C 
ATOM      3  C   UNL     1       5.696   5.515  16.071  0.00  0.00    +0.000 C 
ATOM      4  C   UNL     1       4.931   6.843  16.228  0.00  0.00    +0.000 C 
ATOM      5  C   UNL     1       4.035   6.872  17.455  0.00  0.00    +0.000 A 
ATOM      6  C   UNL     1       3.049   7.875  17.600  0.00  0.00    +0.000 A 
ATOM      7  C   UNL     1       2.191   7.921  18.734  0.00  0.00    +0.000 A 
ATOM      8  C   UNL     1       2.405   6.948  19.723  0.00  0.00    +0.000 A 
ATOM      9  C   UNL     1       3.360   5.962  19.586  0.00  0.00    +0.000 A 
ATOM     10  C   UNL     1       4.177   5.889  18.461  0.00  0.00    +0.000 A 
ENDROOT
BRANCH   7  11
ATOM     11  N   UNL     1       1.163   8.940  18.789  0.00  0.00    +0.000 N 
ATOM     12  C   UNL     1       0.619   9.729  19.886  0.00  0.00    +0.000 C 
ATOM     13  N   UNL     1       1.013   9.690  21.114  0.00  0.00    +0.000 NA
ATOM     14  H   UNL     1       0.696   9.104  17.885  0.00  0.00    +0.000 HD
ATOM     15  H   UNL     1       1.730   9.156  21.576  0.00  0.00    +0.000 HD
BRANCH  12  16
ATOM     16  C   UNL     1      -0.499  10.670  19.640  0.00  0.00    +0.000 A 
ATOM     17  C   UNL     1      -1.262  10.694  18.470  0.00  0.00    +0.000 A 
ATOM     18  C   UNL     1      -2.256  11.673  18.471  0.00  0.00    +0.000 A 
ATOM     19  C   UNL     1      -2.286  12.427  19.634  0.00  0.00    +0.000 A 
ATOM     20  S   UNL     1      -1.074  11.875  20.666  0.00  0.00    +0.000 S 
ENDBRANCH  12  16
ENDBRANCH   7  11
BRANCH   1  21
ATOM     21  C   UNL     1       4.974   3.542  18.962  0.00  0.00    +0.000 C 
BRANCH  21  22
ATOM     22  C   UNL     1       3.817   2.734  18.365  0.00  0.00    +0.000 C 
BRANCH  22  23
ATOM     23  C   UNL     1       2.881   2.104  19.412  0.00  0.00    +0.000 C 
BRANCH  23  25
ATOM     24  C   UNL     1       0.518   2.430  18.837  0.00  0.00    +0.000 C 
ATOM     25  N   UNL     1       1.647   2.882  19.671  0.00  0.00    +0.000 NA
ATOM     26  C   UNL     1       1.304   2.787  21.100  0.00  0.00    +0.000 C 
ENDBRANCH  23  25
ENDBRANCH  22  23
ENDBRANCH  21  22
ENDBRANCH   1  21
TORSDOF 6
ENDMDL
MODEL 5
REMARK VINA RESULT:      -7.0      3.326      8.696
REMARK  Name = 
REMARK  8 active torsions:
REMARK  status: ('A' for Active; 'I' for Inactive)
REMARK    1  A    between atoms: C_1  and  N_2
REMARK    2  A    between atoms: N_2  and  C_3
REMARK    3  A    between atoms: N_2  and  C_4
REMARK    4  A    between atoms: C_4  and  C_5
REMARK    5  A    between atoms: C_5  and  C_6
REMARK    6  A    between atoms: C_6  and  N_7
REMARK    7  A    between atoms: C_13  and  N_14
REMARK    8  A    between atoms: C_15  and  C_17
REMARK                            x       y       z     vdW  Elec       q    Type
REMARK                         _______ _______ _______ _____ _____    ______ ____
ROOT
ATOM      1  N   UNL     1      -0.650  12.104  20.804  0.00  0.00    +0.000 N 
ATOM      2  C   UNL     1      -0.974  12.682  22.102  0.00  0.00    +0.000 C 
ATOM      3  C   UNL     1      -1.689  11.624  22.926  0.00  0.00    +0.000 C 
ATOM      4  C   UNL     1      -0.776  10.403  23.150  0.00  0.00    +0.000 C 
ATOM      5  C   UNL     1      -0.032   9.979  21.895  0.00  0.00    +0.000 A 
ATOM      6  C   UNL     1       0.613   8.722  21.833  0.00  0.00    +0.000 A 
ATOM      7  C   UNL     1       1.309   8.295  20.669  0.00  0.00    +0.000 A 
ATOM      8  C   UNL     1       1.362   9.205  19.601  0.00  0.00    +0.000 A 
ATOM      9  C   UNL     1       0.729  10.430  19.650  0.00  0.00    +0.000 A 
ATOM     10  C   UNL     1       0.015  10.837  20.773  0.00  0.00    +0.000 A 
ENDROOT
BRANCH   7  11
ATOM     11  N   UNL     1       1.896   6.971  20.654  0.00  0.00    +0.000 N 
ATOM     12  C   UNL     1       2.404   6.132  19.576  0.00  0.00    +0.000 C 
ATOM     13  N   UNL     1       2.467   6.459  18.329  0.00  0.00    +0.000 NA
ATOM     14  H   UNL     1       1.914   6.517  21.580  0.00  0.00    +0.000 HD
ATOM     15  H   UNL     1       2.207   7.297  17.838  0.00  0.00    +0.000 HD
BRANCH  12  16
ATOM     16  C   UNL     1       2.896   4.765  19.869  0.00  0.00    +0.000 A 
ATOM     17  C   UNL     1       2.233   3.851  20.690  0.00  0.00    +0.000 A 
ATOM     18  C   UNL     1       2.894   2.630  20.816  0.00  0.00    +0.000 A 
ATOM     19  C   UNL     1       4.080   2.569  20.100  0.00  0.00    +0.000 A 
ATOM     20  S   UNL     1       4.307   4.038  19.307  0.00  0.00    +0.000 S 
ENDBRANCH  12  16
ENDBRANCH   7  11
BRANCH   1  21
ATOM     21  C   UNL     1      -1.139  12.744  19.577  0.00  0.00    +0.000 C 
BRANCH  21  22
ATOM     22  C   UNL     1      -2.334  12.016  18.953  0.00  0.00    +0.000 C 
BRANCH  22  23
ATOM     23  C   UNL     1      -2.108  11.561  17.500  0.00  0.00    +0.000 C 
BRANCH  23  25
ATOM     24  C   UNL     1      -4.541  11.591  17.183  0.00  0.00    +0.000 C 
ATOM     25  N   UNL     1      -3.278  10.892  16.884  0.00  0.00    +0.000 NA
ATOM     26  C   UNL     1      -3.072  10.797  15.428  0.00  0.00    +0.000 C 
ENDBRANCH  23  25
ENDBRANCH  22  23
ENDBRANCH  21  22
ENDBRANCH   1  21
TORSDOF 6
ENDMDL
MODEL 6
REMARK VINA RESULT:      -6.9      2.026      3.937
REMARK  Name = 
REMARK  8 active torsions:
REMARK  status: ('A' for Active; 'I' for Inactive)
REMARK    1  A    between atoms: C_1  and  N_2
REMARK    2  A    between atoms: N_2  and  C_3
REMARK    3  A    between atoms: N_2  and  C_4
REMARK    4  A    between atoms: C_4  and  C_5
REMARK    5  A    between atoms: C_5  and  C_6
REMARK    6  A    between atoms: C_6  and  N_7
REMARK    7  A    between atoms: C_13  and  N_14
REMARK    8  A    between atoms: C_15  and  C_17
REMARK                            x       y       z     vdW  Elec       q    Type
REMARK                         _______ _______ _______ _____ _____    ______ ____
ROOT
ATOM      1  N   UNL     1       3.400   4.814  17.982  0.00  0.00    +0.000 N 
ATOM      2  C   UNL     1       3.098   3.486  18.498  0.00  0.00    +0.000 C 
ATOM      3  C   UNL     1       3.320   3.500  20.002  0.00  0.00    +0.000 C 
ATOM      4  C   UNL     1       2.376   4.512  20.678  0.00  0.00    +0.000 C 
ATOM      5  C   UNL     1       2.291   5.835  19.935  0.00  0.00    +0.000 A 
ATOM      6  C   UNL     1       1.717   6.970  20.554  0.00  0.00    +0.000 A 
ATOM      7  C   UNL     1       1.632   8.222  19.885  0.00  0.00    +0.000 A 
ATOM      8  C   UNL     1       2.105   8.262  18.564  0.00  0.00    +0.000 A 
ATOM      9  C   UNL     1       2.674   7.162  17.956  0.00  0.00    +0.000 A 
ATOM     10  C   UNL     1       2.794   5.943  18.618  0.00  0.00    +0.000 A 
ENDROOT
BRANCH   7  11
ATOM     11  N   UNL     1       1.085   9.358  20.600  0.00  0.00    +0.000 N 
ATOM     12  C   UNL     1      -0.057  10.224  20.342  0.00  0.00    +0.000 C 
ATOM     13  N   UNL     1      -0.890  10.106  19.364  0.00  0.00    +0.000 NA
ATOM     14  H   UNL     1       1.641   9.634  21.423  0.00  0.00    +0.000 HD
ATOM     15  H   UNL     1      -0.954   9.446  18.608  0.00  0.00    +0.000 HD
BRANCH  12  16
ATOM     16  C   UNL     1      -0.335  11.371  21.238  0.00  0.00    +0.000 A 
ATOM     17  C   UNL     1      -1.100  11.289  22.404  0.00  0.00    +0.000 A 
ATOM     18  C   UNL     1      -1.224  12.504  23.078  0.00  0.00    +0.000 A 
ATOM     19  C   UNL     1      -0.563  13.551  22.454  0.00  0.00    +0.000 A 
ATOM     20  S   UNL     1       0.180  12.965  21.060  0.00  0.00    +0.000 S 
ENDBRANCH  12  16
ENDBRANCH   7  11
BRANCH   1  21
ATOM     21  C   UNL     1       4.419   4.978  16.939  0.00  0.00    +0.000 C 
BRANCH  21  22
ATOM     22  C   UNL     1       5.672   4.130  17.182  0.00  0.00    +0.000 C 
BRANCH  22  23
ATOM     23  C   UNL     1       6.985   4.933  17.202  0.00  0.00    +0.000 C 
BRANCH  23  25
ATOM     24  C   UNL     1       7.871   5.740  19.343  0.00  0.00    +0.000 C 
ATOM     25  N   UNL     1       7.005   6.039  18.188  0.00  0.00    +0.000 NA
ATOM     26  C   UNL     1       7.444   7.276  17.520  0.00  0.00    +0.000 C 
ENDBRANCH  23  25
ENDBRANCH  22  23
ENDBRANCH  21  22
ENDBRANCH   1  21
TORSDOF 6
ENDMDL
MODEL 7
REMARK VINA RESULT:      -6.9      3.183      8.384
REMARK  Name = 
REMARK  8 active torsions:
REMARK  status: ('A' for Active; 'I' for Inactive)
REMARK    1  A    between atoms: C_1  and  N_2
REMARK    2  A    between atoms: N_2  and  C_3
REMARK    3  A    between atoms: N_2  and  C_4
REMARK    4  A    between atoms: C_4  and  C_5
REMARK    5  A    between atoms: C_5  and  C_6
REMARK    6  A    between atoms: C_6  and  N_7
REMARK    7  A    between atoms: C_13  and  N_14
REMARK    8  A    between atoms: C_15  and  C_17
REMARK                            x       y       z     vdW  Elec       q    Type
REMARK                         _______ _______ _______ _____ _____    ______ ____
ROOT
ATOM      1  N   UNL     1       0.353  11.242  19.715  0.00  0.00    +0.000 N 
ATOM      2  C   UNL     1       0.235  11.839  21.038  0.00  0.00    +0.000 C 
ATOM      3  C   UNL     1      -0.398  10.815  21.966  0.00  0.00    +0.000 C 
ATOM      4  C   UNL     1       0.490   9.561  22.073  0.00  0.00    +0.000 C 
ATOM      5  C   UNL     1       1.034   9.100  20.731  0.00  0.00    +0.000 A 
ATOM      6  C   UNL     1       1.615   7.818  20.595  0.00  0.00    +0.000 A 
ATOM      7  C   UNL     1       2.124   7.358  19.349  0.00  0.00    +0.000 A 
ATOM      8  C   UNL     1       2.063   8.259  18.274  0.00  0.00    +0.000 A 
ATOM      9  C   UNL     1       1.491   9.508  18.398  0.00  0.00    +0.000 A 
ATOM     10  C   UNL     1       0.957   9.950  19.604  0.00  0.00    +0.000 A 
ENDROOT
BRANCH   7  11
ATOM     11  N   UNL     1       2.652   6.011  19.267  0.00  0.00    +0.000 N 
ATOM     12  C   UNL     1       2.252   4.843  18.493  0.00  0.00    +0.000 C 
ATOM     13  N   UNL     1       1.292   4.800  17.632  0.00  0.00    +0.000 NA
ATOM     14  H   UNL     1       3.432   5.833  19.918  0.00  0.00    +0.000 HD
ATOM     15  H   UNL     1       0.644   5.497  17.308  0.00  0.00    +0.000 HD
BRANCH  12  16
ATOM     16  C   UNL     1       2.960   3.555  18.674  0.00  0.00    +0.000 A 
ATOM     17  C   UNL     1       2.936   2.509  17.749  0.00  0.00    +0.000 A 
ATOM     18  C   UNL     1       3.678   1.395  18.143  0.00  0.00    +0.000 A 
ATOM     19  C   UNL     1       4.289   1.550  19.378  0.00  0.00    +0.000 A 
ATOM     20  S   UNL     1       3.909   3.077  19.981  0.00  0.00    +0.000 S 
ENDBRANCH  12  16
ENDBRANCH   7  11
BRANCH   1  21
ATOM     21  C   UNL     1      -0.277  11.895  18.561  0.00  0.00    +0.000 C 
BRANCH  21  22
ATOM     22  C   UNL     1      -1.763  11.553  18.412  0.00  0.00    +0.000 C 
BRANCH  22  23
ATOM     23  C   UNL     1      -2.066  10.515  17.316  0.00  0.00    +0.000 C 
BRANCH  23  25
ATOM     24  C   UNL     1      -2.954  10.097  15.067  0.00  0.00    +0.000 C 
ATOM     25  N   UNL     1      -2.908  11.028  16.210  0.00  0.00    +0.000 NA
ATOM     26  C   UNL     1      -4.266  11.293  16.715  0.00  0.00    +0.000 C 
ENDBRANCH  23  25
ENDBRANCH  22  23
ENDBRANCH  21  22
ENDBRANCH   1  21
TORSDOF 6
ENDMDL
MODEL 8
REMARK VINA RESULT:      -6.8      2.420      4.336
REMARK  Name = 
REMARK  8 active torsions:
REMARK  status: ('A' for Active; 'I' for Inactive)
REMARK    1  A    between atoms: C_1  and  N_2
REMARK    2  A    between atoms: N_2  and  C_3
REMARK    3  A    between atoms: N_2  and  C_4
REMARK    4  A    between atoms: C_4  and  C_5
REMARK    5  A    between atoms: C_5  and  C_6
REMARK    6  A    between atoms: C_6  and  N_7
REMARK    7  A    between atoms: C_13  and  N_14
REMARK    8  A    between atoms: C_15  and  C_17
REMARK                            x       y       z     vdW  Elec       q    Type
REMARK                         _______ _______ _______ _____ _____    ______ ____
ROOT
ATOM      1  N   UNL     1       3.376   5.999  17.930  0.00  0.00    +0.000 N 
ATOM      2  C   UNL     1       3.224   4.634  18.415  0.00  0.00    +0.000 C 
ATOM      3  C   UNL     1       3.382   4.648  19.927  0.00  0.00    +0.000 C 
ATOM      4  C   UNL     1       2.291   5.521  20.577  0.00  0.00    +0.000 C 
ATOM      5  C   UNL     1       2.069   6.836  19.848  0.00  0.00    +0.000 A 
ATOM      6  C   UNL     1       1.331   7.878  20.457  0.00  0.00    +0.000 A 
ATOM      7  C   UNL     1       1.116   9.121  19.802  0.00  0.00    +0.000 A 
ATOM      8  C   UNL     1       1.632   9.245  18.503  0.00  0.00    +0.000 A 
ATOM      9  C   UNL     1       2.360   8.237  17.905  0.00  0.00    +0.000 A 
ATOM     10  C   UNL     1       2.607   7.031  18.555  0.00  0.00    +0.000 A 
ENDROOT
BRANCH   7  11
ATOM     11  N   UNL     1       0.401  10.166  20.508  0.00  0.00    +0.000 N 
ATOM     12  C   UNL     1       0.234  10.457  21.925  0.00  0.00    +0.000 C 
ATOM     13  N   UNL     1       0.772   9.805  22.900  0.00  0.00    +0.000 NA
ATOM     14  H   UNL     1      -0.130  10.795  19.887  0.00  0.00    +0.000 HD
ATOM     15  H   UNL     1       1.385   9.008  22.922  0.00  0.00    +0.000 HD
BRANCH  12  16
ATOM     16  C   UNL     1      -0.629  11.583  22.355  0.00  0.00    +0.000 A 
ATOM     17  C   UNL     1      -1.783  11.437  23.127  0.00  0.00    +0.000 A 
ATOM     18  C   UNL     1      -2.430  12.642  23.401  0.00  0.00    +0.000 A 
ATOM     19  C   UNL     1      -1.795  13.745  22.849  0.00  0.00    +0.000 A 
ATOM     20  S   UNL     1      -0.426  13.221  22.020  0.00  0.00    +0.000 S 
ENDBRANCH  12  16
ENDBRANCH   7  11
BRANCH   1  21
ATOM     21  C   UNL     1       4.407   6.310  16.934  0.00  0.00    +0.000 C 
BRANCH  21  22
ATOM     22  C   UNL     1       5.367   5.143  16.675  0.00  0.00    +0.000 C 
BRANCH  22  23
ATOM     23  C   UNL     1       6.845   5.465  16.963  0.00  0.00    +0.000 C 
BRANCH  23  25
ATOM     24  C   UNL     1       7.847   5.772  19.181  0.00  0.00    +0.000 C 
ATOM     25  N   UNL     1       7.055   6.389  18.102  0.00  0.00    +0.000 NA
ATOM     26  C   UNL     1       7.710   7.616  17.617  0.00  0.00    +0.000 C 
ENDBRANCH  23  25
ENDBRANCH  22  23
ENDBRANCH  21  22
ENDBRANCH   1  21
TORSDOF 6
ENDMDL
MODEL 9
REMARK VINA RESULT:      -6.8      1.646      3.809
REMARK  Name = 
REMARK  8 active torsions:
REMARK  status: ('A' for Active; 'I' for Inactive)
REMARK    1  A    between atoms: C_1  and  N_2
REMARK    2  A    between atoms: N_2  and  C_3
REMARK    3  A    between atoms: N_2  and  C_4
REMARK    4  A    between atoms: C_4  and  C_5
REMARK    5  A    between atoms: C_5  and  C_6
REMARK    6  A    between atoms: C_6  and  N_7
REMARK    7  A    between atoms: C_13  and  N_14
REMARK    8  A    between atoms: C_15  and  C_17
REMARK                            x       y       z     vdW  Elec       q    Type
REMARK                         _______ _______ _______ _____ _____    ______ ____
ROOT
ATOM      1  N   UNL     1       3.112   3.661  18.596  0.00  0.00    +0.000 N 
ATOM      2  C   UNL     1       2.601   2.505  19.321  0.00  0.00    +0.000 C 
ATOM      3  C   UNL     1       2.776   2.763  20.808  0.00  0.00    +0.000 C 
ATOM      4  C   UNL     1       1.972   4.005  21.240  0.00  0.00    +0.000 C 
ATOM      5  C   UNL     1       2.108   5.167  20.271  0.00  0.00    +0.000 A 
ATOM      6  C   UNL     1       1.689   6.466  20.646  0.00  0.00    +0.000 A 
ATOM      7  C   UNL     1       1.812   7.574  19.762  0.00  0.00    +0.000 A 
ATOM      8  C   UNL     1       2.327   7.304  18.485  0.00  0.00    +0.000 A 
ATOM      9  C   UNL     1       2.744   6.042  18.114  0.00  0.00    +0.000 A 
ATOM     10  C   UNL     1       2.661   4.961  18.987  0.00  0.00    +0.000 A 
ENDROOT
BRANCH   7  11
ATOM     11  N   UNL     1       1.419   8.886  20.233  0.00  0.00    +0.000 N 
ATOM     12  C   UNL     1       0.899  10.061  19.546  0.00  0.00    +0.000 C 
ATOM     13  N   UNL     1       0.632  10.145  18.286  0.00  0.00    +0.000 NA
ATOM     14  H   UNL     1       1.584   9.031  21.240  0.00  0.00    +0.000 HD
ATOM     15  H   UNL     1       0.707   9.480  17.535  0.00  0.00    +0.000 HD
BRANCH  12  16
ATOM     16  C   UNL     1       0.644  11.310  20.302  0.00  0.00    +0.000 A 
ATOM     17  C   UNL     1      -0.258  11.415  21.363  0.00  0.00    +0.000 A 
ATOM     18  C   UNL     1      -0.328  12.695  21.914  0.00  0.00    +0.000 A 
ATOM     19  C   UNL     1       0.514  13.607  21.296  0.00  0.00    +0.000 A 
ATOM     20  S   UNL     1       1.348  12.821  20.061  0.00  0.00    +0.000 S 
ENDBRANCH  12  16
ENDBRANCH   7  11
BRANCH   1  21
ATOM     21  C   UNL     1       4.177   3.486  17.601  0.00  0.00    +0.000 C 
BRANCH  21  22
ATOM     22  C   UNL     1       5.503   4.129  18.018  0.00  0.00    +0.000 C 
BRANCH  22  23
ATOM     23  C   UNL     1       6.446   4.452  16.845  0.00  0.00    +0.000 C 
BRANCH  23  25
ATOM     24  C   UNL     1       5.347   6.222  15.550  0.00  0.00    +0.000 C 
ATOM     25  N   UNL     1       5.749   4.804  15.585  0.00  0.00    +0.000 NA
ATOM     26  C   UNL     1       6.623   4.486  14.442  0.00  0.00    +0.000 C 
ENDBRANCH  23  25
ENDBRANCH  22  23
ENDBRANCH  21  22
ENDBRANCH   1  21
TORSDOF 6
ENDMDL
