MODEL 1
REMARK VINA RESULT:      -9.2      0.000      0.000
REMARK  Name = 
REMARK  5 active torsions:
REMARK  status: ('A' for Active; 'I' for Inactive)
REMARK    1  A    between atoms: C_2  and  O_3
REMARK    2  A    between atoms: C_2  and  C_4
REMARK    3  A    between atoms: C_4  and  C_5
REMARK    4  A    between atoms: C_9  and  N_10
REMARK    5  A    between atoms: N_10  and  C_11
REMARK                            x       y       z     vdW  Elec       q    Type
REMARK                         _______ _______ _______ _____ _____    ______ ____
ROOT
ATOM      1  C   UNL     1       3.329   5.527  18.598  0.00  0.00    +0.000 A 
ATOM      2  C   UNL     1       4.637   5.640  18.139  0.00  0.00    +0.000 A 
ATOM      3  C   UNL     1       5.150   6.829  17.631  0.00  0.00    +0.000 A 
ATOM      4  C   UNL     1       6.465   6.891  17.166  0.00  0.00    +0.000 A 
ATOM      5  C   UNL     1       7.270   5.746  17.261  0.00  0.00    +0.000 A 
ATOM      6  C   UNL     1       6.804   4.551  17.842  0.00  0.00    +0.000 A 
ATOM      7  C   UNL     1       5.466   4.512  18.305  0.00  0.00    +0.000 A 
ATOM      8  N   UNL     1       4.995   3.524  19.137  0.00  0.00    +0.000 NA
ATOM      9  C   UNL     1       3.660   3.532  19.427  0.00  0.00    +0.000 A 
ATOM     10  C   UNL     1       3.155   3.510  20.763  0.00  0.00    +0.000 A 
ATOM     11  C   UNL     1       1.775   3.760  21.018  0.00  0.00    +0.000 A 
ATOM     12  C   UNL     1       0.912   3.769  19.939  0.00  0.00    +0.000 A 
ATOM     13  C   UNL     1       1.472   3.865  18.698  0.00  0.00    +0.000 A 
ATOM     14  C   UNL     1       2.829   4.160  18.504  0.00  0.00    +0.000 A 
ENDROOT
BRANCH   1  15
ATOM     15  N   UNL     1       2.986   6.340  19.778  0.00  0.00    +0.000 N 
ATOM     16  H   UNL     1       3.668   6.311  20.548  0.00  0.00    +0.000 HD
BRANCH  15  21
ATOM     17  C   UNL     1       0.293   8.773  21.042  0.00  0.00    +0.000 A 
ATOM     18  C   UNL     1       0.236   9.732  20.028  0.00  0.00    +0.000 A 
ATOM     19  C   UNL     1       1.073   9.613  18.936  0.00  0.00    +0.000 A 
ATOM     20  C   UNL     1       1.972   8.540  18.828  0.00  0.00    +0.000 A 
ATOM     21  C   UNL     1       2.068   7.510  19.820  0.00  0.00    +0.000 A 
ATOM     22  C   UNL     1       1.203   7.683  20.941  0.00  0.00    +0.000 A 
BRANCH  17  23
ATOM     23  C   UNL     1      -0.667   8.896  22.204  0.00  0.00    +0.000 C 
BRANCH  23  25
ATOM     24  O   UNL     1       0.784   9.542  23.954  0.00  0.00    +0.000 OA
ATOM     25  C   UNL     1      -0.086   9.881  23.169  0.00  0.00    +0.000 C 
BRANCH  25  26
ATOM     26  O   UNL     1      -0.572  11.142  23.185  0.00  0.00    +0.000 OA
ATOM     27  H   UNL     1      -0.181  11.847  22.652  0.00  0.00    +0.000 HD
ENDBRANCH  25  26
ENDBRANCH  23  25
ENDBRANCH  17  23
ENDBRANCH  15  21
ENDBRANCH   1  15
TORSDOF 5
ENDMDL
MODEL 2
REMARK VINA RESULT:      -8.8      0.871      1.053
REMARK  Name = 
REMARK  5 active torsions:
REMARK  status: ('A' for Active; 'I' for Inactive)
REMARK    1  A    between atoms: C_2  and  O_3
REMARK    2  A    between atoms: C_2  and  C_4
REMARK    3  A    between atoms: C_4  and  C_5
REMARK    4  A    between atoms: C_9  and  N_10
REMARK    5  A    between atoms: N_10  and  C_11
REMARK                            x       y       z     vdW  Elec       q    Type
REMARK                         _______ _______ _______ _____ _____    ______ ____
ROOT
ATOM      1  C   UNL     1       2.920   5.202  18.085  0.00  0.00    +0.000 A 
ATOM      2  C   UNL     1       4.067   5.203  17.299  0.00  0.00    +0.000 A 
ATOM      3  C   UNL     1       4.491   6.326  16.595  0.00  0.00    +0.000 A 
ATOM      4  C   UNL     1       5.641   6.274  15.806  0.00  0.00    +0.000 A 
ATOM      5  C   UNL     1       6.384   5.084  15.770  0.00  0.00    +0.000 A 
ATOM      6  C   UNL     1       6.024   3.956  16.532  0.00  0.00    +0.000 A 
ATOM      7  C   UNL     1       4.853   4.032  17.324  0.00  0.00    +0.000 A 
ATOM      8  N   UNL     1       4.564   3.124  18.316  0.00  0.00    +0.000 NA
ATOM      9  C   UNL     1       3.352   3.238  18.937  0.00  0.00    +0.000 A 
ATOM     10  C   UNL     1       3.211   3.321  20.356  0.00  0.00    +0.000 A 
ATOM     11  C   UNL     1       1.960   3.676  20.938  0.00  0.00    +0.000 A 
ATOM     12  C   UNL     1       0.848   3.686  20.118  0.00  0.00    +0.000 A 
ATOM     13  C   UNL     1       1.071   3.677  18.771  0.00  0.00    +0.000 A 
ATOM     14  C   UNL     1       2.343   3.870  18.217  0.00  0.00    +0.000 A 
ENDROOT
BRANCH   1  15
ATOM     15  N   UNL     1       2.938   6.100  19.254  0.00  0.00    +0.000 N 
ATOM     16  H   UNL     1       3.793   6.066  19.823  0.00  0.00    +0.000 HD
BRANCH  15  21
ATOM     17  C   UNL     1       0.510   8.605  20.866  0.00  0.00    +0.000 A 
ATOM     18  C   UNL     1       0.493   9.658  19.950  0.00  0.00    +0.000 A 
ATOM     19  C   UNL     1       1.272   9.580  18.813  0.00  0.00    +0.000 A 
ATOM     20  C   UNL     1       2.073   8.454  18.562  0.00  0.00    +0.000 A 
ATOM     21  C   UNL     1       2.123   7.329  19.448  0.00  0.00    +0.000 A 
ATOM     22  C   UNL     1       1.321   7.460  20.620  0.00  0.00    +0.000 A 
BRANCH  17  23
ATOM     23  C   UNL     1      -0.389   8.690  22.080  0.00  0.00    +0.000 C 
BRANCH  23  25
ATOM     24  O   UNL     1      -0.421  10.620  23.444  0.00  0.00    +0.000 OA
ATOM     25  C   UNL     1       0.225   9.671  23.029  0.00  0.00    +0.000 C 
BRANCH  25  26
ATOM     26  O   UNL     1       1.518   9.512  23.385  0.00  0.00    +0.000 OA
ATOM     27  H   UNL     1       1.771   9.093  24.219  0.00  0.00    +0.000 HD
ENDBRANCH  25  26
ENDBRANCH  23  25
ENDBRANCH  17  23
ENDBRANCH  15  21
ENDBRANCH   1  15
TORSDOF 5
ENDMDL
MODEL 3
REMARK VINA RESULT:      -8.6      5.967      8.746
REMARK  Name = 
REMARK  5 active torsions:
REMARK  status: ('A' for Active; 'I' for Inactive)
REMARK    1  A    between atoms: C_2  and  O_3
REMARK    2  A    between atoms: C_2  and  C_4
REMARK    3  A    between atoms: C_4  and  C_5
REMARK    4  A    between atoms: C_9  and  N_10
REMARK    5  A    between atoms: N_10  and  C_11
REMARK                            x       y       z     vdW  Elec       q    Type
REMARK                         _______ _______ _______ _____ _____    ______ ____
ROOT
ATOM      1  C   UNL     1       4.868   4.782  17.121  0.00  0.00    +0.000 A 
ATOM      2  C   UNL     1       3.998   3.894  17.744  0.00  0.00    +0.000 A 
ATOM      3  C   UNL     1       3.286   2.926  17.042  0.00  0.00    +0.000 A 
ATOM      4  C   UNL     1       2.411   2.067  17.709  0.00  0.00    +0.000 A 
ATOM      5  C   UNL     1       2.296   2.169  19.103  0.00  0.00    +0.000 A 
ATOM      6  C   UNL     1       3.061   3.085  19.852  0.00  0.00    +0.000 A 
ATOM      7  C   UNL     1       3.941   3.947  19.152  0.00  0.00    +0.000 A 
ATOM      8  N   UNL     1       4.933   4.665  19.778  0.00  0.00    +0.000 NA
ATOM      9  C   UNL     1       5.646   5.545  19.014  0.00  0.00    +0.000 A 
ATOM     10  C   UNL     1       7.073   5.540  18.950  0.00  0.00    +0.000 A 
ATOM     11  C   UNL     1       7.754   6.313  17.966  0.00  0.00    +0.000 A 
ATOM     12  C   UNL     1       7.022   7.245  17.258  0.00  0.00    +0.000 A 
ATOM     13  C   UNL     1       5.662   7.137  17.314  0.00  0.00    +0.000 A 
ATOM     14  C   UNL     1       5.016   6.024  17.869  0.00  0.00    +0.000 A 
ENDROOT
BRANCH   1  15
ATOM     15  N   UNL     1       6.050   4.182  16.476  0.00  0.00    +0.000 N 
ATOM     16  H   UNL     1       6.462   3.379  16.969  0.00  0.00    +0.000 HD
BRANCH  15  21
ATOM     17  C   UNL     1       6.071   3.494  12.695  0.00  0.00    +0.000 A 
ATOM     18  C   UNL     1       7.061   4.358  12.225  0.00  0.00    +0.000 A 
ATOM     19  C   UNL     1       7.722   5.180  13.117  0.00  0.00    +0.000 A 
ATOM     20  C   UNL     1       7.417   5.153  14.487  0.00  0.00    +0.000 A 
ATOM     21  C   UNL     1       6.428   4.277  15.041  0.00  0.00    +0.000 A 
ATOM     22  C   UNL     1       5.754   3.462  14.083  0.00  0.00    +0.000 A 
BRANCH  17  23
ATOM     23  C   UNL     1       5.395   2.568  11.709  0.00  0.00    +0.000 C 
BRANCH  23  25
ATOM     24  O   UNL     1       7.488   1.762  10.964  0.00  0.00    +0.000 OA
ATOM     25  C   UNL     1       6.368   1.486  11.365  0.00  0.00    +0.000 C 
BRANCH  25  26
ATOM     26  O   UNL     1       5.974   0.197  11.463  0.00  0.00    +0.000 OA
ATOM     27  H   UNL     1       5.620  -0.167  12.286  0.00  0.00    +0.000 HD
ENDBRANCH  25  26
ENDBRANCH  23  25
ENDBRANCH  17  23
ENDBRANCH  15  21
ENDBRANCH   1  15
TORSDOF 5
ENDMDL
MODEL 4
REMARK VINA RESULT:      -8.5      1.250      3.760
REMARK  Name = 
REMARK  5 active torsions:
REMARK  status: ('A' for Active; 'I' for Inactive)
REMARK    1  A    between atoms: C_2  and  O_3
REMARK    2  A    between atoms: C_2  and  C_4
REMARK    3  A    between atoms: C_4  and  C_5
REMARK    4  A    between atoms: C_9  and  N_10
REMARK    5  A    between atoms: N_10  and  C_11
REMARK                            x       y       z     vdW  Elec       q    Type
REMARK                         _______ _______ _______ _____ _____    ______ ____
ROOT
ATOM      1  C   UNL     1       3.813   5.382  18.770  0.00  0.00    +0.000 A 
ATOM      2  C   UNL     1       2.912   4.327  18.872  0.00  0.00    +0.000 A 
ATOM      3  C   UNL     1       1.699   4.442  19.542  0.00  0.00    +0.000 A 
ATOM      4  C   UNL     1       0.834   3.350  19.632  0.00  0.00    +0.000 A 
ATOM      5  C   UNL     1       1.191   2.150  18.998  0.00  0.00    +0.000 A 
ATOM      6  C   UNL     1       2.375   2.026  18.246  0.00  0.00    +0.000 A 
ATOM      7  C   UNL     1       3.237   3.148  18.170  0.00  0.00    +0.000 A 
ATOM      8  N   UNL     1       4.253   3.245  17.248  0.00  0.00    +0.000 NA
ATOM      9  C   UNL     1       5.086   4.324  17.344  0.00  0.00    +0.000 A 
ATOM     10  C   UNL     1       5.357   5.196  16.247  0.00  0.00    +0.000 A 
ATOM     11  C   UNL     1       6.035   6.432  16.457  0.00  0.00    +0.000 A 
ATOM     12  C   UNL     1       6.637   6.635  17.684  0.00  0.00    +0.000 A 
ATOM     13  C   UNL     1       6.269   5.802  18.701  0.00  0.00    +0.000 A 
ATOM     14  C   UNL     1       5.185   4.920  18.598  0.00  0.00    +0.000 A 
ENDROOT
BRANCH   1  15
ATOM     15  N   UNL     1       3.347   6.558  18.013  0.00  0.00    +0.000 N 
ATOM     16  H   UNL     1       3.314   6.441  16.992  0.00  0.00    +0.000 HD
BRANCH  15  21
ATOM     17  C   UNL     1       1.062   8.579  20.349  0.00  0.00    +0.000 A 
ATOM     18  C   UNL     1       0.863   9.767  19.642  0.00  0.00    +0.000 A 
ATOM     19  C   UNL     1       1.473   9.935  18.415  0.00  0.00    +0.000 A 
ATOM     20  C   UNL     1       2.281   8.927  17.866  0.00  0.00    +0.000 A 
ATOM     21  C   UNL     1       2.511   7.676  18.526  0.00  0.00    +0.000 A 
ATOM     22  C   UNL     1       1.882   7.553  19.800  0.00  0.00    +0.000 A 
BRANCH  17  23
ATOM     23  C   UNL     1       0.344   8.397  21.668  0.00  0.00    +0.000 C 
BRANCH  23  25
ATOM     24  O   UNL     1       0.264  10.099  23.306  0.00  0.00    +0.000 OA
ATOM     25  C   UNL     1       0.961   9.339  22.653  0.00  0.00    +0.000 C 
BRANCH  25  26
ATOM     26  O   UNL     1       2.306   9.367  22.776  0.00  0.00    +0.000 OA
ATOM     27  H   UNL     1       2.812  10.184  22.678  0.00  0.00    +0.000 HD
ENDBRANCH  25  26
ENDBRANCH  23  25
ENDBRANCH  17  23
ENDBRANCH  15  21
ENDBRANCH   1  15
TORSDOF 5
ENDMDL
MODEL 5
REMARK VINA RESULT:      -8.4      0.996      1.063
REMARK  Name = 
REMARK  5 active torsions:
REMARK  status: ('A' for Active; 'I' for Inactive)
REMARK    1  A    between atoms: C_2  and  O_3
REMARK    2  A    between atoms: C_2  and  C_4
REMARK    3  A    between atoms: C_4  and  C_5
REMARK    4  A    between atoms: C_9  and  N_10
REMARK    5  A    between atoms: N_10  and  C_11
REMARK                            x       y       z     vdW  Elec       q    Type
REMARK                         _______ _______ _______ _____ _____    ______ ____
ROOT
ATOM      1  C   UNL     1       3.374   5.430  18.392  0.00  0.00    +0.000 A 
ATOM      2  C   UNL     1       4.710   5.564  18.031  0.00  0.00    +0.000 A 
ATOM      3  C   UNL     1       5.219   6.729  17.465  0.00  0.00    +0.000 A 
ATOM      4  C   UNL     1       6.565   6.810  17.104  0.00  0.00    +0.000 A 
ATOM      5  C   UNL     1       7.402   5.714  17.361  0.00  0.00    +0.000 A 
ATOM      6  C   UNL     1       6.934   4.551  18.004  0.00  0.00    +0.000 A 
ATOM      7  C   UNL     1       5.565   4.492  18.360  0.00  0.00    +0.000 A 
ATOM      8  N   UNL     1       5.063   3.555  19.234  0.00  0.00    +0.000 NA
ATOM      9  C   UNL     1       3.709   3.528  19.414  0.00  0.00    +0.000 A 
ATOM     10  C   UNL     1       3.095   3.594  20.701  0.00  0.00    +0.000 A 
ATOM     11  C   UNL     1       1.690   3.802  20.822  0.00  0.00    +0.000 A 
ATOM     12  C   UNL     1       0.921   3.684  19.681  0.00  0.00    +0.000 A 
ATOM     13  C   UNL     1       1.579   3.702  18.485  0.00  0.00    +0.000 A 
ATOM     14  C   UNL     1       2.935   4.040  18.376  0.00  0.00    +0.000 A 
ENDROOT
BRANCH   1  15
ATOM     15  N   UNL     1       2.903   6.323  19.466  0.00  0.00    +0.000 N 
ATOM     16  H   UNL     1       3.420   6.259  20.352  0.00  0.00    +0.000 HD
BRANCH  15  21
ATOM     17  C   UNL     1       0.684   9.334  20.351  0.00  0.00    +0.000 A 
ATOM     18  C   UNL     1       0.572  10.008  19.133  0.00  0.00    +0.000 A 
ATOM     19  C   UNL     1       1.220   9.510  18.021  0.00  0.00    +0.000 A 
ATOM     20  C   UNL     1       1.981   8.333  18.095  0.00  0.00    +0.000 A 
ATOM     21  C   UNL     1       2.122   7.578  19.305  0.00  0.00    +0.000 A 
ATOM     22  C   UNL     1       1.456   8.140  20.434  0.00  0.00    +0.000 A 
BRANCH  17  23
ATOM     23  C   UNL     1      -0.074   9.870  21.544  0.00  0.00    +0.000 C 
BRANCH  23  25
ATOM     24  O   UNL     1       0.958  11.995  21.616  0.00  0.00    +0.000 OA
ATOM     25  C   UNL     1      -0.072  11.363  21.448  0.00  0.00    +0.000 C 
BRANCH  25  26
ATOM     26  O   UNL     1      -1.239  12.003  21.215  0.00  0.00    +0.000 OA
ATOM     27  H   UNL     1      -1.416  12.456  20.380  0.00  0.00    +0.000 HD
ENDBRANCH  25  26
ENDBRANCH  23  25
ENDBRANCH  17  23
ENDBRANCH  15  21
ENDBRANCH   1  15
TORSDOF 5
ENDMDL
MODEL 6
REMARK VINA RESULT:      -8.3      1.865      2.523
REMARK  Name = 
REMARK  5 active torsions:
REMARK  status: ('A' for Active; 'I' for Inactive)
REMARK    1  A    between atoms: C_2  and  O_3
REMARK    2  A    between atoms: C_2  and  C_4
REMARK    3  A    between atoms: C_4  and  C_5
REMARK    4  A    between atoms: C_9  and  N_10
REMARK    5  A    between atoms: N_10  and  C_11
REMARK                            x       y       z     vdW  Elec       q    Type
REMARK                         _______ _______ _______ _____ _____    ______ ____
ROOT
ATOM      1  C   UNL     1       2.873   5.470  18.310  0.00  0.00    +0.000 A 
ATOM      2  C   UNL     1       3.954   5.494  17.436  0.00  0.00    +0.000 A 
ATOM      3  C   UNL     1       4.332   6.640  16.745  0.00  0.00    +0.000 A 
ATOM      4  C   UNL     1       5.415   6.612  15.865  0.00  0.00    +0.000 A 
ATOM      5  C   UNL     1       6.141   5.420  15.725  0.00  0.00    +0.000 A 
ATOM      6  C   UNL     1       5.833   4.265  16.469  0.00  0.00    +0.000 A 
ATOM      7  C   UNL     1       4.729   4.318  17.354  0.00  0.00    +0.000 A 
ATOM      8  N   UNL     1       4.511   3.374  18.331  0.00  0.00    +0.000 NA
ATOM      9  C   UNL     1       3.354   3.471  19.050  0.00  0.00    +0.000 A 
ATOM     10  C   UNL     1       3.327   3.500  20.477  0.00  0.00    +0.000 A 
ATOM     11  C   UNL     1       2.129   3.840  21.170  0.00  0.00    +0.000 A 
ATOM     12  C   UNL     1       0.956   3.888  20.443  0.00  0.00    +0.000 A 
ATOM     13  C   UNL     1       1.070   3.931  19.083  0.00  0.00    +0.000 A 
ATOM     14  C   UNL     1       2.296   4.137  18.437  0.00  0.00    +0.000 A 
ENDROOT
BRANCH   1  15
ATOM     15  N   UNL     1       2.992   6.321  19.508  0.00  0.00    +0.000 N 
ATOM     16  H   UNL     1       3.934   6.380  19.916  0.00  0.00    +0.000 HD
BRANCH  15  21
ATOM     17  C   UNL     1       0.932   9.559  19.306  0.00  0.00    +0.000 A 
ATOM     18  C   UNL     1       0.331   9.627  20.565  0.00  0.00    +0.000 A 
ATOM     19  C   UNL     1       0.571   8.625  21.485  0.00  0.00    +0.000 A 
ATOM     20  C   UNL     1       1.415   7.547  21.175  0.00  0.00    +0.000 A 
ATOM     21  C   UNL     1       2.081   7.424  19.912  0.00  0.00    +0.000 A 
ATOM     22  C   UNL     1       1.788   8.467  18.984  0.00  0.00    +0.000 A 
BRANCH  17  23
ATOM     23  C   UNL     1       0.695  10.691  18.332  0.00  0.00    +0.000 C 
BRANCH  23  25
ATOM     24  O   UNL     1       1.837  12.347  19.574  0.00  0.00    +0.000 OA
ATOM     25  C   UNL     1       1.779  11.701  18.540  0.00  0.00    +0.000 C 
BRANCH  25  26
ATOM     26  O   UNL     1       2.668  11.917  17.546  0.00  0.00    +0.000 OA
ATOM     27  H   UNL     1       2.392  12.015  16.625  0.00  0.00    +0.000 HD
ENDBRANCH  25  26
ENDBRANCH  23  25
ENDBRANCH  17  23
ENDBRANCH  15  21
ENDBRANCH   1  15
TORSDOF 5
ENDMDL
MODEL 7
REMARK VINA RESULT:      -8.3      1.824      2.518
REMARK  Name = 
REMARK  5 active torsions:
REMARK  status: ('A' for Active; 'I' for Inactive)
REMARK    1  A    between atoms: C_2  and  O_3
REMARK    2  A    between atoms: C_2  and  C_4
REMARK    3  A    between atoms: C_4  and  C_5
REMARK    4  A    between atoms: C_9  and  N_10
REMARK    5  A    between atoms: N_10  and  C_11
REMARK                            x       y       z     vdW  Elec       q    Type
REMARK                         _______ _______ _______ _____ _____    ______ ____
ROOT
ATOM      1  C   UNL     1       2.816   5.335  18.384  0.00  0.00    +0.000 A 
ATOM      2  C   UNL     1       3.893   5.393  17.507  0.00  0.00    +0.000 A 
ATOM      3  C   UNL     1       4.260   6.561  16.847  0.00  0.00    +0.000 A 
ATOM      4  C   UNL     1       5.341   6.566  15.963  0.00  0.00    +0.000 A 
ATOM      5  C   UNL     1       6.075   5.384  15.787  0.00  0.00    +0.000 A 
ATOM      6  C   UNL     1       5.778   4.206  16.499  0.00  0.00    +0.000 A 
ATOM      7  C   UNL     1       4.676   4.225  17.389  0.00  0.00    +0.000 A 
ATOM      8  N   UNL     1       4.469   3.252  18.339  0.00  0.00    +0.000 NA
ATOM      9  C   UNL     1       3.314   3.320  19.065  0.00  0.00    +0.000 A 
ATOM     10  C   UNL     1       3.291   3.308  20.492  0.00  0.00    +0.000 A 
ATOM     11  C   UNL     1       2.093   3.619  21.198  0.00  0.00    +0.000 A 
ATOM     12  C   UNL     1       0.917   3.679  20.476  0.00  0.00    +0.000 A 
ATOM     13  C   UNL     1       1.027   3.761  19.118  0.00  0.00    +0.000 A 
ATOM     14  C   UNL     1       2.249   3.995  18.474  0.00  0.00    +0.000 A 
ENDROOT
BRANCH   1  15
ATOM     15  N   UNL     1       2.932   6.153  19.605  0.00  0.00    +0.000 N 
ATOM     16  H   UNL     1       3.865   6.171  20.036  0.00  0.00    +0.000 HD
BRANCH  15  21
ATOM     17  C   UNL     1       1.062   9.508  19.475  0.00  0.00    +0.000 A 
ATOM     18  C   UNL     1       0.363   9.524  20.683  0.00  0.00    +0.000 A 
ATOM     19  C   UNL     1       0.475   8.451  21.544  0.00  0.00    +0.000 A 
ATOM     20  C   UNL     1       1.286   7.350  21.226  0.00  0.00    +0.000 A 
ATOM     21  C   UNL     1       2.047   7.276  20.014  0.00  0.00    +0.000 A 
ATOM     22  C   UNL     1       1.886   8.394  19.143  0.00  0.00    +0.000 A 
BRANCH  17  23
ATOM     23  C   UNL     1       0.965  10.716  18.569  0.00  0.00    +0.000 C 
BRANCH  23  25
ATOM     24  O   UNL     1      -1.135  11.796  18.657  0.00  0.00    +0.000 OA
ATOM     25  C   UNL     1      -0.473  10.883  18.191  0.00  0.00    +0.000 C 
BRANCH  25  26
ATOM     26  O   UNL     1      -1.038   9.980  17.360  0.00  0.00    +0.000 OA
ATOM     27  H   UNL     1      -1.288  10.206  16.454  0.00  0.00    +0.000 HD
ENDBRANCH  25  26
ENDBRANCH  23  25
ENDBRANCH  17  23
ENDBRANCH  15  21
ENDBRANCH   1  15
TORSDOF 5
ENDMDL
MODEL 8
REMARK VINA RESULT:      -8.2      1.161      3.624
REMARK  Name = 
REMARK  5 active torsions:
REMARK  status: ('A' for Active; 'I' for Inactive)
REMARK    1  A    between atoms: C_2  and  O_3
REMARK    2  A    between atoms: C_2  and  C_4
REMARK    3  A    between atoms: C_4  and  C_5
REMARK    4  A    between atoms: C_9  and  N_10
REMARK    5  A    between atoms: N_10  and  C_11
REMARK                            x       y       z     vdW  Elec       q    Type
REMARK                         _______ _______ _______ _____ _____    ______ ____
ROOT
ATOM      1  C   UNL     1       3.934   5.655  19.086  0.00  0.00    +0.000 A 
ATOM      2  C   UNL     1       3.274   4.602  19.709  0.00  0.00    +0.000 A 
ATOM      3  C   UNL     1       2.265   4.800  20.645  0.00  0.00    +0.000 A 
ATOM      4  C   UNL     1       1.642   3.711  21.256  0.00  0.00    +0.000 A 
ATOM      5  C   UNL     1       2.021   2.415  20.876  0.00  0.00    +0.000 A 
ATOM      6  C   UNL     1       2.983   2.181  19.875  0.00  0.00    +0.000 A 
ATOM      7  C   UNL     1       3.602   3.302  19.271  0.00  0.00    +0.000 A 
ATOM      8  N   UNL     1       4.325   3.214  18.104  0.00  0.00    +0.000 NA
ATOM      9  C   UNL     1       4.967   4.342  17.677  0.00  0.00    +0.000 A 
ATOM     10  C   UNL     1       4.808   4.877  16.363  0.00  0.00    +0.000 A 
ATOM     11  C   UNL     1       5.305   6.174  16.046  0.00  0.00    +0.000 A 
ATOM     12  C   UNL     1       6.152   6.779  16.954  0.00  0.00    +0.000 A 
ATOM     13  C   UNL     1       6.192   6.250  18.212  0.00  0.00    +0.000 A 
ATOM     14  C   UNL     1       5.277   5.285  18.653  0.00  0.00    +0.000 A 
ENDROOT
BRANCH   1  15
ATOM     15  N   UNL     1       3.108   6.513  18.218  0.00  0.00    +0.000 N 
ATOM     16  H   UNL     1       2.763   6.069  17.357  0.00  0.00    +0.000 HD
BRANCH  15  21
ATOM     17  C   UNL     1       0.845   8.833  20.284  0.00  0.00    +0.000 A 
ATOM     18  C   UNL     1       0.833  10.010  19.532  0.00  0.00    +0.000 A 
ATOM     19  C   UNL     1       1.564  10.074  18.362  0.00  0.00    +0.000 A 
ATOM     20  C   UNL     1       2.310   8.971  17.915  0.00  0.00    +0.000 A 
ATOM     21  C   UNL     1       2.350   7.727  18.625  0.00  0.00    +0.000 A 
ATOM     22  C   UNL     1       1.600   7.711  19.838  0.00  0.00    +0.000 A 
BRANCH  17  23
ATOM     23  C   UNL     1      -0.002   8.770  21.535  0.00  0.00    +0.000 C 
BRANCH  23  25
ATOM     24  O   UNL     1       1.839   9.490  22.830  0.00  0.00    +0.000 OA
ATOM     25  C   UNL     1       0.654   9.628  22.570  0.00  0.00    +0.000 C 
BRANCH  25  26
ATOM     26  O   UNL     1      -0.095  10.527  23.243  0.00  0.00    +0.000 OA
ATOM     27  H   UNL     1      -0.013  11.478  23.090  0.00  0.00    +0.000 HD
ENDBRANCH  25  26
ENDBRANCH  23  25
ENDBRANCH  17  23
ENDBRANCH  15  21
ENDBRANCH   1  15
TORSDOF 5
ENDMDL
MODEL 9
REMARK VINA RESULT:      -8.1      2.037      4.386
REMARK  Name = 
REMARK  5 active torsions:
REMARK  status: ('A' for Active; 'I' for Inactive)
REMARK    1  A    between atoms: C_2  and  O_3
REMARK    2  A    between atoms: C_2  and  C_4
REMARK    3  A    between atoms: C_4  and  C_5
REMARK    4  A    between atoms: C_9  and  N_10
REMARK    5  A    between atoms: N_10  and  C_11
REMARK                            x       y       z     vdW  Elec       q    Type
REMARK                         _______ _______ _______ _____ _____    ______ ____
ROOT
ATOM      1  C   UNL     1       3.679   5.301  18.929  0.00  0.00    +0.000 A 
ATOM      2  C   UNL     1       2.769   4.249  18.951  0.00  0.00    +0.000 A 
ATOM      3  C   UNL     1       1.640   4.254  19.763  0.00  0.00    +0.000 A 
ATOM      4  C   UNL     1       0.763   3.168  19.764  0.00  0.00    +0.000 A 
ATOM      5  C   UNL     1       1.019   2.093  18.900  0.00  0.00    +0.000 A 
ATOM      6  C   UNL     1       2.110   2.092  18.010  0.00  0.00    +0.000 A 
ATOM      7  C   UNL     1       2.986   3.205  18.029  0.00  0.00    +0.000 A 
ATOM      8  N   UNL     1       3.897   3.452  17.028  0.00  0.00    +0.000 NA
ATOM      9  C   UNL     1       4.762   4.494  17.211  0.00  0.00    +0.000 A 
ATOM     10  C   UNL     1       4.933   5.539  16.254  0.00  0.00    +0.000 A 
ATOM     11  C   UNL     1       5.661   6.717  16.592  0.00  0.00    +0.000 A 
ATOM     12  C   UNL     1       6.397   6.705  17.760  0.00  0.00    +0.000 A 
ATOM     13  C   UNL     1       6.123   5.712  18.656  0.00  0.00    +0.000 A 
ATOM     14  C   UNL     1       5.012   4.867  18.528  0.00  0.00    +0.000 A 
ENDROOT
BRANCH   1  15
ATOM     15  N   UNL     1       3.162   6.591  18.438  0.00  0.00    +0.000 N 
ATOM     16  H   UNL     1       3.084   6.675  17.416  0.00  0.00    +0.000 HD
BRANCH  15  21
ATOM     17  C   UNL     1       1.072   9.722  19.208  0.00  0.00    +0.000 A 
ATOM     18  C   UNL     1       0.726   9.546  20.549  0.00  0.00    +0.000 A 
ATOM     19  C   UNL     1       1.149   8.412  21.214  0.00  0.00    +0.000 A 
ATOM     20  C   UNL     1       1.927   7.441  20.564  0.00  0.00    +0.000 A 
ATOM     21  C   UNL     1       2.336   7.568  19.197  0.00  0.00    +0.000 A 
ATOM     22  C   UNL     1       1.860   8.741  18.541  0.00  0.00    +0.000 A 
BRANCH  17  23
ATOM     23  C   UNL     1       0.640  10.995  18.513  0.00  0.00    +0.000 C 
BRANCH  23  25
ATOM     24  O   UNL     1       2.034  12.607  19.535  0.00  0.00    +0.000 OA
ATOM     25  C   UNL     1       1.799  11.940  18.540  0.00  0.00    +0.000 C 
BRANCH  25  26
ATOM     26  O   UNL     1       2.556  12.076  17.429  0.00  0.00    +0.000 OA
ATOM     27  H   UNL     1       2.182  11.990  16.542  0.00  0.00    +0.000 HD
ENDBRANCH  25  26
ENDBRANCH  23  25
ENDBRANCH  17  23
ENDBRANCH  15  21
ENDBRANCH   1  15
TORSDOF 5
ENDMDL
