MODEL 1
REMARK VINA RESULT:      -7.5      0.000      0.000
REMARK  Name = 
REMARK  8 active torsions:
REMARK  status: ('A' for Active; 'I' for Inactive)
REMARK    1  A    between atoms: C_2  and  O_3
REMARK    2  A    between atoms: C_2  and  C_4
REMARK    3  A    between atoms: N_6  and  C_7
REMARK    4  A    between atoms: C_7  and  C_8
REMARK    5  A    between atoms: C_8  and  O_9
REMARK    6  A    between atoms: C_8  and  C_10
REMARK    7  A    between atoms: C_10  and  N_11
REMARK    8  A    between atoms: C_14  and  N_15
REMARK                            x       y       z     vdW  Elec       q    Type
REMARK                         _______ _______ _______ _____ _____    ______ ____
ROOT
ATOM      1  C   UNL     1       3.819   3.385  19.374  0.00  0.00    +0.000 A 
ATOM      2  C   UNL     1       4.324   4.085  18.353  0.00  0.00    +0.000 A 
ATOM      3  N   UNL     1       4.011   5.388  17.967  0.00  0.00    +0.000 N 
ATOM      4  C   UNL     1       3.111   6.148  18.787  0.00  0.00    +0.000 A 
ATOM      5  C   UNL     1       2.699   7.498  18.610  0.00  0.00    +0.000 A 
ATOM      6 CL   UNL     1       3.170   8.551  17.313  0.00  0.00    +0.000 Cl
ATOM      7  C   UNL     1       1.824   8.132  19.519  0.00  0.00    +0.000 A 
ATOM      8  C   UNL     1       1.336   7.460  20.628  0.00  0.00    +0.000 A 
ATOM      9 CL   UNL     1       0.286   8.258  21.728  0.00  0.00    +0.000 Cl
ATOM     10  C   UNL     1       1.693   6.145  20.840  0.00  0.00    +0.000 A 
ATOM     11  C   UNL     1       2.552   5.501  19.931  0.00  0.00    +0.000 A 
ATOM     12  C   UNL     1       2.834   4.072  20.208  0.00  0.00    +0.000 A 
ATOM     13  O   UNL     1       2.255   3.457  21.101  0.00  0.00    +0.000 OA
ENDROOT
BRANCH   1  15
ATOM     14  O   UNL     1       3.898   1.073  18.812  0.00  0.00    +0.000 OA
ATOM     15  C   UNL     1       4.229   1.979  19.564  0.00  0.00    +0.000 C 
BRANCH  15  16
ATOM     16  O   UNL     1       4.976   1.762  20.668  0.00  0.00    +0.000 OA
ATOM     17  H   UNL     1       4.991   2.521  21.298  0.00  0.00    +0.000 HD
ENDBRANCH  15  16
ENDBRANCH   1  15
BRANCH   3  18
ATOM     18  C   UNL     1       4.564   5.993  16.720  0.00  0.00    +0.000 C 
BRANCH  18  19
ATOM     19  C   UNL     1       6.101   6.201  16.663  0.00  0.00    +0.000 C 
BRANCH  19  20
ATOM     20  O   UNL     1       6.604   6.668  17.923  0.00  0.00    +0.000 OA
ATOM     21  H   UNL     1       6.201   6.159  18.649  0.00  0.00    +0.000 HD
ENDBRANCH  19  20
BRANCH  19  22
ATOM     22  C   UNL     1       6.815   4.890  16.310  0.00  0.00    +0.000 C 
BRANCH  22  23
ATOM     23  N   UNL     1       6.681   4.556  14.900  0.00  0.00    +0.000 N 
ATOM     24  C   UNL     1       7.458   5.056  13.889  0.00  0.00    +0.000 A 
ATOM     25  N   UNL     1       7.125   4.545  12.724  0.00  0.00    +0.000 NA
ATOM     26  C   UNL     1       6.071   3.699  12.996  0.00  0.00    +0.000 A 
ATOM     27  C   UNL     1       5.781   3.687  14.348  0.00  0.00    +0.000 A 
BRANCH  26  28
ATOM     28  N   UNL     1       5.415   2.947  11.947  0.00  0.00    +0.000 N 
ATOM     29  O   UNL     1       6.029   1.963  11.511  0.00  0.00    +0.000 OA
ATOM     30  O   UNL     1       4.306   3.338  11.557  0.00  0.00    +0.000 OA
ENDBRANCH  26  28
ENDBRANCH  22  23
ENDBRANCH  19  22
ENDBRANCH  18  19
ENDBRANCH   3  18
TORSDOF 8
ENDMDL
MODEL 2
REMARK VINA RESULT:      -7.4      4.556      8.454
REMARK  Name = 
REMARK  8 active torsions:
REMARK  status: ('A' for Active; 'I' for Inactive)
REMARK    1  A    between atoms: C_2  and  O_3
REMARK    2  A    between atoms: C_2  and  C_4
REMARK    3  A    between atoms: N_6  and  C_7
REMARK    4  A    between atoms: C_7  and  C_8
REMARK    5  A    between atoms: C_8  and  O_9
REMARK    6  A    between atoms: C_8  and  C_10
REMARK    7  A    between atoms: C_10  and  N_11
REMARK    8  A    between atoms: C_14  and  N_15
REMARK                            x       y       z     vdW  Elec       q    Type
REMARK                         _______ _______ _______ _____ _____    ______ ____
ROOT
ATOM      1  C   UNL     1       2.581   3.936  20.561  0.00  0.00    +0.000 A 
ATOM      2  C   UNL     1       1.996   5.138  20.615  0.00  0.00    +0.000 A 
ATOM      3  N   UNL     1       2.242   6.249  19.810  0.00  0.00    +0.000 N 
ATOM      4  C   UNL     1       3.157   6.112  18.713  0.00  0.00    +0.000 A 
ATOM      5  C   UNL     1       3.510   7.092  17.744  0.00  0.00    +0.000 A 
ATOM      6 CL   UNL     1       2.932   8.727  17.684  0.00  0.00    +0.000 Cl
ATOM      7  C   UNL     1       4.410   6.806  16.694  0.00  0.00    +0.000 A 
ATOM      8  C   UNL     1       4.981   5.550  16.563  0.00  0.00    +0.000 A 
ATOM      9 CL   UNL     1       6.060   5.223  15.268  0.00  0.00    +0.000 Cl
ATOM     10  C   UNL     1       4.683   4.567  17.484  0.00  0.00    +0.000 A 
ATOM     11  C   UNL     1       3.800   4.848  18.542  0.00  0.00    +0.000 A 
ATOM     12  C   UNL     1       3.584   3.750  19.514  0.00  0.00    +0.000 A 
ATOM     13  O   UNL     1       4.232   2.706  19.469  0.00  0.00    +0.000 OA
ENDROOT
BRANCH   1  15
ATOM     14  O   UNL     1       1.105   2.773  22.022  0.00  0.00    +0.000 OA
ATOM     15  C   UNL     1       2.231   2.912  21.566  0.00  0.00    +0.000 C 
BRANCH  15  16
ATOM     16  O   UNL     1       3.274   2.158  21.977  0.00  0.00    +0.000 OA
ATOM     17  H   UNL     1       3.038   1.219  22.171  0.00  0.00    +0.000 HD
ENDBRANCH  15  16
ENDBRANCH   1  15
BRANCH   3  18
ATOM     18  C   UNL     1       1.600   7.570  20.076  0.00  0.00    +0.000 C 
BRANCH  18  19
ATOM     19  C   UNL     1       1.026   7.798  21.500  0.00  0.00    +0.000 C 
BRANCH  19  20
ATOM     20  O   UNL     1       1.876   8.667  22.263  0.00  0.00    +0.000 OA
ATOM     21  H   UNL     1       2.143   9.430  21.720  0.00  0.00    +0.000 HD
ENDBRANCH  19  20
BRANCH  19  22
ATOM     22  C   UNL     1      -0.372   8.426  21.428  0.00  0.00    +0.000 C 
BRANCH  22  23
ATOM     23  N   UNL     1      -0.362   9.831  21.805  0.00  0.00    +0.000 N 
ATOM     24  C   UNL     1      -0.766  10.331  23.014  0.00  0.00    +0.000 A 
ATOM     25  N   UNL     1      -0.610  11.635  23.077  0.00  0.00    +0.000 NA
ATOM     26  C   UNL     1      -0.106  11.990  21.843  0.00  0.00    +0.000 A 
ATOM     27  C   UNL     1       0.061  10.880  21.036  0.00  0.00    +0.000 A 
BRANCH  26  28
ATOM     28  N   UNL     1       0.194  13.369  21.519  0.00  0.00    +0.000 N 
ATOM     29  O   UNL     1       0.426  14.120  22.476  0.00  0.00    +0.000 OA
ATOM     30  O   UNL     1       0.189  13.700  20.325  0.00  0.00    +0.000 OA
ENDBRANCH  26  28
ENDBRANCH  22  23
ENDBRANCH  19  22
ENDBRANCH  18  19
ENDBRANCH   3  18
TORSDOF 8
ENDMDL
MODEL 3
REMARK VINA RESULT:      -7.3      2.465      3.923
REMARK  Name = 
REMARK  8 active torsions:
REMARK  status: ('A' for Active; 'I' for Inactive)
REMARK    1  A    between atoms: C_2  and  O_3
REMARK    2  A    between atoms: C_2  and  C_4
REMARK    3  A    between atoms: N_6  and  C_7
REMARK    4  A    between atoms: C_7  and  C_8
REMARK    5  A    between atoms: C_8  and  O_9
REMARK    6  A    between atoms: C_8  and  C_10
REMARK    7  A    between atoms: C_10  and  N_11
REMARK    8  A    between atoms: C_14  and  N_15
REMARK                            x       y       z     vdW  Elec       q    Type
REMARK                         _______ _______ _______ _____ _____    ______ ____
ROOT
ATOM      1  C   UNL     1       2.330   7.911  18.674  0.00  0.00    +0.000 A 
ATOM      2  C   UNL     1       3.092   7.350  17.729  0.00  0.00    +0.000 A 
ATOM      3  N   UNL     1       3.577   6.043  17.682  0.00  0.00    +0.000 N 
ATOM      4  C   UNL     1       3.159   5.120  18.699  0.00  0.00    +0.000 A 
ATOM      5  C   UNL     1       3.488   3.740  18.812  0.00  0.00    +0.000 A 
ATOM      6 CL   UNL     1       4.521   2.843  17.745  0.00  0.00    +0.000 Cl
ATOM      7  C   UNL     1       2.978   2.941  19.858  0.00  0.00    +0.000 A 
ATOM      8  C   UNL     1       2.128   3.470  20.815  0.00  0.00    +0.000 A 
ATOM      9 CL   UNL     1       1.508   2.472  22.067  0.00  0.00    +0.000 Cl
ATOM     10  C   UNL     1       1.788   4.806  20.760  0.00  0.00    +0.000 A 
ATOM     11  C   UNL     1       2.304   5.614  19.730  0.00  0.00    +0.000 A 
ATOM     12  C   UNL     1       1.931   7.048  19.784  0.00  0.00    +0.000 A 
ATOM     13  O   UNL     1       1.316   7.524  20.737  0.00  0.00    +0.000 OA
ENDROOT
BRANCH   1  15
ATOM     14  O   UNL     1       2.320  10.052  17.633  0.00  0.00    +0.000 OA
ATOM     15  C   UNL     1       1.989   9.345  18.575  0.00  0.00    +0.000 C 
BRANCH  15  16
ATOM     16  O   UNL     1       1.309   9.830  19.636  0.00  0.00    +0.000 OA
ATOM     17  H   UNL     1       0.623   9.214  19.989  0.00  0.00    +0.000 HD
ENDBRANCH  15  16
ENDBRANCH   1  15
BRANCH   3  18
ATOM     18  C   UNL     1       4.529   5.596  16.624  0.00  0.00    +0.000 C 
BRANCH  18  19
ATOM     19  C   UNL     1       6.017   6.002  16.801  0.00  0.00    +0.000 C 
BRANCH  19  20
ATOM     20  O   UNL     1       6.307   6.304  18.173  0.00  0.00    +0.000 OA
ATOM     21  H   UNL     1       5.536   6.093  18.728  0.00  0.00    +0.000 HD
ENDBRANCH  19  20
BRANCH  19  22
ATOM     22  C   UNL     1       6.947   4.871  16.344  0.00  0.00    +0.000 C 
BRANCH  22  23
ATOM     23  N   UNL     1       6.786   4.566  14.930  0.00  0.00    +0.000 N 
ATOM     24  C   UNL     1       7.492   5.145  13.909  0.00  0.00    +0.000 A 
ATOM     25  N   UNL     1       7.153   4.644  12.741  0.00  0.00    +0.000 NA
ATOM     26  C   UNL     1       6.169   3.721  13.024  0.00  0.00    +0.000 A 
ATOM     27  C   UNL     1       5.927   3.653  14.384  0.00  0.00    +0.000 A 
BRANCH  26  28
ATOM     28  N   UNL     1       5.528   2.956  11.976  0.00  0.00    +0.000 N 
ATOM     29  O   UNL     1       4.386   3.313  11.655  0.00  0.00    +0.000 OA
ATOM     30  O   UNL     1       6.152   2.005  11.484  0.00  0.00    +0.000 OA
ENDBRANCH  26  28
ENDBRANCH  22  23
ENDBRANCH  19  22
ENDBRANCH  18  19
ENDBRANCH   3  18
TORSDOF 8
ENDMDL
MODEL 4
REMARK VINA RESULT:      -7.2      4.063      7.527
REMARK  Name = 
REMARK  8 active torsions:
REMARK  status: ('A' for Active; 'I' for Inactive)
REMARK    1  A    between atoms: C_2  and  O_3
REMARK    2  A    between atoms: C_2  and  C_4
REMARK    3  A    between atoms: N_6  and  C_7
REMARK    4  A    between atoms: C_7  and  C_8
REMARK    5  A    between atoms: C_8  and  O_9
REMARK    6  A    between atoms: C_8  and  C_10
REMARK    7  A    between atoms: C_10  and  N_11
REMARK    8  A    between atoms: C_14  and  N_15
REMARK                            x       y       z     vdW  Elec       q    Type
REMARK                         _______ _______ _______ _____ _____    ______ ____
ROOT
ATOM      1  C   UNL     1       2.326   4.223  20.436  0.00  0.00    +0.000 A 
ATOM      2  C   UNL     1       1.844   5.468  20.518  0.00  0.00    +0.000 A 
ATOM      3  N   UNL     1       2.187   6.573  19.740  0.00  0.00    +0.000 N 
ATOM      4  C   UNL     1       3.092   6.384  18.642  0.00  0.00    +0.000 A 
ATOM      5  C   UNL     1       3.532   7.353  17.697  0.00  0.00    +0.000 A 
ATOM      6 CL   UNL     1       3.095   9.033  17.675  0.00  0.00    +0.000 Cl
ATOM      7  C   UNL     1       4.409   7.016  16.644  0.00  0.00    +0.000 A 
ATOM      8  C   UNL     1       4.872   5.721  16.484  0.00  0.00    +0.000 A 
ATOM      9 CL   UNL     1       5.925   5.334  15.184  0.00  0.00    +0.000 Cl
ATOM     10  C   UNL     1       4.488   4.745  17.381  0.00  0.00    +0.000 A 
ATOM     11  C   UNL     1       3.627   5.075  18.443  0.00  0.00    +0.000 A 
ATOM     12  C   UNL     1       3.314   3.976  19.388  0.00  0.00    +0.000 A 
ATOM     13  O   UNL     1       3.872   2.883  19.319  0.00  0.00    +0.000 OA
ENDROOT
BRANCH   1  15
ATOM     14  O   UNL     1       2.599   2.790  22.317  0.00  0.00    +0.000 OA
ATOM     15  C   UNL     1       1.886   3.208  21.416  0.00  0.00    +0.000 C 
BRANCH  15  16
ATOM     16  O   UNL     1       0.634   2.746  21.214  0.00  0.00    +0.000 OA
ATOM     17  H   UNL     1       0.127   2.582  22.046  0.00  0.00    +0.000 HD
ENDBRANCH  15  16
ENDBRANCH   1  15
BRANCH   3  18
ATOM     18  C   UNL     1       1.659   7.937  20.036  0.00  0.00    +0.000 C 
BRANCH  18  19
ATOM     19  C   UNL     1       1.033   8.159  21.438  0.00  0.00    +0.000 C 
BRANCH  19  20
ATOM     20  O   UNL     1       1.981   8.756  22.335  0.00  0.00    +0.000 OA
ATOM     21  H   UNL     1       1.658   8.687  23.251  0.00  0.00    +0.000 HD
ENDBRANCH  19  20
BRANCH  19  22
ATOM     22  C   UNL     1      -0.194   9.075  21.347  0.00  0.00    +0.000 C 
BRANCH  22  23
ATOM     23  N   UNL     1      -0.048  10.084  20.309  0.00  0.00    +0.000 N 
ATOM     24  C   UNL     1      -0.829  10.190  19.189  0.00  0.00    +0.000 A 
ATOM     25  N   UNL     1      -0.483  11.221  18.452  0.00  0.00    +0.000 NA
ATOM     26  C   UNL     1       0.585  11.788  19.115  0.00  0.00    +0.000 A 
ATOM     27  C   UNL     1       0.869  11.098  20.279  0.00  0.00    +0.000 A 
BRANCH  26  28
ATOM     28  N   UNL     1       1.258  12.961  18.599  0.00  0.00    +0.000 N 
ATOM     29  O   UNL     1       0.668  14.041  18.742  0.00  0.00    +0.000 OA
ATOM     30  O   UNL     1       2.358  12.806  18.049  0.00  0.00    +0.000 OA
ENDBRANCH  26  28
ENDBRANCH  22  23
ENDBRANCH  19  22
ENDBRANCH  18  19
ENDBRANCH   3  18
TORSDOF 8
ENDMDL
MODEL 5
REMARK VINA RESULT:      -7.1      4.681      8.692
REMARK  Name = 
REMARK  8 active torsions:
REMARK  status: ('A' for Active; 'I' for Inactive)
REMARK    1  A    between atoms: C_2  and  O_3
REMARK    2  A    between atoms: C_2  and  C_4
REMARK    3  A    between atoms: N_6  and  C_7
REMARK    4  A    between atoms: C_7  and  C_8
REMARK    5  A    between atoms: C_8  and  O_9
REMARK    6  A    between atoms: C_8  and  C_10
REMARK    7  A    between atoms: C_10  and  N_11
REMARK    8  A    between atoms: C_14  and  N_15
REMARK                            x       y       z     vdW  Elec       q    Type
REMARK                         _______ _______ _______ _____ _____    ______ ____
ROOT
ATOM      1  C   UNL     1       2.507   4.010  20.431  0.00  0.00    +0.000 A 
ATOM      2  C   UNL     1       2.007   5.244  20.549  0.00  0.00    +0.000 A 
ATOM      3  N   UNL     1       2.305   6.368  19.778  0.00  0.00    +0.000 N 
ATOM      4  C   UNL     1       3.178   6.213  18.649  0.00  0.00    +0.000 A 
ATOM      5  C   UNL     1       3.570   7.205  17.707  0.00  0.00    +0.000 A 
ATOM      6 CL   UNL     1       3.103   8.876  17.726  0.00  0.00    +0.000 Cl
ATOM      7  C   UNL     1       4.418   6.900  16.621  0.00  0.00    +0.000 A 
ATOM      8  C   UNL     1       4.899   5.616  16.426  0.00  0.00    +0.000 A 
ATOM      9 CL   UNL     1       5.916   5.268  15.087  0.00  0.00    +0.000 Cl
ATOM     10  C   UNL     1       4.561   4.619  17.318  0.00  0.00    +0.000 A 
ATOM     11  C   UNL     1       3.728   4.917  18.412  0.00  0.00    +0.000 A 
ATOM     12  C   UNL     1       3.465   3.798  19.348  0.00  0.00    +0.000 A 
ATOM     13  O   UNL     1       4.040   2.716  19.244  0.00  0.00    +0.000 OA
ENDROOT
BRANCH   1  15
ATOM     14  O   UNL     1       0.956   2.659  21.629  0.00  0.00    +0.000 OA
ATOM     15  C   UNL     1       2.117   2.972  21.408  0.00  0.00    +0.000 C 
BRANCH  15  16
ATOM     16  O   UNL     1       3.153   2.418  22.074  0.00  0.00    +0.000 OA
ATOM     17  H   UNL     1       4.032   2.802  21.841  0.00  0.00    +0.000 HD
ENDBRANCH  15  16
ENDBRANCH   1  15
BRANCH   3  18
ATOM     18  C   UNL     1       1.763   7.717  20.113  0.00  0.00    +0.000 C 
BRANCH  18  19
ATOM     19  C   UNL     1       1.227   7.921  21.555  0.00  0.00    +0.000 C 
BRANCH  19  20
ATOM     20  O   UNL     1       1.931   8.981  22.219  0.00  0.00    +0.000 OA
ATOM     21  H   UNL     1       2.038   8.766  23.163  0.00  0.00    +0.000 HD
ENDBRANCH  19  20
BRANCH  19  22
ATOM     22  C   UNL     1      -0.267   8.267  21.537  0.00  0.00    +0.000 C 
BRANCH  22  23
ATOM     23  N   UNL     1      -0.499   9.700  21.639  0.00  0.00    +0.000 N 
ATOM     24  C   UNL     1      -0.481  10.583  20.592  0.00  0.00    +0.000 A 
ATOM     25  N   UNL     1      -0.760  11.806  20.985  0.00  0.00    +0.000 NA
ATOM     26  C   UNL     1      -0.940  11.708  22.348  0.00  0.00    +0.000 A 
ATOM     27  C   UNL     1      -0.786  10.402  22.776  0.00  0.00    +0.000 A 
BRANCH  26  28
ATOM     28  N   UNL     1      -1.257  12.868  23.154  0.00  0.00    +0.000 N 
ATOM     29  O   UNL     1      -2.441  12.989  23.500  0.00  0.00    +0.000 OA
ATOM     30  O   UNL     1      -0.340  13.653  23.432  0.00  0.00    +0.000 OA
ENDBRANCH  26  28
ENDBRANCH  22  23
ENDBRANCH  19  22
ENDBRANCH  18  19
ENDBRANCH   3  18
TORSDOF 8
ENDMDL
MODEL 6
REMARK VINA RESULT:      -7.1      4.215      7.942
REMARK  Name = 
REMARK  8 active torsions:
REMARK  status: ('A' for Active; 'I' for Inactive)
REMARK    1  A    between atoms: C_2  and  O_3
REMARK    2  A    between atoms: C_2  and  C_4
REMARK    3  A    between atoms: N_6  and  C_7
REMARK    4  A    between atoms: C_7  and  C_8
REMARK    5  A    between atoms: C_8  and  O_9
REMARK    6  A    between atoms: C_8  and  C_10
REMARK    7  A    between atoms: C_10  and  N_11
REMARK    8  A    between atoms: C_14  and  N_15
REMARK                            x       y       z     vdW  Elec       q    Type
REMARK                         _______ _______ _______ _____ _____    ______ ____
ROOT
ATOM      1  C   UNL     1       2.640   3.946  20.548  0.00  0.00    +0.000 A 
ATOM      2  C   UNL     1       2.070   5.155  20.601  0.00  0.00    +0.000 A 
ATOM      3  N   UNL     1       2.319   6.258  19.785  0.00  0.00    +0.000 N 
ATOM      4  C   UNL     1       3.219   6.101  18.678  0.00  0.00    +0.000 A 
ATOM      5  C   UNL     1       3.573   7.071  17.698  0.00  0.00    +0.000 A 
ATOM      6 CL   UNL     1       3.014   8.712  17.633  0.00  0.00    +0.000 Cl
ATOM      7  C   UNL     1       4.455   6.766  16.639  0.00  0.00    +0.000 A 
ATOM      8  C   UNL     1       5.010   5.503  16.510  0.00  0.00    +0.000 A 
ATOM      9 CL   UNL     1       6.068   5.154  15.204  0.00  0.00    +0.000 Cl
ATOM     10  C   UNL     1       4.711   4.530  17.441  0.00  0.00    +0.000 A 
ATOM     11  C   UNL     1       3.845   4.829  18.508  0.00  0.00    +0.000 A 
ATOM     12  C   UNL     1       3.628   3.740  19.490  0.00  0.00    +0.000 A 
ATOM     13  O   UNL     1       4.263   2.688  19.445  0.00  0.00    +0.000 OA
ENDROOT
BRANCH   1  15
ATOM     14  O   UNL     1       1.172   2.820  22.046  0.00  0.00    +0.000 OA
ATOM     15  C   UNL     1       2.291   2.933  21.565  0.00  0.00    +0.000 C 
BRANCH  15  16
ATOM     16  O   UNL     1       3.325   2.158  21.956  0.00  0.00    +0.000 OA
ATOM     17  H   UNL     1       3.124   1.192  21.960  0.00  0.00    +0.000 HD
ENDBRANCH  15  16
ENDBRANCH   1  15
BRANCH   3  18
ATOM     18  C   UNL     1       1.698   7.588  20.050  0.00  0.00    +0.000 C 
BRANCH  18  19
ATOM     19  C   UNL     1       1.065   7.802  21.451  0.00  0.00    +0.000 C 
BRANCH  19  20
ATOM     20  O   UNL     1       1.954   8.532  22.309  0.00  0.00    +0.000 OA
ATOM     21  H   UNL     1       2.804   8.063  22.381  0.00  0.00    +0.000 HD
ENDBRANCH  19  20
BRANCH  19  22
ATOM     22  C   UNL     1      -0.252   8.580  21.340  0.00  0.00    +0.000 C 
BRANCH  22  23
ATOM     23  N   UNL     1      -0.060   9.902  20.762  0.00  0.00    +0.000 N 
ATOM     24  C   UNL     1      -0.265  10.230  19.449  0.00  0.00    +0.000 A 
ATOM     25  N   UNL     1      -0.045  11.507  19.228  0.00  0.00    +0.000 NA
ATOM     26  C   UNL     1       0.344  12.016  20.450  0.00  0.00    +0.000 A 
ATOM     27  C   UNL     1       0.336  11.032  21.422  0.00  0.00    +0.000 A 
BRANCH  26  28
ATOM     28  N   UNL     1       0.687  13.412  20.612  0.00  0.00    +0.000 N 
ATOM     29  O   UNL     1       1.287  13.713  21.654  0.00  0.00    +0.000 OA
ATOM     30  O   UNL     1       0.356  14.202  19.717  0.00  0.00    +0.000 OA
ENDBRANCH  26  28
ENDBRANCH  22  23
ENDBRANCH  19  22
ENDBRANCH  18  19
ENDBRANCH   3  18
TORSDOF 8
ENDMDL
MODEL 7
REMARK VINA RESULT:      -7.0      4.194      7.977
REMARK  Name = 
REMARK  8 active torsions:
REMARK  status: ('A' for Active; 'I' for Inactive)
REMARK    1  A    between atoms: C_2  and  O_3
REMARK    2  A    between atoms: C_2  and  C_4
REMARK    3  A    between atoms: N_6  and  C_7
REMARK    4  A    between atoms: C_7  and  C_8
REMARK    5  A    between atoms: C_8  and  O_9
REMARK    6  A    between atoms: C_8  and  C_10
REMARK    7  A    between atoms: C_10  and  N_11
REMARK    8  A    between atoms: C_14  and  N_15
REMARK                            x       y       z     vdW  Elec       q    Type
REMARK                         _______ _______ _______ _____ _____    ______ ____
ROOT
ATOM      1  C   UNL     1       2.367   4.104  20.395  0.00  0.00    +0.000 A 
ATOM      2  C   UNL     1       1.942   5.370  20.465  0.00  0.00    +0.000 A 
ATOM      3  N   UNL     1       2.329   6.450  19.673  0.00  0.00    +0.000 N 
ATOM      4  C   UNL     1       3.218   6.209  18.572  0.00  0.00    +0.000 A 
ATOM      5  C   UNL     1       3.695   7.148  17.615  0.00  0.00    +0.000 A 
ATOM      6 CL   UNL     1       3.333   8.844  17.576  0.00  0.00    +0.000 Cl
ATOM      7  C   UNL     1       4.550   6.761  16.560  0.00  0.00    +0.000 A 
ATOM      8  C   UNL     1       4.954   5.444  16.413  0.00  0.00    +0.000 A 
ATOM      9 CL   UNL     1       5.982   4.997  15.112  0.00  0.00    +0.000 Cl
ATOM     10  C   UNL     1       4.533   4.496  17.322  0.00  0.00    +0.000 A 
ATOM     11  C   UNL     1       3.693   4.876  18.385  0.00  0.00    +0.000 A 
ATOM     12  C   UNL     1       3.338   3.802  19.344  0.00  0.00    +0.000 A 
ATOM     13  O   UNL     1       3.846   2.684  19.285  0.00  0.00    +0.000 OA
ENDROOT
BRANCH   1  15
ATOM     14  O   UNL     1       2.575   2.713  22.316  0.00  0.00    +0.000 OA
ATOM     15  C   UNL     1       1.889   3.121  21.389  0.00  0.00    +0.000 C 
BRANCH  15  16
ATOM     16  O   UNL     1       0.634   2.674  21.169  0.00  0.00    +0.000 OA
ATOM     17  H   UNL     1       0.227   3.012  20.336  0.00  0.00    +0.000 HD
ENDBRANCH  15  16
ENDBRANCH   1  15
BRANCH   3  18
ATOM     18  C   UNL     1       1.863   7.839  19.956  0.00  0.00    +0.000 C 
BRANCH  18  19
ATOM     19  C   UNL     1       1.100   8.067  21.288  0.00  0.00    +0.000 C 
BRANCH  19  20
ATOM     20  O   UNL     1       1.937   8.717  22.256  0.00  0.00    +0.000 OA
ATOM     21  H   UNL     1       2.448   9.426  21.827  0.00  0.00    +0.000 HD
ENDBRANCH  19  20
BRANCH  19  22
ATOM     22  C   UNL     1      -0.145   8.934  21.060  0.00  0.00    +0.000 C 
BRANCH  22  23
ATOM     23  N   UNL     1       0.175  10.353  21.027  0.00  0.00    +0.000 N 
ATOM     24  C   UNL     1      -0.149  11.262  21.999  0.00  0.00    +0.000 A 
ATOM     25  N   UNL     1       0.302  12.462  21.709  0.00  0.00    +0.000 NA
ATOM     26  C   UNL     1       0.921  12.323  20.486  0.00  0.00    +0.000 A 
ATOM     27  C   UNL     1       0.858  11.014  20.044  0.00  0.00    +0.000 A 
BRANCH  26  28
ATOM     28  N   UNL     1       1.544  13.448  19.821  0.00  0.00    +0.000 N 
ATOM     29  O   UNL     1       0.883  13.989  18.923  0.00  0.00    +0.000 OA
ATOM     30  O   UNL     1       2.680  13.783  20.183  0.00  0.00    +0.000 OA
ENDBRANCH  26  28
ENDBRANCH  22  23
ENDBRANCH  19  22
ENDBRANCH  18  19
ENDBRANCH   3  18
TORSDOF 8
ENDMDL
MODEL 8
REMARK VINA RESULT:      -6.9      2.826      6.719
REMARK  Name = 
REMARK  8 active torsions:
REMARK  status: ('A' for Active; 'I' for Inactive)
REMARK    1  A    between atoms: C_2  and  O_3
REMARK    2  A    between atoms: C_2  and  C_4
REMARK    3  A    between atoms: N_6  and  C_7
REMARK    4  A    between atoms: C_7  and  C_8
REMARK    5  A    between atoms: C_8  and  O_9
REMARK    6  A    between atoms: C_8  and  C_10
REMARK    7  A    between atoms: C_10  and  N_11
REMARK    8  A    between atoms: C_14  and  N_15
REMARK                            x       y       z     vdW  Elec       q    Type
REMARK                         _______ _______ _______ _____ _____    ______ ____
ROOT
ATOM      1  C   UNL     1       5.820   4.080  14.440  0.00  0.00    +0.000 A 
ATOM      2  C   UNL     1       5.055   3.454  15.340  0.00  0.00    +0.000 A 
ATOM      3  N   UNL     1       5.059   3.607  16.726  0.00  0.00    +0.000 N 
ATOM      4  C   UNL     1       5.903   4.616  17.301  0.00  0.00    +0.000 A 
ATOM      5  C   UNL     1       6.022   4.975  18.673  0.00  0.00    +0.000 A 
ATOM      6 CL   UNL     1       5.186   4.235  20.001  0.00  0.00    +0.000 Cl
ATOM      7  C   UNL     1       6.877   6.016  19.095  0.00  0.00    +0.000 A 
ATOM      8  C   UNL     1       7.632   6.736  18.183  0.00  0.00    +0.000 A 
ATOM      9 CL   UNL     1       8.652   8.008  18.721  0.00  0.00    +0.000 Cl
ATOM     10  C   UNL     1       7.564   6.420  16.842  0.00  0.00    +0.000 A 
ATOM     11  C   UNL     1       6.727   5.374  16.414  0.00  0.00    +0.000 A 
ATOM     12  C   UNL     1       6.762   5.069  14.964  0.00  0.00    +0.000 A 
ATOM     13  O   UNL     1       7.565   5.609  14.206  0.00  0.00    +0.000 OA
ENDROOT
BRANCH   1  15
ATOM     14  O   UNL     1       4.663   3.396  12.476  0.00  0.00    +0.000 OA
ATOM     15  C   UNL     1       5.715   3.711  13.013  0.00  0.00    +0.000 C 
BRANCH  15  16
ATOM     16  O   UNL     1       6.891   3.712  12.350  0.00  0.00    +0.000 OA
ATOM     17  H   UNL     1       7.556   3.077  12.710  0.00  0.00    +0.000 HD
ENDBRANCH  15  16
ENDBRANCH   1  15
BRANCH   3  18
ATOM     18  C   UNL     1       4.235   2.738  17.615  0.00  0.00    +0.000 C 
BRANCH  18  19
ATOM     19  C   UNL     1       2.699   2.957  17.584  0.00  0.00    +0.000 C 
BRANCH  19  20
ATOM     20  O   UNL     1       2.013   1.738  17.263  0.00  0.00    +0.000 OA
ATOM     21  H   UNL     1       1.489   1.442  18.028  0.00  0.00    +0.000 HD
ENDBRANCH  19  20
BRANCH  19  22
ATOM     22  C   UNL     1       2.193   3.457  18.943  0.00  0.00    +0.000 C 
BRANCH  22  23
ATOM     23  N   UNL     1       2.170   4.910  19.019  0.00  0.00    +0.000 N 
ATOM     24  C   UNL     1       2.100   5.643  20.174  0.00  0.00    +0.000 A 
ATOM     25  N   UNL     1       2.131   6.934  19.931  0.00  0.00    +0.000 NA
ATOM     26  C   UNL     1       2.200   7.034  18.557  0.00  0.00    +0.000 A 
ATOM     27  C   UNL     1       2.230   5.783  17.969  0.00  0.00    +0.000 A 
BRANCH  26  28
ATOM     28  N   UNL     1       2.242   8.321  17.895  0.00  0.00    +0.000 N 
ATOM     29  O   UNL     1       3.221   8.530  17.164  0.00  0.00    +0.000 OA
ATOM     30  O   UNL     1       1.317   9.116  18.107  0.00  0.00    +0.000 OA
ENDBRANCH  26  28
ENDBRANCH  22  23
ENDBRANCH  19  22
ENDBRANCH  18  19
ENDBRANCH   3  18
TORSDOF 8
ENDMDL
MODEL 9
REMARK VINA RESULT:      -6.9      4.621      8.668
REMARK  Name = 
REMARK  8 active torsions:
REMARK  status: ('A' for Active; 'I' for Inactive)
REMARK    1  A    between atoms: C_2  and  O_3
REMARK    2  A    between atoms: C_2  and  C_4
REMARK    3  A    between atoms: N_6  and  C_7
REMARK    4  A    between atoms: C_7  and  C_8
REMARK    5  A    between atoms: C_8  and  O_9
REMARK    6  A    between atoms: C_8  and  C_10
REMARK    7  A    between atoms: C_10  and  N_11
REMARK    8  A    between atoms: C_14  and  N_15
REMARK                            x       y       z     vdW  Elec       q    Type
REMARK                         _______ _______ _______ _____ _____    ______ ____
ROOT
ATOM      1  C   UNL     1       2.463   3.839  20.307  0.00  0.00    +0.000 A 
ATOM      2  C   UNL     1       2.217   5.153  20.274  0.00  0.00    +0.000 A 
ATOM      3  N   UNL     1       2.737   6.102  19.395  0.00  0.00    +0.000 N 
ATOM      4  C   UNL     1       3.570   5.652  18.315  0.00  0.00    +0.000 A 
ATOM      5  C   UNL     1       4.158   6.435  17.283  0.00  0.00    +0.000 A 
ATOM      6 CL   UNL     1       4.031   8.157  17.105  0.00  0.00    +0.000 Cl
ATOM      7  C   UNL     1       4.937   5.850  16.261  0.00  0.00    +0.000 A 
ATOM      8  C   UNL     1       5.154   4.483  16.221  0.00  0.00    +0.000 A 
ATOM      9 CL   UNL     1       6.092   3.794  14.959  0.00  0.00    +0.000 Cl
ATOM     10  C   UNL     1       4.619   3.679  17.206  0.00  0.00    +0.000 A 
ATOM     11  C   UNL     1       3.855   4.255  18.237  0.00  0.00    +0.000 A 
ATOM     12  C   UNL     1       3.368   3.322  19.281  0.00  0.00    +0.000 A 
ATOM     13  O   UNL     1       3.718   2.144  19.313  0.00  0.00    +0.000 OA
ENDROOT
BRANCH   1  15
ATOM     14  O   UNL     1       2.511   2.565  22.317  0.00  0.00    +0.000 OA
ATOM     15  C   UNL     1       1.868   3.015  21.379  0.00  0.00    +0.000 C 
BRANCH  15  16
ATOM     16  O   UNL     1       0.551   2.762  21.220  0.00  0.00    +0.000 OA
ATOM     17  H   UNL     1       0.117   2.377  22.019  0.00  0.00    +0.000 HD
ENDBRANCH  15  16
ENDBRANCH   1  15
BRANCH   3  18
ATOM     18  C   UNL     1       2.471   7.560  19.564  0.00  0.00    +0.000 C 
BRANCH  18  19
ATOM     19  C   UNL     1       1.384   7.960  20.597  0.00  0.00    +0.000 C 
BRANCH  19  20
ATOM     20  O   UNL     1       1.979   8.359  21.840  0.00  0.00    +0.000 OA
ATOM     21  H   UNL     1       2.013   9.330  21.894  0.00  0.00    +0.000 HD
ENDBRANCH  19  20
BRANCH  19  22
ATOM     22  C   UNL     1       0.534   9.124  20.069  0.00  0.00    +0.000 C 
BRANCH  22  23
ATOM     23  N   UNL     1      -0.044   9.913  21.147  0.00  0.00    +0.000 N 
ATOM     24  C   UNL     1      -0.616   9.405  22.283  0.00  0.00    +0.000 A 
ATOM     25  N   UNL     1      -1.020  10.361  23.090  0.00  0.00    +0.000 NA
ATOM     26  C   UNL     1      -0.716  11.533  22.431  0.00  0.00    +0.000 A 
ATOM     27  C   UNL     1      -0.102  11.277  21.219  0.00  0.00    +0.000 A 
BRANCH  26  28
ATOM     28  N   UNL     1      -1.023  12.825  23.008  0.00  0.00    +0.000 N 
ATOM     29  O   UNL     1      -0.149  13.697  22.898  0.00  0.00    +0.000 OA
ATOM     30  O   UNL     1      -2.117  12.967  23.571  0.00  0.00    +0.000 OA
ENDBRANCH  26  28
ENDBRANCH  22  23
ENDBRANCH  19  22
ENDBRANCH  18  19
ENDBRANCH   3  18
TORSDOF 8
ENDMDL
