MODEL 1
REMARK VINA RESULT:      -6.6      0.000      0.000
REMARK  Name = 
REMARK  6 active torsions:
REMARK  status: ('A' for Active; 'I' for Inactive)
REMARK    1  A    between atoms: C_1  and  O_2
REMARK    2  A    between atoms: O_2  and  C_3
REMARK    3  A    between atoms: C_9  and  S_10
REMARK    4  A    between atoms: S_10  and  C_11
REMARK    5  A    between atoms: C_14  and  C_15
REMARK    6  A    between atoms: N_23  and  C_24
REMARK                            x       y       z     vdW  Elec       q    Type
REMARK                         _______ _______ _______ _____ _____    ______ ____
ROOT
ATOM      1  C   UNL     1      -2.790  10.307  16.662  0.00  0.00    +0.000 A 
ATOM      2  C   UNL     1      -1.653  10.650  17.368  0.00  0.00    +0.000 A 
ATOM      3  C   UNL     1      -1.737  11.507  18.467  0.00  0.00    +0.000 A 
ATOM      4  C   UNL     1      -2.996  11.969  18.915  0.00  0.00    +0.000 A 
ATOM      5  C   UNL     1      -4.146  11.699  18.168  0.00  0.00    +0.000 A 
ATOM      6  C   UNL     1      -4.020  10.865  17.028  0.00  0.00    +0.000 A 
ATOM      7  C   UNL     1      -5.218  12.399  18.797  0.00  0.00    +0.000 A 
ATOM      8  C   UNL     1      -4.735  13.041  19.945  0.00  0.00    +0.000 A 
ATOM      9  N   UNL     1      -3.358  12.751  20.029  0.00  0.00    +0.000 N 
ENDROOT
BRANCH   8  10
ATOM     10  C   UNL     1      -5.492  13.710  21.004  0.00  0.00    +0.000 C 
ATOM     11  O   UNL     1      -5.453  14.933  21.112  0.00  0.00    +0.000 OA
ATOM     12  N   UNL     1      -6.146  12.905  21.903  0.00  0.00    +0.000 N 
ATOM     13  C   UNL     1      -6.816  13.409  22.991  0.00  0.00    +0.000 A 
ATOM     14  N   UNL     1      -7.308  14.682  23.089  0.00  0.00    +0.000 NA
ATOM     15  N   UNL     1      -7.865  14.786  24.288  0.00  0.00    +0.000 NA
ATOM     16  N   UNL     1      -7.648  13.598  24.860  0.00  0.00    +0.000 N 
ATOM     17  N   UNL     1      -7.044  12.678  24.090  0.00  0.00    +0.000 NA
ATOM     18  H   UNL     1      -6.015  11.897  21.933  0.00  0.00    +0.000 HD
ATOM     19  H   UNL     1      -7.913  13.418  25.825  0.00  0.00    +0.000 HD
ENDBRANCH   8  10
BRANCH   9  20
ATOM     20  C   UNL     1      -2.424  13.169  21.053  0.00  0.00    +0.000 A 
ATOM     21  C   UNL     1      -1.729  14.384  20.920  0.00  0.00    +0.000 A 
ATOM     22  C   UNL     1      -0.889  14.857  21.934  0.00  0.00    +0.000 A 
ATOM     23  C   UNL     1      -0.674  14.088  23.069  0.00  0.00    +0.000 A 
ATOM     24  C   UNL     1      -1.308  12.853  23.191  0.00  0.00    +0.000 A 
ATOM     25  C   UNL     1      -2.193  12.402  22.201  0.00  0.00    +0.000 A 
ENDBRANCH   9  20
BRANCH   7  26
ATOM     26  S   UNL     1      -6.868  12.387  18.229  0.00  0.00    +0.000 S 
ATOM     27  C   UNL     1      -6.862  13.249  16.688  0.00  0.00    +0.000 C 
ATOM     28  O   UNL     1      -7.117  10.976  17.989  0.00  0.00    +0.000 OA
ATOM     29  O   UNL     1      -7.654  13.139  19.174  0.00  0.00    +0.000 OA
ENDBRANCH   7  26
BRANCH   1  31
ATOM     30  C   UNL     1      -3.490  10.023  14.423  0.00  0.00    +0.000 C 
ATOM     31  O   UNL     1      -2.814   9.495  15.561  0.00  0.00    +0.000 OA
ENDBRANCH   1  31
TORSDOF 4
ENDMDL
MODEL 2
REMARK VINA RESULT:      -6.6      3.307      5.138
REMARK  Name = 
REMARK  6 active torsions:
REMARK  status: ('A' for Active; 'I' for Inactive)
REMARK    1  A    between atoms: C_1  and  O_2
REMARK    2  A    between atoms: O_2  and  C_3
REMARK    3  A    between atoms: C_9  and  S_10
REMARK    4  A    between atoms: S_10  and  C_11
REMARK    5  A    between atoms: C_14  and  C_15
REMARK    6  A    between atoms: N_23  and  C_24
REMARK                            x       y       z     vdW  Elec       q    Type
REMARK                         _______ _______ _______ _____ _____    ______ ____
ROOT
ATOM      1  C   UNL     1      -2.944  10.876  16.166  0.00  0.00    +0.000 A 
ATOM      2  C   UNL     1      -4.262  11.170  16.460  0.00  0.00    +0.000 A 
ATOM      3  C   UNL     1      -4.611  11.663  17.719  0.00  0.00    +0.000 A 
ATOM      4  C   UNL     1      -3.608  11.940  18.677  0.00  0.00    +0.000 A 
ATOM      5  C   UNL     1      -2.282  11.574  18.428  0.00  0.00    +0.000 A 
ATOM      6  C   UNL     1      -1.969  11.030  17.157  0.00  0.00    +0.000 A 
ATOM      7  C   UNL     1      -1.548  11.860  19.618  0.00  0.00    +0.000 A 
ATOM      8  C   UNL     1      -2.407  12.444  20.558  0.00  0.00    +0.000 A 
ATOM      9  N   UNL     1      -3.682  12.516  19.961  0.00  0.00    +0.000 N 
ENDROOT
BRANCH   8  10
ATOM     10  C   UNL     1      -2.069  13.075  21.834  0.00  0.00    +0.000 C 
ATOM     11  O   UNL     1      -2.449  12.574  22.889  0.00  0.00    +0.000 OA
ATOM     12  N   UNL     1      -1.410  14.278  21.777  0.00  0.00    +0.000 N 
ATOM     13  C   UNL     1      -1.116  15.010  22.902  0.00  0.00    +0.000 A 
ATOM     14  N   UNL     1      -1.006  14.498  24.166  0.00  0.00    +0.000 NA
ATOM     15  N   UNL     1      -0.735  15.516  24.970  0.00  0.00    +0.000 NA
ATOM     16  N   UNL     1      -0.735  16.584  24.166  0.00  0.00    +0.000 N 
ATOM     17  N   UNL     1      -0.917  16.334  22.858  0.00  0.00    +0.000 NA
ATOM     18  H   UNL     1      -1.274  14.787  20.909  0.00  0.00    +0.000 HD
ATOM     19  H   UNL     1      -0.622  17.525  24.534  0.00  0.00    +0.000 HD
ENDBRANCH   8  10
BRANCH   9  20
ATOM     20  C   UNL     1      -4.897  13.062  20.526  0.00  0.00    +0.000 A 
ATOM     21  C   UNL     1      -5.831  12.212  21.147  0.00  0.00    +0.000 A 
ATOM     22  C   UNL     1      -6.969  12.721  21.780  0.00  0.00    +0.000 A 
ATOM     23  C   UNL     1      -7.230  14.084  21.744  0.00  0.00    +0.000 A 
ATOM     24  C   UNL     1      -6.347  14.934  21.083  0.00  0.00    +0.000 A 
ATOM     25  C   UNL     1      -5.177  14.433  20.493  0.00  0.00    +0.000 A 
ENDBRANCH   9  20
BRANCH   7  26
ATOM     26  S   UNL     1       0.161  11.565  19.811  0.00  0.00    +0.000 S 
ATOM     27  C   UNL     1       0.378   9.820  19.661  0.00  0.00    +0.000 C 
ATOM     28  O   UNL     1       0.737  12.224  18.651  0.00  0.00    +0.000 OA
ATOM     29  O   UNL     1       0.516  11.959  21.151  0.00  0.00    +0.000 OA
ENDBRANCH   7  26
BRANCH   1  31
ATOM     30  C   UNL     1      -3.516  10.064  14.022  0.00  0.00    +0.000 C 
ATOM     31  O   UNL     1      -2.501  10.370  14.975  0.00  0.00    +0.000 OA
ENDBRANCH   1  31
TORSDOF 4
ENDMDL
MODEL 3
REMARK VINA RESULT:      -6.6      4.329      6.915
REMARK  Name = 
REMARK  6 active torsions:
REMARK  status: ('A' for Active; 'I' for Inactive)
REMARK    1  A    between atoms: C_1  and  O_2
REMARK    2  A    between atoms: O_2  and  C_3
REMARK    3  A    between atoms: C_9  and  S_10
REMARK    4  A    between atoms: S_10  and  C_11
REMARK    5  A    between atoms: C_14  and  C_15
REMARK    6  A    between atoms: N_23  and  C_24
REMARK                            x       y       z     vdW  Elec       q    Type
REMARK                         _______ _______ _______ _____ _____    ______ ____
ROOT
ATOM      1  C   UNL     1      -4.456  10.929  18.137  0.00  0.00    +0.000 A 
ATOM      2  C   UNL     1      -3.704   9.870  17.665  0.00  0.00    +0.000 A 
ATOM      3  C   UNL     1      -2.333   9.809  17.922  0.00  0.00    +0.000 A 
ATOM      4  C   UNL     1      -1.717  10.788  18.736  0.00  0.00    +0.000 A 
ATOM      5  C   UNL     1      -2.443  11.907  19.153  0.00  0.00    +0.000 A 
ATOM      6  C   UNL     1      -3.823  11.964  18.834  0.00  0.00    +0.000 A 
ATOM      7  C   UNL     1      -1.524  12.761  19.833  0.00  0.00    +0.000 A 
ATOM      8  C   UNL     1      -0.268  12.143  19.876  0.00  0.00    +0.000 A 
ATOM      9  N   UNL     1      -0.397  10.905  19.214  0.00  0.00    +0.000 N 
ENDROOT
BRANCH   8  10
ATOM     10  C   UNL     1       0.921  12.544  20.628  0.00  0.00    +0.000 C 
ATOM     11  O   UNL     1       1.217  11.966  21.671  0.00  0.00    +0.000 OA
ATOM     12  N   UNL     1       1.608  13.639  20.164  0.00  0.00    +0.000 N 
ATOM     13  C   UNL     1       2.688  14.167  20.830  0.00  0.00    +0.000 A 
ATOM     14  N   UNL     1       3.479  13.480  21.711  0.00  0.00    +0.000 NA
ATOM     15  N   UNL     1       4.392  14.335  22.152  0.00  0.00    +0.000 NA
ATOM     16  N   UNL     1       4.085  15.489  21.552  0.00  0.00    +0.000 N 
ATOM     17  N   UNL     1       3.064  15.443  20.679  0.00  0.00    +0.000 NA
ATOM     18  H   UNL     1       1.253  14.235  19.422  0.00  0.00    +0.000 HD
ATOM     19  H   UNL     1       4.587  16.347  21.765  0.00  0.00    +0.000 HD
ENDBRANCH   8  10
BRANCH   9  20
ATOM     20  C   UNL     1       0.619   9.894  19.018  0.00  0.00    +0.000 A 
ATOM     21  C   UNL     1       0.890   8.958  20.032  0.00  0.00    +0.000 A 
ATOM     22  C   UNL     1       1.802   7.917  19.837  0.00  0.00    +0.000 A 
ATOM     23  C   UNL     1       2.513   7.833  18.648  0.00  0.00    +0.000 A 
ATOM     24  C   UNL     1       2.302   8.786  17.654  0.00  0.00    +0.000 A 
ATOM     25  C   UNL     1       1.348   9.800  17.826  0.00  0.00    +0.000 A 
ENDBRANCH   9  20
BRANCH   7  26
ATOM     26  S   UNL     1      -1.951  14.301  20.536  0.00  0.00    +0.000 S 
ATOM     27  C   UNL     1      -1.413  14.239  22.216  0.00  0.00    +0.000 C 
ATOM     28  O   UNL     1      -1.117  15.236  19.798  0.00  0.00    +0.000 OA
ATOM     29  O   UNL     1      -3.388  14.400  20.516  0.00  0.00    +0.000 OA
ENDBRANCH   7  26
BRANCH   1  31
ATOM     30  C   UNL     1      -6.652  10.503  18.898  0.00  0.00    +0.000 C 
ATOM     31  O   UNL     1      -5.797  11.094  17.922  0.00  0.00    +0.000 OA
ENDBRANCH   1  31
TORSDOF 4
ENDMDL
MODEL 4
REMARK VINA RESULT:      -6.6      3.288      5.036
REMARK  Name = 
REMARK  6 active torsions:
REMARK  status: ('A' for Active; 'I' for Inactive)
REMARK    1  A    between atoms: C_1  and  O_2
REMARK    2  A    between atoms: O_2  and  C_3
REMARK    3  A    between atoms: C_9  and  S_10
REMARK    4  A    between atoms: S_10  and  C_11
REMARK    5  A    between atoms: C_14  and  C_15
REMARK    6  A    between atoms: N_23  and  C_24
REMARK                            x       y       z     vdW  Elec       q    Type
REMARK                         _______ _______ _______ _____ _____    ______ ____
ROOT
ATOM      1  C   UNL     1      -3.095  10.848  16.089  0.00  0.00    +0.000 A 
ATOM      2  C   UNL     1      -4.403  11.177  16.385  0.00  0.00    +0.000 A 
ATOM      3  C   UNL     1      -4.741  11.655  17.653  0.00  0.00    +0.000 A 
ATOM      4  C   UNL     1      -3.733  11.882  18.619  0.00  0.00    +0.000 A 
ATOM      5  C   UNL     1      -2.418  11.481  18.366  0.00  0.00    +0.000 A 
ATOM      6  C   UNL     1      -2.118  10.953  17.085  0.00  0.00    +0.000 A 
ATOM      7  C   UNL     1      -1.680  11.720  19.562  0.00  0.00    +0.000 A 
ATOM      8  C   UNL     1      -2.523  12.312  20.512  0.00  0.00    +0.000 A 
ATOM      9  N   UNL     1      -3.793  12.434  19.914  0.00  0.00    +0.000 N 
ENDROOT
BRANCH   8  10
ATOM     10  C   UNL     1      -2.170  12.906  21.801  0.00  0.00    +0.000 C 
ATOM     11  O   UNL     1      -2.543  12.380  22.847  0.00  0.00    +0.000 OA
ATOM     12  N   UNL     1      -1.504  14.106  21.770  0.00  0.00    +0.000 N 
ATOM     13  C   UNL     1      -1.195  14.807  22.911  0.00  0.00    +0.000 A 
ATOM     14  N   UNL     1      -1.077  14.261  24.160  0.00  0.00    +0.000 NA
ATOM     15  N   UNL     1      -0.793  15.256  24.988  0.00  0.00    +0.000 NA
ATOM     16  N   UNL     1      -0.793  16.345  24.213  0.00  0.00    +0.000 N 
ATOM     17  N   UNL     1      -0.989  16.130  22.901  0.00  0.00    +0.000 NA
ATOM     18  H   UNL     1      -1.372  14.638  20.914  0.00  0.00    +0.000 HD
ATOM     19  H   UNL     1      -0.671  17.275  24.605  0.00  0.00    +0.000 HD
ENDBRANCH   8  10
BRANCH   9  20
ATOM     20  C   UNL     1      -4.992  13.005  20.487  0.00  0.00    +0.000 A 
ATOM     21  C   UNL     1      -5.210  14.394  20.430  0.00  0.00    +0.000 A 
ATOM     22  C   UNL     1      -6.399  14.964  20.895  0.00  0.00    +0.000 A 
ATOM     23  C   UNL     1      -7.364  14.164  21.491  0.00  0.00    +0.000 A 
ATOM     24  C   UNL     1      -7.140  12.794  21.610  0.00  0.00    +0.000 A 
ATOM     25  C   UNL     1      -5.972  12.212  21.096  0.00  0.00    +0.000 A 
ENDBRANCH   9  20
BRANCH   7  26
ATOM     26  S   UNL     1       0.020  11.370  19.754  0.00  0.00    +0.000 S 
ATOM     27  C   UNL     1       0.152  10.358  21.195  0.00  0.00    +0.000 C 
ATOM     28  O   UNL     1       0.321  10.573  18.577  0.00  0.00    +0.000 OA
ATOM     29  O   UNL     1       0.690  12.620  20.006  0.00  0.00    +0.000 OA
ENDBRANCH   7  26
BRANCH   1  31
ATOM     30  C   UNL     1      -3.691  10.006  13.963  0.00  0.00    +0.000 C 
ATOM     31  O   UNL     1      -2.664  10.353  14.889  0.00  0.00    +0.000 OA
ENDBRANCH   1  31
TORSDOF 4
ENDMDL
MODEL 5
REMARK VINA RESULT:      -6.5      3.797      5.932
REMARK  Name = 
REMARK  6 active torsions:
REMARK  status: ('A' for Active; 'I' for Inactive)
REMARK    1  A    between atoms: C_1  and  O_2
REMARK    2  A    between atoms: O_2  and  C_3
REMARK    3  A    between atoms: C_9  and  S_10
REMARK    4  A    between atoms: S_10  and  C_11
REMARK    5  A    between atoms: C_14  and  C_15
REMARK    6  A    between atoms: N_23  and  C_24
REMARK                            x       y       z     vdW  Elec       q    Type
REMARK                         _______ _______ _______ _____ _____    ______ ____
ROOT
ATOM      1  C   UNL     1       2.886  14.370  19.228  0.00  0.00    +0.000 A 
ATOM      2  C   UNL     1       2.494  13.380  18.348  0.00  0.00    +0.000 A 
ATOM      3  C   UNL     1       1.269  12.730  18.517  0.00  0.00    +0.000 A 
ATOM      4  C   UNL     1       0.385  13.135  19.543  0.00  0.00    +0.000 A 
ATOM      5  C   UNL     1       0.797  14.077  20.490  0.00  0.00    +0.000 A 
ATOM      6  C   UNL     1       2.067  14.683  20.318  0.00  0.00    +0.000 A 
ATOM      7  C   UNL     1      -0.250  14.173  21.455  0.00  0.00    +0.000 A 
ATOM      8  C   UNL     1      -1.309  13.342  21.067  0.00  0.00    +0.000 A 
ATOM      9  N   UNL     1      -0.921  12.716  19.865  0.00  0.00    +0.000 N 
ENDROOT
BRANCH   8  10
ATOM     10  C   UNL     1      -2.656  13.258  21.631  0.00  0.00    +0.000 C 
ATOM     11  O   UNL     1      -3.556  13.967  21.187  0.00  0.00    +0.000 OA
ATOM     12  N   UNL     1      -2.824  12.439  22.720  0.00  0.00    +0.000 N 
ATOM     13  C   UNL     1      -4.019  12.342  23.392  0.00  0.00    +0.000 A 
ATOM     14  N   UNL     1      -5.245  12.639  22.861  0.00  0.00    +0.000 NA
ATOM     15  N   UNL     1      -6.136  12.440  23.821  0.00  0.00    +0.000 NA
ATOM     16  N   UNL     1      -5.408  12.077  24.881  0.00  0.00    +0.000 N 
ATOM     17  N   UNL     1      -4.088  11.949  24.670  0.00  0.00    +0.000 NA
ATOM     18  H   UNL     1      -2.043  12.010  23.208  0.00  0.00    +0.000 HD
ATOM     19  H   UNL     1      -5.836  11.926  25.791  0.00  0.00    +0.000 HD
ENDBRANCH   8  10
BRANCH   9  20
ATOM     20  C   UNL     1      -1.685  11.785  19.064  0.00  0.00    +0.000 A 
ATOM     21  C   UNL     1      -2.899  12.188  18.478  0.00  0.00    +0.000 A 
ATOM     22  C   UNL     1      -3.612  11.339  17.626  0.00  0.00    +0.000 A 
ATOM     23  C   UNL     1      -3.162  10.046  17.400  0.00  0.00    +0.000 A 
ATOM     24  C   UNL     1      -1.993   9.609  18.019  0.00  0.00    +0.000 A 
ATOM     25  C   UNL     1      -1.246  10.476  18.831  0.00  0.00    +0.000 A 
ENDBRANCH   9  20
BRANCH   7  26
ATOM     26  S   UNL     1      -0.204  15.218  22.853  0.00  0.00    +0.000 S 
ATOM     27  C   UNL     1      -1.244  16.593  22.472  0.00  0.00    +0.000 C 
ATOM     28  O   UNL     1      -0.834  14.408  23.882  0.00  0.00    +0.000 OA
ATOM     29  O   UNL     1       1.150  15.690  22.993  0.00  0.00    +0.000 OA
ENDBRANCH   7  26
BRANCH   1  31
ATOM     30  C   UNL     1       4.629  15.191  17.860  0.00  0.00    +0.000 C 
ATOM     31  O   UNL     1       4.071  15.050  19.164  0.00  0.00    +0.000 OA
ENDBRANCH   1  31
TORSDOF 4
ENDMDL
MODEL 6
REMARK VINA RESULT:      -6.3      3.531      7.138
REMARK  Name = 
REMARK  6 active torsions:
REMARK  status: ('A' for Active; 'I' for Inactive)
REMARK    1  A    between atoms: C_1  and  O_2
REMARK    2  A    between atoms: O_2  and  C_3
REMARK    3  A    between atoms: C_9  and  S_10
REMARK    4  A    between atoms: S_10  and  C_11
REMARK    5  A    between atoms: C_14  and  C_15
REMARK    6  A    between atoms: N_23  and  C_24
REMARK                            x       y       z     vdW  Elec       q    Type
REMARK                         _______ _______ _______ _____ _____    ______ ____
ROOT
ATOM      1  C   UNL     1      -6.948  12.473  22.137  0.00  0.00    +0.000 A 
ATOM      2  C   UNL     1      -7.099  11.750  20.969  0.00  0.00    +0.000 A 
ATOM      3  C   UNL     1      -6.059  11.686  20.040  0.00  0.00    +0.000 A 
ATOM      4  C   UNL     1      -4.814  12.294  20.322  0.00  0.00    +0.000 A 
ATOM      5  C   UNL     1      -4.669  13.095  21.458  0.00  0.00    +0.000 A 
ATOM      6  C   UNL     1      -5.761  13.180  22.358  0.00  0.00    +0.000 A 
ATOM      7  C   UNL     1      -3.362  13.664  21.394  0.00  0.00    +0.000 A 
ATOM      8  C   UNL     1      -2.702  13.170  20.262  0.00  0.00    +0.000 A 
ATOM      9  N   UNL     1      -3.598  12.299  19.611  0.00  0.00    +0.000 N 
ENDROOT
BRANCH   8  10
ATOM     10  C   UNL     1      -1.294  13.316  19.891  0.00  0.00    +0.000 C 
ATOM     11  O   UNL     1      -0.472  12.474  20.245  0.00  0.00    +0.000 OA
ATOM     12  N   UNL     1      -0.942  14.467  19.231  0.00  0.00    +0.000 N 
ATOM     13  C   UNL     1       0.361  14.761  18.907  0.00  0.00    +0.000 A 
ATOM     14  N   UNL     1       1.362  13.839  18.766  0.00  0.00    +0.000 NA
ATOM     15  N   UNL     1       2.465  14.513  18.473  0.00  0.00    +0.000 NA
ATOM     16  N   UNL     1       2.087  15.795  18.492  0.00  0.00    +0.000 N 
ATOM     17  N   UNL     1       0.779  16.018  18.707  0.00  0.00    +0.000 NA
ATOM     18  H   UNL     1      -1.580  15.249  19.116  0.00  0.00    +0.000 HD
ATOM     19  H   UNL     1       2.758  16.548  18.367  0.00  0.00    +0.000 HD
ENDBRANCH   8  10
BRANCH   9  20
ATOM     20  C   UNL     1      -3.370  11.527  18.409  0.00  0.00    +0.000 A 
ATOM     21  C   UNL     1      -4.197  11.708  17.286  0.00  0.00    +0.000 A 
ATOM     22  C   UNL     1      -3.945  11.043  16.082  0.00  0.00    +0.000 A 
ATOM     23  C   UNL     1      -2.902  10.130  15.999  0.00  0.00    +0.000 A 
ATOM     24  C   UNL     1      -2.108   9.894  17.120  0.00  0.00    +0.000 A 
ATOM     25  C   UNL     1      -2.325  10.599  18.312  0.00  0.00    +0.000 A 
ENDBRANCH   9  20
BRANCH   7  26
ATOM     26  S   UNL     1      -2.706  14.756  22.588  0.00  0.00    +0.000 S 
ATOM     27  C   UNL     1      -4.047  15.784  23.101  0.00  0.00    +0.000 C 
ATOM     28  O   UNL     1      -2.340  13.864  23.675  0.00  0.00    +0.000 OA
ATOM     29  O   UNL     1      -1.724  15.576  21.927  0.00  0.00    +0.000 OA
ENDBRANCH   7  26
BRANCH   1  31
ATOM     30  C   UNL     1      -7.873  13.842  23.826  0.00  0.00    +0.000 C 
ATOM     31  O   UNL     1      -7.910  12.617  23.099  0.00  0.00    +0.000 OA
ENDBRANCH   1  31
TORSDOF 4
ENDMDL
MODEL 7
REMARK VINA RESULT:      -6.3      4.000      6.560
REMARK  Name = 
REMARK  6 active torsions:
REMARK  status: ('A' for Active; 'I' for Inactive)
REMARK    1  A    between atoms: C_1  and  O_2
REMARK    2  A    between atoms: O_2  and  C_3
REMARK    3  A    between atoms: C_9  and  S_10
REMARK    4  A    between atoms: S_10  and  C_11
REMARK    5  A    between atoms: C_14  and  C_15
REMARK    6  A    between atoms: N_23  and  C_24
REMARK                            x       y       z     vdW  Elec       q    Type
REMARK                         _______ _______ _______ _____ _____    ______ ____
ROOT
ATOM      1  C   UNL     1       3.416  15.468  21.146  0.00  0.00    +0.000 A 
ATOM      2  C   UNL     1       3.375  14.439  20.224  0.00  0.00    +0.000 A 
ATOM      3  C   UNL     1       2.243  13.628  20.123  0.00  0.00    +0.000 A 
ATOM      4  C   UNL     1       1.098  13.903  20.906  0.00  0.00    +0.000 A 
ATOM      5  C   UNL     1       1.150  14.886  21.898  0.00  0.00    +0.000 A 
ATOM      6  C   UNL     1       2.332  15.660  22.009  0.00  0.00    +0.000 A 
ATOM      7  C   UNL     1      -0.096  14.833  22.592  0.00  0.00    +0.000 A 
ATOM      8  C   UNL     1      -0.915  13.868  21.992  0.00  0.00    +0.000 A 
ATOM      9  N   UNL     1      -0.178  13.308  20.928  0.00  0.00    +0.000 N 
ENDROOT
BRANCH   8  10
ATOM     10  C   UNL     1      -2.333  13.598  22.231  0.00  0.00    +0.000 C 
ATOM     11  O   UNL     1      -3.192  14.183  21.575  0.00  0.00    +0.000 OA
ATOM     12  N   UNL     1      -2.638  12.754  23.270  0.00  0.00    +0.000 N 
ATOM     13  C   UNL     1      -3.932  12.492  23.650  0.00  0.00    +0.000 A 
ATOM     14  N   UNL     1      -5.030  12.625  22.843  0.00  0.00    +0.000 NA
ATOM     15  N   UNL     1      -6.085  12.299  23.576  0.00  0.00    +0.000 NA
ATOM     16  N   UNL     1      -5.581  12.028  24.784  0.00  0.00    +0.000 N 
ATOM     17  N   UNL     1      -4.243  12.081  24.886  0.00  0.00    +0.000 NA
ATOM     18  H   UNL     1      -1.942  12.430  23.935  0.00  0.00    +0.000 HD
ATOM     19  H   UNL     1      -6.184  11.814  25.574  0.00  0.00    +0.000 HD
ENDBRANCH   8  10
BRANCH   9  20
ATOM     20  C   UNL     1      -0.604  12.287  19.996  0.00  0.00    +0.000 A 
ATOM     21  C   UNL     1      -1.253  12.647  18.801  0.00  0.00    +0.000 A 
ATOM     22  C   UNL     1      -1.595  11.690  17.842  0.00  0.00    +0.000 A 
ATOM     23  C   UNL     1      -1.357  10.345  18.089  0.00  0.00    +0.000 A 
ATOM     24  C   UNL     1      -0.768   9.963  19.293  0.00  0.00    +0.000 A 
ATOM     25  C   UNL     1      -0.376  10.926  20.235  0.00  0.00    +0.000 A 
ENDBRANCH   9  20
BRANCH   7  26
ATOM     26  S   UNL     1      -0.517  15.865  23.935  0.00  0.00    +0.000 S 
ATOM     27  C   UNL     1      -1.765  16.963  23.339  0.00  0.00    +0.000 C 
ATOM     28  O   UNL     1      -1.106  14.937  24.885  0.00  0.00    +0.000 OA
ATOM     29  O   UNL     1       0.654  16.637  24.267  0.00  0.00    +0.000 OA
ENDBRANCH   7  26
BRANCH   1  31
ATOM     30  C   UNL     1       5.123  16.766  20.154  0.00  0.00    +0.000 C 
ATOM     31  O   UNL     1       4.482  16.304  21.340  0.00  0.00    +0.000 OA
ENDBRANCH   1  31
TORSDOF 4
ENDMDL
MODEL 8
REMARK VINA RESULT:      -6.3      9.948     12.120
REMARK  Name = 
REMARK  6 active torsions:
REMARK  status: ('A' for Active; 'I' for Inactive)
REMARK    1  A    between atoms: C_1  and  O_2
REMARK    2  A    between atoms: O_2  and  C_3
REMARK    3  A    between atoms: C_9  and  S_10
REMARK    4  A    between atoms: S_10  and  C_11
REMARK    5  A    between atoms: C_14  and  C_15
REMARK    6  A    between atoms: N_23  and  C_24
REMARK                            x       y       z     vdW  Elec       q    Type
REMARK                         _______ _______ _______ _____ _____    ______ ____
ROOT
ATOM      1  C   UNL     1      10.771  12.538  18.782  0.00  0.00    +0.000 A 
ATOM      2  C   UNL     1      10.991  12.007  20.039  0.00  0.00    +0.000 A 
ATOM      3  C   UNL     1      10.145  12.333  21.100  0.00  0.00    +0.000 A 
ATOM      4  C   UNL     1       9.008  13.144  20.881  0.00  0.00    +0.000 A 
ATOM      5  C   UNL     1       8.813  13.754  19.638  0.00  0.00    +0.000 A 
ATOM      6  C   UNL     1       9.720  13.442  18.594  0.00  0.00    +0.000 A 
ATOM      7  C   UNL     1       7.672  14.600  19.771  0.00  0.00    +0.000 A 
ATOM      8  C   UNL     1       7.147  14.462  21.063  0.00  0.00    +0.000 A 
ATOM      9  N   UNL     1       7.965  13.537  21.743  0.00  0.00    +0.000 N 
ENDROOT
BRANCH   8  10
ATOM     10  C   UNL     1       5.884  14.976  21.594  0.00  0.00    +0.000 C 
ATOM     11  O   UNL     1       5.886  15.775  22.527  0.00  0.00    +0.000 OA
ATOM     12  N   UNL     1       4.730  14.448  21.070  0.00  0.00    +0.000 N 
ATOM     13  C   UNL     1       3.485  14.783  21.545  0.00  0.00    +0.000 A 
ATOM     14  N   UNL     1       3.185  15.936  22.218  0.00  0.00    +0.000 NA
ATOM     15  N   UNL     1       1.897  15.878  22.523  0.00  0.00    +0.000 NA
ATOM     16  N   UNL     1       1.498  14.690  22.059  0.00  0.00    +0.000 N 
ATOM     17  N   UNL     1       2.425  13.978  21.396  0.00  0.00    +0.000 NA
ATOM     18  H   UNL     1       4.728  13.648  20.444  0.00  0.00    +0.000 HD
ATOM     19  H   UNL     1       0.554  14.348  22.220  0.00  0.00    +0.000 HD
ENDBRANCH   8  10
BRANCH   9  20
ATOM     20  C   UNL     1       7.816  13.049  23.097  0.00  0.00    +0.000 A 
ATOM     21  C   UNL     1       8.399  13.751  24.168  0.00  0.00    +0.000 A 
ATOM     22  C   UNL     1       8.197  13.354  25.493  0.00  0.00    +0.000 A 
ATOM     23  C   UNL     1       7.466  12.206  25.769  0.00  0.00    +0.000 A 
ATOM     24  C   UNL     1       6.932  11.465  24.717  0.00  0.00    +0.000 A 
ATOM     25  C   UNL     1       7.087  11.890  23.390  0.00  0.00    +0.000 A 
ENDBRANCH   9  20
BRANCH   7  26
ATOM     26  S   UNL     1       7.030  15.592  18.487  0.00  0.00    +0.000 S 
ATOM     27  C   UNL     1       6.689  17.167  19.207  0.00  0.00    +0.000 C 
ATOM     28  O   UNL     1       8.156  15.711  17.576  0.00  0.00    +0.000 OA
ATOM     29  O   UNL     1       5.785  14.999  18.068  0.00  0.00    +0.000 OA
ENDBRANCH   7  26
BRANCH   1  31
ATOM     30  C   UNL     1      11.925  13.456  16.936  0.00  0.00    +0.000 C 
ATOM     31  O   UNL     1      11.551  12.302  17.684  0.00  0.00    +0.000 OA
ENDBRANCH   1  31
TORSDOF 4
ENDMDL
MODEL 9
REMARK VINA RESULT:      -6.3     10.032     12.207
REMARK  Name = 
REMARK  6 active torsions:
REMARK  status: ('A' for Active; 'I' for Inactive)
REMARK    1  A    between atoms: C_1  and  O_2
REMARK    2  A    between atoms: O_2  and  C_3
REMARK    3  A    between atoms: C_9  and  S_10
REMARK    4  A    between atoms: S_10  and  C_11
REMARK    5  A    between atoms: C_14  and  C_15
REMARK    6  A    between atoms: N_23  and  C_24
REMARK                            x       y       z     vdW  Elec       q    Type
REMARK                         _______ _______ _______ _____ _____    ______ ____
ROOT
ATOM      1  C   UNL     1      10.868  12.525  18.956  0.00  0.00    +0.000 A 
ATOM      2  C   UNL     1      11.024  11.952  20.203  0.00  0.00    +0.000 A 
ATOM      3  C   UNL     1      10.146  12.272  21.241  0.00  0.00    +0.000 A 
ATOM      4  C   UNL     1       9.043  13.125  21.003  0.00  0.00    +0.000 A 
ATOM      5  C   UNL     1       8.916  13.776  19.773  0.00  0.00    +0.000 A 
ATOM      6  C   UNL     1       9.852  13.466  18.755  0.00  0.00    +0.000 A 
ATOM      7  C   UNL     1       7.796  14.653  19.888  0.00  0.00    +0.000 A 
ATOM      8  C   UNL     1       7.217  14.494  21.154  0.00  0.00    +0.000 A 
ATOM      9  N   UNL     1       7.980  13.525  21.836  0.00  0.00    +0.000 N 
ENDROOT
BRANCH   8  10
ATOM     10  C   UNL     1       5.950  15.031  21.652  0.00  0.00    +0.000 C 
ATOM     11  O   UNL     1       5.945  15.862  22.557  0.00  0.00    +0.000 OA
ATOM     12  N   UNL     1       4.800  14.492  21.132  0.00  0.00    +0.000 N 
ATOM     13  C   UNL     1       3.551  14.848  21.580  0.00  0.00    +0.000 A 
ATOM     14  N   UNL     1       3.249  16.025  22.210  0.00  0.00    +0.000 NA
ATOM     15  N   UNL     1       1.957  15.983  22.501  0.00  0.00    +0.000 NA
ATOM     16  N   UNL     1       1.558  14.781  22.073  0.00  0.00    +0.000 N 
ATOM     17  N   UNL     1       2.489  14.043  21.446  0.00  0.00    +0.000 NA
ATOM     18  H   UNL     1       4.802  13.670  20.533  0.00  0.00    +0.000 HD
ATOM     19  H   UNL     1       0.611  14.449  22.233  0.00  0.00    +0.000 HD
ENDBRANCH   8  10
BRANCH   9  20
ATOM     20  C   UNL     1       7.765  13.003  23.168  0.00  0.00    +0.000 A 
ATOM     21  C   UNL     1       6.843  11.962  23.378  0.00  0.00    +0.000 A 
ATOM     22  C   UNL     1       6.680  11.377  24.638  0.00  0.00    +0.000 A 
ATOM     23  C   UNL     1       7.384  11.871  25.727  0.00  0.00    +0.000 A 
ATOM     24  C   UNL     1       8.257  12.942  25.550  0.00  0.00    +0.000 A 
ATOM     25  C   UNL     1       8.464  13.495  24.278  0.00  0.00    +0.000 A 
ENDBRANCH   9  20
BRANCH   7  26
ATOM     26  S   UNL     1       7.234  15.701  18.610  0.00  0.00    +0.000 S 
ATOM     27  C   UNL     1       8.634  16.647  18.100  0.00  0.00    +0.000 C 
ATOM     28  O   UNL     1       6.876  14.764  17.558  0.00  0.00    +0.000 OA
ATOM     29  O   UNL     1       6.259  16.594  19.184  0.00  0.00    +0.000 OA
ENDBRANCH   7  26
BRANCH   1  31
ATOM     30  C   UNL     1      11.600  13.258  16.832  0.00  0.00    +0.000 C 
ATOM     31  O   UNL     1      11.682  12.296  17.881  0.00  0.00    +0.000 OA
ENDBRANCH   1  31
TORSDOF 4
ENDMDL
