MODEL 1
REMARK VINA RESULT:      -5.9      0.000      0.000
REMARK  Name = 
REMARK  6 active torsions:
REMARK  status: ('A' for Active; 'I' for Inactive)
REMARK    1  A    between atoms: C_1  and  C_2
REMARK    2  A    between atoms: C_2  and  C_3
REMARK    3  A    between atoms: C_2  and  C_4
REMARK    4  A    between atoms: C_2  and  C_5
REMARK    5  A    between atoms: C_8  and  O_9
REMARK    6  A    between atoms: C_10  and  N_11
REMARK                            x       y       z     vdW  Elec       q    Type
REMARK                         _______ _______ _______ _____ _____    ______ ____
ROOT
ATOM      1  C   UNL     1       3.738   4.609  17.654  0.00  0.00    +0.000 A 
ATOM      2  C   UNL     1       2.356   4.814  17.821  0.00  0.00    +0.000 A 
ATOM      3  C   UNL     1       1.492   3.762  18.142  0.00  0.00    +0.000 A 
ATOM      4  C   UNL     1       2.009   2.486  18.329  0.00  0.00    +0.000 A 
ATOM      5  C   UNL     1       3.383   2.247  18.237  0.00  0.00    +0.000 A 
ATOM      6  C   UNL     1       4.226   3.303  17.870  0.00  0.00    +0.000 A 
ENDROOT
BRANCH   1   8
ATOM      7  C   UNL     1       5.890   5.735  18.240  0.00  0.00    +0.000 C 
ATOM      8  C   UNL     1       4.682   5.770  17.285  0.00  0.00    +0.000 C 
ATOM      9  C   UNL     1       3.995   7.150  17.410  0.00  0.00    +0.000 C 
ATOM     10  C   UNL     1       5.204   5.675  15.831  0.00  0.00    +0.000 C 
ENDBRANCH   1   8
BRANCH   5  11
ATOM     11  N   UNL     1       3.880   0.932  18.298  0.00  0.00    +0.000 N 
ATOM     12  H   UNL     1       3.761   0.558  19.239  0.00  0.00    +0.000 HD
ATOM     13  H   UNL     1       4.825   0.836  17.945  0.00  0.00    +0.000 HD
ENDBRANCH   5  11
BRANCH   4  14
ATOM     14  O   UNL     1       1.187   1.436  18.646  0.00  0.00    +0.000 OA
ATOM     15  H   UNL     1       0.293   1.783  18.788  0.00  0.00    +0.000 HD
ENDBRANCH   4  14
TORSDOF 3
ENDMDL
MODEL 2
REMARK VINA RESULT:      -5.9      3.141      4.288
REMARK  Name = 
REMARK  6 active torsions:
REMARK  status: ('A' for Active; 'I' for Inactive)
REMARK    1  A    between atoms: C_1  and  C_2
REMARK    2  A    between atoms: C_2  and  C_3
REMARK    3  A    between atoms: C_2  and  C_4
REMARK    4  A    between atoms: C_2  and  C_5
REMARK    5  A    between atoms: C_8  and  O_9
REMARK    6  A    between atoms: C_10  and  N_11
REMARK                            x       y       z     vdW  Elec       q    Type
REMARK                         _______ _______ _______ _____ _____    ______ ____
ROOT
ATOM      1  C   UNL     1       4.111   5.111  18.170  0.00  0.00    +0.000 A 
ATOM      2  C   UNL     1       4.438   4.524  16.933  0.00  0.00    +0.000 A 
ATOM      3  C   UNL     1       5.760   4.221  16.592  0.00  0.00    +0.000 A 
ATOM      4  C   UNL     1       6.777   4.480  17.502  0.00  0.00    +0.000 A 
ATOM      5  C   UNL     1       6.494   5.002  18.767  0.00  0.00    +0.000 A 
ATOM      6  C   UNL     1       5.170   5.341  19.073  0.00  0.00    +0.000 A 
ENDROOT
BRANCH   1   8
ATOM      7  C   UNL     1       2.396   6.929  18.164  0.00  0.00    +0.000 C 
ATOM      8  C   UNL     1       2.653   5.455  18.534  0.00  0.00    +0.000 C 
ATOM      9  C   UNL     1       2.362   5.267  20.041  0.00  0.00    +0.000 C 
ATOM     10  C   UNL     1       1.628   4.576  17.780  0.00  0.00    +0.000 C 
ENDBRANCH   1   8
BRANCH   5  11
ATOM     11  N   UNL     1       7.539   5.381  19.629  0.00  0.00    +0.000 N 
ATOM     12  H   UNL     1       7.289   5.168  20.594  0.00  0.00    +0.000 HD
ATOM     13  H   UNL     1       7.851   6.336  19.496  0.00  0.00    +0.000 HD
ENDBRANCH   5  11
BRANCH   4  14
ATOM     14  O   UNL     1       8.082   4.193  17.196  0.00  0.00    +0.000 OA
ATOM     15  H   UNL     1       8.463   4.962  16.743  0.00  0.00    +0.000 HD
ENDBRANCH   4  14
TORSDOF 3
ENDMDL
MODEL 3
REMARK VINA RESULT:      -5.9      0.069      1.239
REMARK  Name = 
REMARK  6 active torsions:
REMARK  status: ('A' for Active; 'I' for Inactive)
REMARK    1  A    between atoms: C_1  and  C_2
REMARK    2  A    between atoms: C_2  and  C_3
REMARK    3  A    between atoms: C_2  and  C_4
REMARK    4  A    between atoms: C_2  and  C_5
REMARK    5  A    between atoms: C_8  and  O_9
REMARK    6  A    between atoms: C_10  and  N_11
REMARK                            x       y       z     vdW  Elec       q    Type
REMARK                         _______ _______ _______ _____ _____    ______ ____
ROOT
ATOM      1  C   UNL     1       3.783   4.629  17.628  0.00  0.00    +0.000 A 
ATOM      2  C   UNL     1       2.402   4.845  17.796  0.00  0.00    +0.000 A 
ATOM      3  C   UNL     1       1.529   3.800  18.115  0.00  0.00    +0.000 A 
ATOM      4  C   UNL     1       2.034   2.519  18.298  0.00  0.00    +0.000 A 
ATOM      5  C   UNL     1       3.406   2.268  18.205  0.00  0.00    +0.000 A 
ATOM      6  C   UNL     1       4.259   3.318  17.841  0.00  0.00    +0.000 A 
ENDROOT
BRANCH   1   8
ATOM      7  C   UNL     1       3.983   7.113  17.451  0.00  0.00    +0.000 C 
ATOM      8  C   UNL     1       4.736   5.783  17.263  0.00  0.00    +0.000 C 
ATOM      9  C   UNL     1       5.230   5.699  15.800  0.00  0.00    +0.000 C 
ATOM     10  C   UNL     1       6.005   5.810  18.148  0.00  0.00    +0.000 C 
ENDBRANCH   1   8
BRANCH   5  11
ATOM     11  N   UNL     1       3.892   0.949  18.263  0.00  0.00    +0.000 N 
ATOM     12  H   UNL     1       3.238   0.317  17.804  0.00  0.00    +0.000 HD
ATOM     13  H   UNL     1       4.154   0.651  19.195  0.00  0.00    +0.000 HD
ENDBRANCH   5  11
BRANCH   4  14
ATOM     14  O   UNL     1       1.204   1.475  18.612  0.00  0.00    +0.000 OA
ATOM     15  H   UNL     1       1.146   1.414  19.578  0.00  0.00    +0.000 HD
ENDBRANCH   4  14
TORSDOF 3
ENDMDL
MODEL 4
REMARK VINA RESULT:      -5.9      3.152      4.329
REMARK  Name = 
REMARK  6 active torsions:
REMARK  status: ('A' for Active; 'I' for Inactive)
REMARK    1  A    between atoms: C_1  and  C_2
REMARK    2  A    between atoms: C_2  and  C_3
REMARK    3  A    between atoms: C_2  and  C_4
REMARK    4  A    between atoms: C_2  and  C_5
REMARK    5  A    between atoms: C_8  and  O_9
REMARK    6  A    between atoms: C_10  and  N_11
REMARK                            x       y       z     vdW  Elec       q    Type
REMARK                         _______ _______ _______ _____ _____    ______ ____
ROOT
ATOM      1  C   UNL     1       4.135   5.182  18.184  0.00  0.00    +0.000 A 
ATOM      2  C   UNL     1       4.445   4.584  16.947  0.00  0.00    +0.000 A 
ATOM      3  C   UNL     1       5.758   4.253  16.601  0.00  0.00    +0.000 A 
ATOM      4  C   UNL     1       6.785   4.494  17.506  0.00  0.00    +0.000 A 
ATOM      5  C   UNL     1       6.518   5.026  18.770  0.00  0.00    +0.000 A 
ATOM      6  C   UNL     1       5.203   5.394  19.081  0.00  0.00    +0.000 A 
ENDROOT
BRANCH   1   8
ATOM      7  C   UNL     1       1.732   4.627  17.780  0.00  0.00    +0.000 C 
ATOM      8  C   UNL     1       2.687   5.558  18.552  0.00  0.00    +0.000 C 
ATOM      9  C   UNL     1       2.347   7.022  18.189  0.00  0.00    +0.000 C 
ATOM     10  C   UNL     1       2.399   5.408  20.065  0.00  0.00    +0.000 C 
ENDBRANCH   1   8
BRANCH   5  11
ATOM     11  N   UNL     1       7.575   5.387  19.626  0.00  0.00    +0.000 N 
ATOM     12  H   UNL     1       7.662   6.402  19.663  0.00  0.00    +0.000 HD
ATOM     13  H   UNL     1       8.447   4.916  19.418  0.00  0.00    +0.000 HD
ENDBRANCH   5  11
BRANCH   4  14
ATOM     14  O   UNL     1       8.082   4.179  17.195  0.00  0.00    +0.000 OA
ATOM     15  H   UNL     1       8.071   3.465  16.538  0.00  0.00    +0.000 HD
ENDBRANCH   4  14
TORSDOF 3
ENDMDL
MODEL 5
REMARK VINA RESULT:      -5.9      0.050      1.246
REMARK  Name = 
REMARK  6 active torsions:
REMARK  status: ('A' for Active; 'I' for Inactive)
REMARK    1  A    between atoms: C_1  and  C_2
REMARK    2  A    between atoms: C_2  and  C_3
REMARK    3  A    between atoms: C_2  and  C_4
REMARK    4  A    between atoms: C_2  and  C_5
REMARK    5  A    between atoms: C_8  and  O_9
REMARK    6  A    between atoms: C_10  and  N_11
REMARK                            x       y       z     vdW  Elec       q    Type
REMARK                         _______ _______ _______ _____ _____    ______ ____
ROOT
ATOM      1  C   UNL     1       3.757   4.604  17.643  0.00  0.00    +0.000 A 
ATOM      2  C   UNL     1       2.374   4.813  17.808  0.00  0.00    +0.000 A 
ATOM      3  C   UNL     1       1.507   3.763  18.125  0.00  0.00    +0.000 A 
ATOM      4  C   UNL     1       2.019   2.485  18.309  0.00  0.00    +0.000 A 
ATOM      5  C   UNL     1       3.392   2.242  18.220  0.00  0.00    +0.000 A 
ATOM      6  C   UNL     1       4.240   3.296  17.857  0.00  0.00    +0.000 A 
ENDROOT
BRANCH   1   8
ATOM      7  C   UNL     1       5.171   5.571  15.824  0.00  0.00    +0.000 C 
ATOM      8  C   UNL     1       4.705   5.763  17.280  0.00  0.00    +0.000 C 
ATOM      9  C   UNL     1       5.952   5.813  18.193  0.00  0.00    +0.000 C 
ATOM     10  C   UNL     1       4.025   7.148  17.397  0.00  0.00    +0.000 C 
ENDBRANCH   1   8
BRANCH   5  11
ATOM     11  N   UNL     1       3.885   0.926  18.279  0.00  0.00    +0.000 N 
ATOM     12  H   UNL     1       3.239   0.290  17.813  0.00  0.00    +0.000 HD
ATOM     13  H   UNL     1       4.139   0.626  19.213  0.00  0.00    +0.000 HD
ENDBRANCH   5  11
BRANCH   4  14
ATOM     14  O   UNL     1       1.193   1.437  18.622  0.00  0.00    +0.000 OA
ATOM     15  H   UNL     1       1.176   0.829  17.866  0.00  0.00    +0.000 HD
ENDBRANCH   4  14
TORSDOF 3
ENDMDL
MODEL 6
REMARK VINA RESULT:      -5.8      2.918      4.138
REMARK  Name = 
REMARK  6 active torsions:
REMARK  status: ('A' for Active; 'I' for Inactive)
REMARK    1  A    between atoms: C_1  and  C_2
REMARK    2  A    between atoms: C_2  and  C_3
REMARK    3  A    between atoms: C_2  and  C_4
REMARK    4  A    between atoms: C_2  and  C_5
REMARK    5  A    between atoms: C_8  and  O_9
REMARK    6  A    between atoms: C_10  and  N_11
REMARK                            x       y       z     vdW  Elec       q    Type
REMARK                         _______ _______ _______ _____ _____    ______ ____
ROOT
ATOM      1  C   UNL     1       4.168   5.103  18.197  0.00  0.00    +0.000 A 
ATOM      2  C   UNL     1       5.223   5.464  19.057  0.00  0.00    +0.000 A 
ATOM      3  C   UNL     1       6.552   5.145  18.762  0.00  0.00    +0.000 A 
ATOM      4  C   UNL     1       6.849   4.480  17.579  0.00  0.00    +0.000 A 
ATOM      5  C   UNL     1       5.843   4.158  16.663  0.00  0.00    +0.000 A 
ATOM      6  C   UNL     1       4.513   4.445  16.997  0.00  0.00    +0.000 A 
ENDROOT
BRANCH   1   8
ATOM      7  C   UNL     1       2.495   5.239  20.048  0.00  0.00    +0.000 C 
ATOM      8  C   UNL     1       2.704   5.445  18.536  0.00  0.00    +0.000 C 
ATOM      9  C   UNL     1       1.698   4.551  17.774  0.00  0.00    +0.000 C 
ATOM     10  C   UNL     1       2.337   6.907  18.186  0.00  0.00    +0.000 C 
ENDBRANCH   1   8
BRANCH   5  11
ATOM     11  N   UNL     1       6.135   3.372  15.534  0.00  0.00    +0.000 N 
ATOM     12  H   UNL     1       5.454   3.554  14.798  0.00  0.00    +0.000 HD
ATOM     13  H   UNL     1       6.249   2.387  15.742  0.00  0.00    +0.000 HD
ENDBRANCH   5  11
BRANCH   4  14
ATOM     14  O   UNL     1       8.142   4.155  17.262  0.00  0.00    +0.000 OA
ATOM     15  H   UNL     1       8.728   4.811  17.672  0.00  0.00    +0.000 HD
ENDBRANCH   4  14
TORSDOF 3
ENDMDL
MODEL 7
REMARK VINA RESULT:      -5.7      3.509      4.788
REMARK  Name = 
REMARK  6 active torsions:
REMARK  status: ('A' for Active; 'I' for Inactive)
REMARK    1  A    between atoms: C_1  and  C_2
REMARK    2  A    between atoms: C_2  and  C_3
REMARK    3  A    between atoms: C_2  and  C_4
REMARK    4  A    between atoms: C_2  and  C_5
REMARK    5  A    between atoms: C_8  and  O_9
REMARK    6  A    between atoms: C_10  and  N_11
REMARK                            x       y       z     vdW  Elec       q    Type
REMARK                         _______ _______ _______ _____ _____    ______ ____
ROOT
ATOM      1  C   UNL     1       4.425   5.111  17.291  0.00  0.00    +0.000 A 
ATOM      2  C   UNL     1       4.573   4.178  16.247  0.00  0.00    +0.000 A 
ATOM      3  C   UNL     1       5.682   4.199  15.395  0.00  0.00    +0.000 A 
ATOM      4  C   UNL     1       6.679   5.146  15.596  0.00  0.00    +0.000 A 
ATOM      5  C   UNL     1       6.608   6.051  16.659  0.00  0.00    +0.000 A 
ATOM      6  C   UNL     1       5.468   6.044  17.473  0.00  0.00    +0.000 A 
ENDROOT
BRANCH   1   8
ATOM      7  C   UNL     1       2.649   6.527  18.332  0.00  0.00    +0.000 C 
ATOM      8  C   UNL     1       3.193   5.090  18.217  0.00  0.00    +0.000 C 
ATOM      9  C   UNL     1       3.530   4.576  19.636  0.00  0.00    +0.000 C 
ATOM     10  C   UNL     1       2.062   4.180  17.682  0.00  0.00    +0.000 C 
ENDBRANCH   1   8
BRANCH   5  11
ATOM     11  N   UNL     1       7.554   7.085  16.775  0.00  0.00    +0.000 N 
ATOM     12  H   UNL     1       8.461   6.768  16.434  0.00  0.00    +0.000 HD
ATOM     13  H   UNL     1       7.594   7.500  17.698  0.00  0.00    +0.000 HD
ENDBRANCH   5  11
BRANCH   4  14
ATOM     14  O   UNL     1       7.778   5.190  14.778  0.00  0.00    +0.000 OA
ATOM     15  H   UNL     1       8.559   4.966  15.308  0.00  0.00    +0.000 HD
ENDBRANCH   4  14
TORSDOF 3
ENDMDL
MODEL 8
REMARK VINA RESULT:      -5.7      3.097      4.520
REMARK  Name = 
REMARK  6 active torsions:
REMARK  status: ('A' for Active; 'I' for Inactive)
REMARK    1  A    between atoms: C_1  and  C_2
REMARK    2  A    between atoms: C_2  and  C_3
REMARK    3  A    between atoms: C_2  and  C_4
REMARK    4  A    between atoms: C_2  and  C_5
REMARK    5  A    between atoms: C_8  and  O_9
REMARK    6  A    between atoms: C_10  and  N_11
REMARK                            x       y       z     vdW  Elec       q    Type
REMARK                         _______ _______ _______ _____ _____    ______ ____
ROOT
ATOM      1  C   UNL     1       4.090   5.027  18.181  0.00  0.00    +0.000 A 
ATOM      2  C   UNL     1       4.060   6.201  17.404  0.00  0.00    +0.000 A 
ATOM      3  C   UNL     1       5.221   6.732  16.833  0.00  0.00    +0.000 A 
ATOM      4  C   UNL     1       6.432   6.075  17.009  0.00  0.00    +0.000 A 
ATOM      5  C   UNL     1       6.500   4.872  17.717  0.00  0.00    +0.000 A 
ATOM      6  C   UNL     1       5.336   4.380  18.320  0.00  0.00    +0.000 A 
ENDROOT
BRANCH   1   8
ATOM      7  C   UNL     1       3.136   3.068  19.404  0.00  0.00    +0.000 C 
ATOM      8  C   UNL     1       2.809   4.456  18.820  0.00  0.00    +0.000 C 
ATOM      9  C   UNL     1       1.659   4.301  17.798  0.00  0.00    +0.000 C 
ATOM     10  C   UNL     1       2.262   5.350  19.958  0.00  0.00    +0.000 C 
ENDBRANCH   1   8
BRANCH   5  11
ATOM     11  N   UNL     1       7.746   4.284  18.000  0.00  0.00    +0.000 N 
ATOM     12  H   UNL     1       8.453   4.641  17.358  0.00  0.00    +0.000 HD
ATOM     13  H   UNL     1       7.720   3.273  18.047  0.00  0.00    +0.000 HD
ENDBRANCH   5  11
BRANCH   4  14
ATOM     14  O   UNL     1       7.585   6.571  16.460  0.00  0.00    +0.000 OA
ATOM     15  H   UNL     1       8.071   7.046  17.152  0.00  0.00    +0.000 HD
ENDBRANCH   4  14
TORSDOF 3
ENDMDL
MODEL 9
REMARK VINA RESULT:      -5.7      2.924      4.195
REMARK  Name = 
REMARK  6 active torsions:
REMARK  status: ('A' for Active; 'I' for Inactive)
REMARK    1  A    between atoms: C_1  and  C_2
REMARK    2  A    between atoms: C_2  and  C_3
REMARK    3  A    between atoms: C_2  and  C_4
REMARK    4  A    between atoms: C_2  and  C_5
REMARK    5  A    between atoms: C_8  and  O_9
REMARK    6  A    between atoms: C_10  and  N_11
REMARK                            x       y       z     vdW  Elec       q    Type
REMARK                         _______ _______ _______ _____ _____    ______ ____
ROOT
ATOM      1  C   UNL     1       4.145   5.180  18.261  0.00  0.00    +0.000 A 
ATOM      2  C   UNL     1       5.194   5.488  19.148  0.00  0.00    +0.000 A 
ATOM      3  C   UNL     1       6.520   5.147  18.864  0.00  0.00    +0.000 A 
ATOM      4  C   UNL     1       6.820   4.514  17.665  0.00  0.00    +0.000 A 
ATOM      5  C   UNL     1       5.822   4.246  16.723  0.00  0.00    +0.000 A 
ATOM      6  C   UNL     1       4.494   4.553  17.046  0.00  0.00    +0.000 A 
ENDROOT
BRANCH   1   8
ATOM      7  C   UNL     1       1.759   4.600  17.798  0.00  0.00    +0.000 C 
ATOM      8  C   UNL     1       2.684   5.545  18.588  0.00  0.00    +0.000 C 
ATOM      9  C   UNL     1       2.341   7.004  18.203  0.00  0.00    +0.000 C 
ATOM     10  C   UNL     1       2.358   5.405  20.094  0.00  0.00    +0.000 C 
ENDBRANCH   1   8
BRANCH   5  11
ATOM     11  N   UNL     1       6.115   3.489  15.574  0.00  0.00    +0.000 N 
ATOM     12  H   UNL     1       5.307   2.923  15.315  0.00  0.00    +0.000 HD
ATOM     13  H   UNL     1       6.973   2.957  15.644  0.00  0.00    +0.000 HD
ENDBRANCH   5  11
BRANCH   4  14
ATOM     14  O   UNL     1       8.111   4.169  17.358  0.00  0.00    +0.000 OA
ATOM     15  H   UNL     1       8.666   4.354  18.131  0.00  0.00    +0.000 HD
ENDBRANCH   4  14
TORSDOF 3
ENDMDL
