MODEL 1
REMARK VINA RESULT:      -7.6      0.000      0.000
REMARK  Name = 
REMARK  3 active torsions:
REMARK  status: ('A' for Active; 'I' for Inactive)
REMARK    1  A    between atoms: C_5  and  N_6
REMARK    2  A    between atoms: N_11  and  C_12
REMARK    3  A    between atoms: C_12  and  C_13
REMARK                            x       y       z     vdW  Elec       q    Type
REMARK                         _______ _______ _______ _____ _____    ______ ____
ROOT
ATOM      1  N   UNL     1       3.820   4.936  18.739  0.00  0.00    +0.000 N 
ATOM      2  C   UNL     1       3.178   5.951  17.899  0.00  0.00    +0.000 C 
ATOM      3  C   UNL     1       4.226   6.978  17.473  0.00  0.00    +0.000 C 
ATOM      4  C   UNL     1       5.489   6.364  16.868  0.00  0.00    +0.000 C 
ATOM      5  C   UNL     1       5.362   5.787  15.458  0.00  0.00    +0.000 C 
ATOM      6  N   UNL     1       6.570   4.953  15.320  0.00  0.00    +0.000 NA
ATOM      7  C   UNL     1       7.012   4.567  16.675  0.00  0.00    +0.000 C 
ATOM      8  C   UNL     1       6.001   5.160  17.651  0.00  0.00    +0.000 C 
ATOM      9  C   UNL     1       4.854   4.185  18.003  0.00  0.00    +0.000 C 
ENDROOT
BRANCH   1  14
ATOM     10  C   UNL     1       0.814   3.575  20.492  0.00  0.00    +0.000 A 
ATOM     11  C   UNL     1       1.450   2.716  21.368  0.00  0.00    +0.000 A 
ATOM     12  N   UNL     1       2.784   2.544  21.397  0.00  0.00    +0.000 NA
ATOM     13  C   UNL     1       3.495   3.282  20.498  0.00  0.00    +0.000 A 
ATOM     14  C   UNL     1       2.972   4.176  19.557  0.00  0.00    +0.000 A 
ATOM     15  C   UNL     1       1.584   4.307  19.582  0.00  0.00    +0.000 A 
ENDBRANCH   1  14
BRANCH   6  16
ATOM     16  C   UNL     1       6.406   3.779  14.465  0.00  0.00    +0.000 C 
BRANCH  16  17
ATOM     17  C   UNL     1       6.071   4.150  13.052  0.00  0.00    +0.000 C 
ATOM     18  C   UNL     1       6.919   3.596  11.932  0.00  0.00    +0.000 C 
ATOM     19  C   UNL     1       5.502   3.128  12.098  0.00  0.00    +0.000 C 
ENDBRANCH  16  17
ENDBRANCH   6  16
TORSDOF 3
ENDMDL
MODEL 2
REMARK VINA RESULT:      -7.4      0.738      1.126
REMARK  Name = 
REMARK  3 active torsions:
REMARK  status: ('A' for Active; 'I' for Inactive)
REMARK    1  A    between atoms: C_5  and  N_6
REMARK    2  A    between atoms: N_11  and  C_12
REMARK    3  A    between atoms: C_12  and  C_13
REMARK                            x       y       z     vdW  Elec       q    Type
REMARK                         _______ _______ _______ _____ _____    ______ ____
ROOT
ATOM      1  N   UNL     1       3.981   5.098  18.704  0.00  0.00    +0.000 N 
ATOM      2  C   UNL     1       3.302   6.071  17.844  0.00  0.00    +0.000 C 
ATOM      3  C   UNL     1       4.333   7.062  17.306  0.00  0.00    +0.000 C 
ATOM      4  C   UNL     1       5.557   6.403  16.669  0.00  0.00    +0.000 C 
ATOM      5  C   UNL     1       5.350   5.750  15.303  0.00  0.00    +0.000 C 
ATOM      6  N   UNL     1       6.543   4.898  15.147  0.00  0.00    +0.000 NA
ATOM      7  C   UNL     1       7.055   4.583  16.496  0.00  0.00    +0.000 C 
ATOM      8  C   UNL     1       6.102   5.239  17.491  0.00  0.00    +0.000 C 
ATOM      9  C   UNL     1       4.969   4.296  17.957  0.00  0.00    +0.000 C 
ENDROOT
BRANCH   1  14
ATOM     10  C   UNL     1       2.663   2.525  21.071  0.00  0.00    +0.000 A 
ATOM     11  C   UNL     1       1.383   3.019  21.231  0.00  0.00    +0.000 A 
ATOM     12  N   UNL     1       0.945   4.143  20.635  0.00  0.00    +0.000 NA
ATOM     13  C   UNL     1       1.850   4.783  19.842  0.00  0.00    +0.000 A 
ATOM     14  C   UNL     1       3.173   4.393  19.607  0.00  0.00    +0.000 A 
ATOM     15  C   UNL     1       3.561   3.219  20.254  0.00  0.00    +0.000 A 
ENDBRANCH   1  14
BRANCH   6  16
ATOM     16  C   UNL     1       6.325   3.681  14.368  0.00  0.00    +0.000 C 
BRANCH  16  17
ATOM     17  C   UNL     1       6.226   3.958  12.899  0.00  0.00    +0.000 C 
ATOM     18  C   UNL     1       6.423   2.819  11.928  0.00  0.00    +0.000 C 
ATOM     19  C   UNL     1       5.063   3.436  12.090  0.00  0.00    +0.000 C 
ENDBRANCH  16  17
ENDBRANCH   6  16
TORSDOF 3
ENDMDL
MODEL 3
REMARK VINA RESULT:      -7.3      1.211      6.961
REMARK  Name = 
REMARK  3 active torsions:
REMARK  status: ('A' for Active; 'I' for Inactive)
REMARK    1  A    between atoms: C_5  and  N_6
REMARK    2  A    between atoms: N_11  and  C_12
REMARK    3  A    between atoms: C_12  and  C_13
REMARK                            x       y       z     vdW  Elec       q    Type
REMARK                         _______ _______ _______ _____ _____    ______ ____
ROOT
ATOM      1  N   UNL     1       6.337   5.162  15.880  0.00  0.00    +0.000 N 
ATOM      2  C   UNL     1       7.142   4.425  16.858  0.00  0.00    +0.000 C 
ATOM      3  C   UNL     1       7.221   5.239  18.149  0.00  0.00    +0.000 C 
ATOM      4  C   UNL     1       5.864   5.708  18.673  0.00  0.00    +0.000 C 
ATOM      5  C   UNL     1       4.968   4.643  19.303  0.00  0.00    +0.000 C 
ATOM      6  N   UNL     1       3.642   5.289  19.340  0.00  0.00    +0.000 NA
ATOM      7  C   UNL     1       3.615   6.328  18.291  0.00  0.00    +0.000 C 
ATOM      8  C   UNL     1       4.961   6.265  17.576  0.00  0.00    +0.000 C 
ATOM      9  C   UNL     1       4.946   5.345  16.335  0.00  0.00    +0.000 C 
ENDROOT
BRANCH   1  14
ATOM     10  C   UNL     1       6.026   3.453  12.572  0.00  0.00    +0.000 A 
ATOM     11  C   UNL     1       7.076   4.067  11.916  0.00  0.00    +0.000 A 
ATOM     12  N   UNL     1       7.851   5.011  12.482  0.00  0.00    +0.000 NA
ATOM     13  C   UNL     1       7.541   5.336  13.769  0.00  0.00    +0.000 A 
ATOM     14  C   UNL     1       6.502   4.797  14.536  0.00  0.00    +0.000 A 
ATOM     15  C   UNL     1       5.740   3.824  13.889  0.00  0.00    +0.000 A 
ENDBRANCH   1  14
BRANCH   6  16
ATOM     16  C   UNL     1       2.513   4.372  19.204  0.00  0.00    +0.000 C 
BRANCH  16  17
ATOM     17  C   UNL     1       1.702   4.282  20.460  0.00  0.00    +0.000 C 
ATOM     18  C   UNL     1       1.121   2.945  20.858  0.00  0.00    +0.000 C 
ATOM     19  C   UNL     1       2.230   3.550  21.671  0.00  0.00    +0.000 C 
ENDBRANCH  16  17
ENDBRANCH   6  16
TORSDOF 3
ENDMDL
MODEL 4
REMARK VINA RESULT:      -7.2      1.269      6.959
REMARK  Name = 
REMARK  3 active torsions:
REMARK  status: ('A' for Active; 'I' for Inactive)
REMARK    1  A    between atoms: C_5  and  N_6
REMARK    2  A    between atoms: N_11  and  C_12
REMARK    3  A    between atoms: C_12  and  C_13
REMARK                            x       y       z     vdW  Elec       q    Type
REMARK                         _______ _______ _______ _____ _____    ______ ____
ROOT
ATOM      1  N   UNL     1       6.543   5.188  15.887  0.00  0.00    +0.000 N 
ATOM      2  C   UNL     1       7.336   4.498  16.907  0.00  0.00    +0.000 C 
ATOM      3  C   UNL     1       7.370   5.352  18.173  0.00  0.00    +0.000 C 
ATOM      4  C   UNL     1       5.993   5.813  18.650  0.00  0.00    +0.000 C 
ATOM      5  C   UNL     1       5.100   4.751  19.292  0.00  0.00    +0.000 C 
ATOM      6  N   UNL     1       3.763   5.374  19.278  0.00  0.00    +0.000 NA
ATOM      7  C   UNL     1       3.743   6.379  18.196  0.00  0.00    +0.000 C 
ATOM      8  C   UNL     1       5.107   6.318  17.516  0.00  0.00    +0.000 C 
ATOM      9  C   UNL     1       5.137   5.360  16.304  0.00  0.00    +0.000 C 
ENDROOT
BRANCH   1  14
ATOM     10  C   UNL     1       7.735   4.985  12.353  0.00  0.00    +0.000 A 
ATOM     11  C   UNL     1       6.898   3.981  11.903  0.00  0.00    +0.000 A 
ATOM     12  N   UNL     1       5.997   3.363  12.689  0.00  0.00    +0.000 NA
ATOM     13  C   UNL     1       5.949   3.790  13.983  0.00  0.00    +0.000 A 
ATOM     14  C   UNL     1       6.746   4.786  14.560  0.00  0.00    +0.000 A 
ATOM     15  C   UNL     1       7.656   5.385  13.690  0.00  0.00    +0.000 A 
ENDBRANCH   1  14
BRANCH   6  16
ATOM     16  C   UNL     1       2.654   4.432  19.144  0.00  0.00    +0.000 C 
BRANCH  16  17
ATOM     17  C   UNL     1       1.793   4.392  20.370  0.00  0.00    +0.000 C 
ATOM     18  C   UNL     1       0.989   3.146  20.655  0.00  0.00    +0.000 C 
ATOM     19  C   UNL     1       2.151   3.503  21.537  0.00  0.00    +0.000 C 
ENDBRANCH  16  17
ENDBRANCH   6  16
TORSDOF 3
ENDMDL
MODEL 5
REMARK VINA RESULT:      -7.1      1.507      6.406
REMARK  Name = 
REMARK  3 active torsions:
REMARK  status: ('A' for Active; 'I' for Inactive)
REMARK    1  A    between atoms: C_5  and  N_6
REMARK    2  A    between atoms: N_11  and  C_12
REMARK    3  A    between atoms: C_12  and  C_13
REMARK                            x       y       z     vdW  Elec       q    Type
REMARK                         _______ _______ _______ _____ _____    ______ ____
ROOT
ATOM      1  N   UNL     1       6.399   5.180  15.803  0.00  0.00    +0.000 N 
ATOM      2  C   UNL     1       7.244   4.471  16.766  0.00  0.00    +0.000 C 
ATOM      3  C   UNL     1       7.394   5.330  18.022  0.00  0.00    +0.000 C 
ATOM      4  C   UNL     1       6.069   5.831  18.595  0.00  0.00    +0.000 C 
ATOM      5  C   UNL     1       5.195   4.797  19.306  0.00  0.00    +0.000 C 
ATOM      6  N   UNL     1       3.879   5.457  19.385  0.00  0.00    +0.000 NA
ATOM      7  C   UNL     1       3.808   6.458  18.301  0.00  0.00    +0.000 C 
ATOM      8  C   UNL     1       5.117   6.357  17.524  0.00  0.00    +0.000 C 
ATOM      9  C   UNL     1       5.033   5.393  16.319  0.00  0.00    +0.000 C 
ENDROOT
BRANCH   1  14
ATOM     10  C   UNL     1       5.871   3.395  12.563  0.00  0.00    +0.000 A 
ATOM     11  C   UNL     1       6.931   3.926  11.853  0.00  0.00    +0.000 A 
ATOM     12  N   UNL     1       7.779   4.838  12.362  0.00  0.00    +0.000 NA
ATOM     13  C   UNL     1       7.535   5.220  13.648  0.00  0.00    +0.000 A 
ATOM     14  C   UNL     1       6.494   4.767  14.467  0.00  0.00    +0.000 A 
ATOM     15  C   UNL     1       5.655   3.822  13.877  0.00  0.00    +0.000 A 
ENDBRANCH   1  14
BRANCH   6  16
ATOM     16  C   UNL     1       2.737   4.547  19.337  0.00  0.00    +0.000 C 
BRANCH  16  17
ATOM     17  C   UNL     1       3.098   3.215  18.754  0.00  0.00    +0.000 C 
ATOM     18  C   UNL     1       2.026   2.158  18.631  0.00  0.00    +0.000 C 
ATOM     19  C   UNL     1       2.587   2.801  17.395  0.00  0.00    +0.000 C 
ENDBRANCH  16  17
ENDBRANCH   6  16
TORSDOF 3
ENDMDL
MODEL 6
REMARK VINA RESULT:      -6.9      1.579      6.426
REMARK  Name = 
REMARK  3 active torsions:
REMARK  status: ('A' for Active; 'I' for Inactive)
REMARK    1  A    between atoms: C_5  and  N_6
REMARK    2  A    between atoms: N_11  and  C_12
REMARK    3  A    between atoms: C_12  and  C_13
REMARK                            x       y       z     vdW  Elec       q    Type
REMARK                         _______ _______ _______ _____ _____    ______ ____
ROOT
ATOM      1  N   UNL     1       6.518   5.232  15.828  0.00  0.00    +0.000 N 
ATOM      2  C   UNL     1       7.271   4.533  16.872  0.00  0.00    +0.000 C 
ATOM      3  C   UNL     1       7.341   5.421  18.113  0.00  0.00    +0.000 C 
ATOM      4  C   UNL     1       5.985   5.962  18.569  0.00  0.00    +0.000 C 
ATOM      5  C   UNL     1       5.038   4.964  19.235  0.00  0.00    +0.000 C 
ATOM      6  N   UNL     1       3.733   5.651  19.193  0.00  0.00    +0.000 NA
ATOM      7  C   UNL     1       3.768   6.624  18.083  0.00  0.00    +0.000 C 
ATOM      8  C   UNL     1       5.131   6.477  17.414  0.00  0.00    +0.000 C 
ATOM      9  C   UNL     1       5.121   5.484  16.230  0.00  0.00    +0.000 C 
ENDROOT
BRANCH   1  14
ATOM     10  C   UNL     1       7.711   4.874  12.306  0.00  0.00    +0.000 A 
ATOM     11  C   UNL     1       6.834   3.894  11.883  0.00  0.00    +0.000 A 
ATOM     12  N   UNL     1       5.906   3.337  12.683  0.00  0.00    +0.000 NA
ATOM     13  C   UNL     1       5.872   3.804  13.963  0.00  0.00    +0.000 A 
ATOM     14  C   UNL     1       6.708   4.782  14.514  0.00  0.00    +0.000 A 
ATOM     15  C   UNL     1       7.645   5.318  13.630  0.00  0.00    +0.000 A 
ENDBRANCH   1  14
BRANCH   6  16
ATOM     16  C   UNL     1       2.580   4.761  19.079  0.00  0.00    +0.000 C 
BRANCH  16  17
ATOM     17  C   UNL     1       2.973   3.373  18.676  0.00  0.00    +0.000 C 
ATOM     18  C   UNL     1       1.902   2.313  18.574  0.00  0.00    +0.000 C 
ATOM     19  C   UNL     1       2.576   2.816  17.330  0.00  0.00    +0.000 C 
ENDBRANCH  16  17
ENDBRANCH   6  16
TORSDOF 3
ENDMDL
MODEL 7
REMARK VINA RESULT:      -6.8      2.769      4.955
REMARK  Name = 
REMARK  3 active torsions:
REMARK  status: ('A' for Active; 'I' for Inactive)
REMARK    1  A    between atoms: C_5  and  N_6
REMARK    2  A    between atoms: N_11  and  C_12
REMARK    3  A    between atoms: C_12  and  C_13
REMARK                            x       y       z     vdW  Elec       q    Type
REMARK                         _______ _______ _______ _____ _____    ______ ____
ROOT
ATOM      1  N   UNL     1       2.478   6.662  18.712  0.00  0.00    +0.000 N 
ATOM      2  C   UNL     1       2.671   5.902  19.950  0.00  0.00    +0.000 C 
ATOM      3  C   UNL     1       2.749   4.414  19.612  0.00  0.00    +0.000 C 
ATOM      4  C   UNL     1       3.748   4.079  18.505  0.00  0.00    +0.000 C 
ATOM      5  C   UNL     1       5.230   4.158  18.872  0.00  0.00    +0.000 C 
ATOM      6  N   UNL     1       5.906   4.176  17.561  0.00  0.00    +0.000 NA
ATOM      7  C   UNL     1       4.949   4.695  16.564  0.00  0.00    +0.000 C 
ATOM      8  C   UNL     1       3.670   5.038  17.321  0.00  0.00    +0.000 C 
ATOM      9  C   UNL     1       3.619   6.511  17.789  0.00  0.00    +0.000 C 
ENDROOT
BRANCH   1  14
ATOM     10  C   UNL     1       1.607  10.246  18.119  0.00  0.00    +0.000 A 
ATOM     11  C   UNL     1       1.055  10.537  19.352  0.00  0.00    +0.000 A 
ATOM     12  N   UNL     1       0.934   9.632  20.340  0.00  0.00    +0.000 NA
ATOM     13  C   UNL     1       1.397   8.382  20.057  0.00  0.00    +0.000 A 
ATOM     14  C   UNL     1       1.966   7.959  18.850  0.00  0.00    +0.000 A 
ATOM     15  C   UNL     1       2.063   8.948  17.871  0.00  0.00    +0.000 A 
ENDBRANCH   1  14
BRANCH   6  16
ATOM     16  C   UNL     1       7.158   4.928  17.532  0.00  0.00    +0.000 C 
BRANCH  16  17
ATOM     17  C   UNL     1       7.016   6.288  18.145  0.00  0.00    +0.000 C 
ATOM     18  C   UNL     1       8.247   6.975  18.688  0.00  0.00    +0.000 C 
ATOM     19  C   UNL     1       7.575   7.510  17.456  0.00  0.00    +0.000 C 
ENDBRANCH  16  17
ENDBRANCH   6  16
TORSDOF 3
ENDMDL
MODEL 8
REMARK VINA RESULT:      -6.7      2.162      3.997
REMARK  Name = 
REMARK  3 active torsions:
REMARK  status: ('A' for Active; 'I' for Inactive)
REMARK    1  A    between atoms: C_5  and  N_6
REMARK    2  A    between atoms: N_11  and  C_12
REMARK    3  A    between atoms: C_12  and  C_13
REMARK                            x       y       z     vdW  Elec       q    Type
REMARK                         _______ _______ _______ _____ _____    ______ ____
ROOT
ATOM      1  N   UNL     1       3.732   4.416  18.022  0.00  0.00    +0.000 N 
ATOM      2  C   UNL     1       4.586   3.439  17.341  0.00  0.00    +0.000 C 
ATOM      3  C   UNL     1       4.946   3.974  15.956  0.00  0.00    +0.000 C 
ATOM      4  C   UNL     1       5.501   5.399  15.964  0.00  0.00    +0.000 C 
ATOM      5  C   UNL     1       6.924   5.576  16.493  0.00  0.00    +0.000 C 
ATOM      6  N   UNL     1       7.018   7.027  16.740  0.00  0.00    +0.000 NA
ATOM      7  C   UNL     1       5.650   7.541  16.952  0.00  0.00    +0.000 C 
ATOM      8  C   UNL     1       4.713   6.340  16.870  0.00  0.00    +0.000 C 
ATOM      9  C   UNL     1       4.431   5.696  18.246  0.00  0.00    +0.000 C 
ENDROOT
BRANCH   1  14
ATOM     10  C   UNL     1       0.992   3.874  20.502  0.00  0.00    +0.000 A 
ATOM     11  C   UNL     1       1.653   3.023  21.367  0.00  0.00    +0.000 A 
ATOM     12  N   UNL     1       2.918   2.607  21.172  0.00  0.00    +0.000 NA
ATOM     13  C   UNL     1       3.530   3.081  20.050  0.00  0.00    +0.000 A 
ATOM     14  C   UNL     1       2.968   3.936  19.094  0.00  0.00    +0.000 A 
ATOM     15  C   UNL     1       1.656   4.330  19.359  0.00  0.00    +0.000 A 
ENDBRANCH   1  14
BRANCH   6  16
ATOM     16  C   UNL     1       7.898   7.401  17.845  0.00  0.00    +0.000 C 
BRANCH  16  17
ATOM     17  C   UNL     1       7.810   8.861  18.171  0.00  0.00    +0.000 C 
ATOM     18  C   UNL     1       8.899   9.488  19.008  0.00  0.00    +0.000 C 
ATOM     19  C   UNL     1       8.770   9.851  17.557  0.00  0.00    +0.000 C 
ENDBRANCH  16  17
ENDBRANCH   6  16
TORSDOF 3
ENDMDL
MODEL 9
REMARK VINA RESULT:      -6.7      3.087      5.304
REMARK  Name = 
REMARK  3 active torsions:
REMARK  status: ('A' for Active; 'I' for Inactive)
REMARK    1  A    between atoms: C_5  and  N_6
REMARK    2  A    between atoms: N_11  and  C_12
REMARK    3  A    between atoms: C_12  and  C_13
REMARK                            x       y       z     vdW  Elec       q    Type
REMARK                         _______ _______ _______ _____ _____    ______ ____
ROOT
ATOM      1  N   UNL     1       2.794   7.395  19.174  0.00  0.00    +0.000 N 
ATOM      2  C   UNL     1       2.857   7.474  17.712  0.00  0.00    +0.000 C 
ATOM      3  C   UNL     1       4.221   6.970  17.246  0.00  0.00    +0.000 C 
ATOM      4  C   UNL     1       4.612   5.608  17.821  0.00  0.00    +0.000 C 
ATOM      5  C   UNL     1       3.878   4.391  17.259  0.00  0.00    +0.000 C 
ATOM      6  N   UNL     1       4.166   3.332  18.245  0.00  0.00    +0.000 NA
ATOM      7  C   UNL     1       4.473   3.984  19.534  0.00  0.00    +0.000 C 
ATOM      8  C   UNL     1       4.318   5.486  19.314  0.00  0.00    +0.000 C 
ATOM      9  C   UNL     1       2.904   6.006  19.657  0.00  0.00    +0.000 C 
ENDROOT
BRANCH   1  14
ATOM     10  C   UNL     1       0.250   8.709  21.574  0.00  0.00    +0.000 A 
ATOM     11  C   UNL     1      -0.226   9.766  20.822  0.00  0.00    +0.000 A 
ATOM     12  N   UNL     1       0.250  10.079  19.603  0.00  0.00    +0.000 NA
ATOM     13  C   UNL     1       1.249   9.279  19.135  0.00  0.00    +0.000 A 
ATOM     14  C   UNL     1       1.823   8.189  19.800  0.00  0.00    +0.000 A 
ATOM     15  C   UNL     1       1.281   7.919  21.057  0.00  0.00    +0.000 A 
ENDBRANCH   1  14
BRANCH   6  16
ATOM     16  C   UNL     1       3.108   2.336  18.396  0.00  0.00    +0.000 C 
BRANCH  16  17
ATOM     17  C   UNL     1       1.745   2.957  18.422  0.00  0.00    +0.000 C 
ATOM     18  C   UNL     1       0.551   2.082  18.724  0.00  0.00    +0.000 C 
ATOM     19  C   UNL     1       0.992   3.117  19.720  0.00  0.00    +0.000 C 
ENDBRANCH  16  17
ENDBRANCH   6  16
TORSDOF 3
ENDMDL
