MODEL 1
REMARK VINA RESULT:      -8.3      0.000      0.000
REMARK  Name = 
REMARK  11 active torsions:
REMARK  status: ('A' for Active; 'I' for Inactive)
REMARK    1  A    between atoms: C_1  and  C_2
REMARK    2  A    between atoms: C_2  and  N_3
REMARK    3  A    between atoms: C_2  and  C_4
REMARK    4  A    between atoms: C_2  and  C_6
REMARK    5  A    between atoms: C_4  and  O_5
REMARK    6  A    between atoms: C_8  and  C_9
REMARK    7  A    between atoms: C_12  and  O_13
REMARK    8  A    between atoms: O_13  and  C_14
REMARK    9  A    between atoms: C_14  and  C_15
REMARK   10  A    between atoms: C_18  and  C_19
REMARK   11  A    between atoms: C_27  and  C_28
REMARK                            x       y       z     vdW  Elec       q    Type
REMARK                         _______ _______ _______ _____ _____    ______ ____
ROOT
ATOM      1  C   UNL     1      -2.258  12.409  22.730  0.00  0.00    +0.000 A 
ATOM      2  C   UNL     1      -1.681  13.215  21.753  0.00  0.00    +0.000 A 
ATOM      3  C   UNL     1      -0.493  12.835  21.145  0.00  0.00    +0.000 A 
ATOM      4  C   UNL     1       0.123  11.617  21.461  0.00  0.00    +0.000 A 
ATOM      5  C   UNL     1      -0.396  10.827  22.496  0.00  0.00    +0.000 A 
ATOM      6  C   UNL     1      -1.588  11.245  23.126  0.00  0.00    +0.000 A 
ENDROOT
BRANCH   1   9
ATOM      7  C   UNL     1      -5.652  13.174  23.416  0.00  0.00    +0.000 A 
ATOM      8  N   UNL     1      -4.712  12.789  22.570  0.00  0.00    +0.000 NA
ATOM      9  C   UNL     1      -3.550  12.742  23.298  0.00  0.00    +0.000 A 
ATOM     10  C   UNL     1      -3.783  13.107  24.600  0.00  0.00    +0.000 A 
ATOM     11  N   UNL     1      -5.118  13.373  24.666  0.00  0.00    +0.000 N 
ATOM     12  H   UNL     1      -5.630  13.672  25.482  0.00  0.00    +0.000 HD
BRANCH   7  14
ATOM     13  C   UNL     1      -7.545  12.423  21.980  0.00  0.00    +0.000 C 
ATOM     14  C   UNL     1      -7.126  13.360  23.124  0.00  0.00    +0.000 C 
BRANCH  14  15
ATOM     15  N   UNL     1      -7.913  13.030  24.329  0.00  0.00    +0.000 NA
ATOM     16  H   UNL     1      -8.906  13.109  24.100  0.00  0.00    +0.000 HD
ATOM     17  H   UNL     1      -7.734  13.695  25.075  0.00  0.00    +0.000 HD
ENDBRANCH  14  15
BRANCH  14  18
ATOM     18  C   UNL     1      -7.406  14.839  22.725  0.00  0.00    +0.000 C 
BRANCH  18  19
ATOM     19  O   UNL     1      -6.219  15.639  22.724  0.00  0.00    +0.000 OA
ATOM     20  H   UNL     1      -5.660  15.261  22.012  0.00  0.00    +0.000 HD
ENDBRANCH  18  19
ENDBRANCH  14  18
ENDBRANCH   7  14
ENDBRANCH   1   9
BRANCH   5  21
ATOM     21  C   UNL     1       0.212   9.525  22.955  0.00  0.00    +0.000 C 
ATOM     22  F   UNL     1      -0.258   8.396  22.360  0.00  0.00    +0.000 F 
ATOM     23  F   UNL     1       1.565   9.500  22.762  0.00  0.00    +0.000 F 
ATOM     24  F   UNL     1       0.040   9.330  24.296  0.00  0.00    +0.000 F 
ENDBRANCH   5  21
BRANCH   4  25
ATOM     25  O   UNL     1       1.213  11.160  20.766  0.00  0.00    +0.000 OA
BRANCH  25  26
ATOM     26  C   UNL     1       0.928  10.817  19.403  0.00  0.00    +0.000 C 
BRANCH  26  27
ATOM     27  C   UNL     1       1.510   9.487  19.024  0.00  0.00    +0.000 A 
ATOM     28  C   UNL     1       1.636   8.498  20.007  0.00  0.00    +0.000 A 
ATOM     29  C   UNL     1       2.164   7.251  19.686  0.00  0.00    +0.000 A 
ATOM     30  C   UNL     1       2.556   6.938  18.374  0.00  0.00    +0.000 A 
ATOM     31  C   UNL     1       2.377   7.928  17.390  0.00  0.00    +0.000 A 
ATOM     32  C   UNL     1       1.865   9.188  17.709  0.00  0.00    +0.000 A 
BRANCH  30  33
ATOM     33  C   UNL     1       3.169   5.630  18.062  0.00  0.00    +0.000 A 
ATOM     34  C   UNL     1       4.566   5.460  18.048  0.00  0.00    +0.000 A 
ATOM     35  C   UNL     1       5.148   4.248  17.671  0.00  0.00    +0.000 A 
ATOM     36  C   UNL     1       4.344   3.170  17.323  0.00  0.00    +0.000 A 
ATOM     37  C   UNL     1       2.959   3.299  17.357  0.00  0.00    +0.000 A 
ATOM     38  C   UNL     1       2.380   4.519  17.718  0.00  0.00    +0.000 A 
ENDBRANCH  30  33
ENDBRANCH  26  27
ENDBRANCH  25  26
ENDBRANCH   4  25
TORSDOF 10
ENDMDL
MODEL 2
REMARK VINA RESULT:      -8.3      4.483     10.354
REMARK  Name = 
REMARK  11 active torsions:
REMARK  status: ('A' for Active; 'I' for Inactive)
REMARK    1  A    between atoms: C_1  and  C_2
REMARK    2  A    between atoms: C_2  and  N_3
REMARK    3  A    between atoms: C_2  and  C_4
REMARK    4  A    between atoms: C_2  and  C_6
REMARK    5  A    between atoms: C_4  and  O_5
REMARK    6  A    between atoms: C_8  and  C_9
REMARK    7  A    between atoms: C_12  and  O_13
REMARK    8  A    between atoms: O_13  and  C_14
REMARK    9  A    between atoms: C_14  and  C_15
REMARK   10  A    between atoms: C_18  and  C_19
REMARK   11  A    between atoms: C_27  and  C_28
REMARK                            x       y       z     vdW  Elec       q    Type
REMARK                         _______ _______ _______ _____ _____    ______ ____
ROOT
ATOM      1  C   UNL     1       2.209   7.569  18.591  0.00  0.00    +0.000 A 
ATOM      2  C   UNL     1       2.438   8.569  17.652  0.00  0.00    +0.000 A 
ATOM      3  C   UNL     1       2.031   9.872  17.904  0.00  0.00    +0.000 A 
ATOM      4  C   UNL     1       1.428  10.218  19.121  0.00  0.00    +0.000 A 
ATOM      5  C   UNL     1       1.117   9.215  20.049  0.00  0.00    +0.000 A 
ATOM      6  C   UNL     1       1.510   7.889  19.762  0.00  0.00    +0.000 A 
ENDROOT
BRANCH   1   9
ATOM      7  C   UNL     1       3.005   4.113  18.648  0.00  0.00    +0.000 A 
ATOM      8  N   UNL     1       2.269   5.128  19.070  0.00  0.00    +0.000 NA
ATOM      9  C   UNL     1       2.721   6.228  18.386  0.00  0.00    +0.000 A 
ATOM     10  C   UNL     1       3.747   5.882  17.542  0.00  0.00    +0.000 A 
ATOM     11  N   UNL     1       3.914   4.540  17.711  0.00  0.00    +0.000 N 
ATOM     12  H   UNL     1       4.590   3.956  17.242  0.00  0.00    +0.000 HD
BRANCH   7  14
ATOM     13  C   UNL     1       1.603   2.462  19.880  0.00  0.00    +0.000 C 
ATOM     14  C   UNL     1       2.895   2.664  19.072  0.00  0.00    +0.000 C 
BRANCH  14  15
ATOM     15  N   UNL     1       2.853   1.802  17.875  0.00  0.00    +0.000 NA
ATOM     16  H   UNL     1       2.243   1.006  18.068  0.00  0.00    +0.000 HD
ATOM     17  H   UNL     1       3.771   1.420  17.668  0.00  0.00    +0.000 HD
ENDBRANCH  14  15
BRANCH  14  18
ATOM     18  C   UNL     1       4.128   2.269  19.938  0.00  0.00    +0.000 C 
BRANCH  18  19
ATOM     19  O   UNL     1       5.334   2.894  19.490  0.00  0.00    +0.000 OA
ATOM     20  H   UNL     1       6.057   2.339  19.853  0.00  0.00    +0.000 HD
ENDBRANCH  18  19
ENDBRANCH  14  18
ENDBRANCH   7  14
ENDBRANCH   1   9
BRANCH   5  21
ATOM     21  C   UNL     1       0.425   9.463  21.365  0.00  0.00    +0.000 C 
ATOM     22  F   UNL     1       0.158   8.365  22.123  0.00  0.00    +0.000 F 
ATOM     23  F   UNL     1       1.151  10.293  22.173  0.00  0.00    +0.000 F 
ATOM     24  F   UNL     1      -0.777  10.091  21.197  0.00  0.00    +0.000 F 
ENDBRANCH   5  21
BRANCH   4  25
ATOM     25  O   UNL     1       1.156  11.522  19.444  0.00  0.00    +0.000 OA
BRANCH  25  26
ATOM     26  C   UNL     1       0.321  12.192  18.489  0.00  0.00    +0.000 C 
BRANCH  26  27
ATOM     27  C   UNL     1      -1.112  12.241  18.931  0.00  0.00    +0.000 A 
ATOM     28  C   UNL     1      -1.460  13.057  20.014  0.00  0.00    +0.000 A 
ATOM     29  C   UNL     1      -2.782  13.130  20.443  0.00  0.00    +0.000 A 
ATOM     30  C   UNL     1      -3.803  12.418  19.792  0.00  0.00    +0.000 A 
ATOM     31  C   UNL     1      -3.442  11.641  18.677  0.00  0.00    +0.000 A 
ATOM     32  C   UNL     1      -2.114  11.548  18.252  0.00  0.00    +0.000 A 
BRANCH  30  33
ATOM     33  C   UNL     1      -5.192  12.461  20.297  0.00  0.00    +0.000 A 
ATOM     34  C   UNL     1      -5.473  12.774  21.640  0.00  0.00    +0.000 A 
ATOM     35  C   UNL     1      -6.777  12.732  22.138  0.00  0.00    +0.000 A 
ATOM     36  C   UNL     1      -7.832  12.398  21.298  0.00  0.00    +0.000 A 
ATOM     37  C   UNL     1      -7.587  12.114  19.958  0.00  0.00    +0.000 A 
ATOM     38  C   UNL     1      -6.279  12.141  19.466  0.00  0.00    +0.000 A 
ENDBRANCH  30  33
ENDBRANCH  26  27
ENDBRANCH  25  26
ENDBRANCH   4  25
TORSDOF 10
ENDMDL
MODEL 3
REMARK VINA RESULT:      -8.3      0.859      1.202
REMARK  Name = 
REMARK  11 active torsions:
REMARK  status: ('A' for Active; 'I' for Inactive)
REMARK    1  A    between atoms: C_1  and  C_2
REMARK    2  A    between atoms: C_2  and  N_3
REMARK    3  A    between atoms: C_2  and  C_4
REMARK    4  A    between atoms: C_2  and  C_6
REMARK    5  A    between atoms: C_4  and  O_5
REMARK    6  A    between atoms: C_8  and  C_9
REMARK    7  A    between atoms: C_12  and  O_13
REMARK    8  A    between atoms: O_13  and  C_14
REMARK    9  A    between atoms: C_14  and  C_15
REMARK   10  A    between atoms: C_18  and  C_19
REMARK   11  A    between atoms: C_27  and  C_28
REMARK                            x       y       z     vdW  Elec       q    Type
REMARK                         _______ _______ _______ _____ _____    ______ ____
ROOT
ATOM      1  C   UNL     1      -2.497  12.319  22.760  0.00  0.00    +0.000 A 
ATOM      2  C   UNL     1      -2.041  13.101  21.704  0.00  0.00    +0.000 A 
ATOM      3  C   UNL     1      -0.895  12.740  21.010  0.00  0.00    +0.000 A 
ATOM      4  C   UNL     1      -0.202  11.562  21.323  0.00  0.00    +0.000 A 
ATOM      5  C   UNL     1      -0.596  10.801  22.432  0.00  0.00    +0.000 A 
ATOM      6  C   UNL     1      -1.746  11.201  23.146  0.00  0.00    +0.000 A 
ENDROOT
BRANCH   1   9
ATOM      7  C   UNL     1      -5.706  13.449  23.762  0.00  0.00    +0.000 A 
ATOM      8  N   UNL     1      -4.771  13.326  22.835  0.00  0.00    +0.000 NA
ATOM      9  C   UNL     1      -3.748  12.627  23.425  0.00  0.00    +0.000 A 
ATOM     10  C   UNL     1      -4.061  12.324  24.727  0.00  0.00    +0.000 A 
ATOM     11  N   UNL     1      -5.305  12.843  24.928  0.00  0.00    +0.000 N 
ATOM     12  H   UNL     1      -5.841  12.802  25.782  0.00  0.00    +0.000 HD
BRANCH   7  14
ATOM     13  C   UNL     1      -7.723  13.654  22.313  0.00  0.00    +0.000 C 
ATOM     14  C   UNL     1      -7.056  14.118  23.618  0.00  0.00    +0.000 C 
BRANCH  14  15
ATOM     15  N   UNL     1      -7.916  13.746  24.758  0.00  0.00    +0.000 NA
ATOM     16  H   UNL     1      -8.877  13.653  24.423  0.00  0.00    +0.000 HD
ATOM     17  H   UNL     1      -7.924  14.476  25.463  0.00  0.00    +0.000 HD
ENDBRANCH  14  15
BRANCH  14  18
ATOM     18  C   UNL     1      -6.881  15.666  23.600  0.00  0.00    +0.000 C 
BRANCH  18  19
ATOM     19  O   UNL     1      -6.053  16.111  22.522  0.00  0.00    +0.000 OA
ATOM     20  H   UNL     1      -5.231  15.580  22.598  0.00  0.00    +0.000 HD
ENDBRANCH  18  19
ENDBRANCH  14  18
ENDBRANCH   7  14
ENDBRANCH   1   9
BRANCH   5  21
ATOM     21  C   UNL     1       0.105   9.548  22.891  0.00  0.00    +0.000 C 
ATOM     22  F   UNL     1       1.445   9.489  22.668  0.00  0.00    +0.000 F 
ATOM     23  F   UNL     1      -0.048   9.343  24.234  0.00  0.00    +0.000 F 
ATOM     24  F   UNL     1      -0.413   8.430  22.299  0.00  0.00    +0.000 F 
ENDBRANCH   5  21
BRANCH   4  25
ATOM     25  O   UNL     1       0.843  11.117  20.555  0.00  0.00    +0.000 OA
BRANCH  25  26
ATOM     26  C   UNL     1       0.436  10.496  19.328  0.00  0.00    +0.000 C 
BRANCH  26  27
ATOM     27  C   UNL     1       1.354   9.378  18.932  0.00  0.00    +0.000 A 
ATOM     28  C   UNL     1       1.537   8.306  19.813  0.00  0.00    +0.000 A 
ATOM     29  C   UNL     1       2.376   7.250  19.472  0.00  0.00    +0.000 A 
ATOM     30  C   UNL     1       3.036   7.210  18.233  0.00  0.00    +0.000 A 
ATOM     31  C   UNL     1       2.804   8.273  17.341  0.00  0.00    +0.000 A 
ATOM     32  C   UNL     1       1.978   9.346  17.684  0.00  0.00    +0.000 A 
BRANCH  30  33
ATOM     33  C   UNL     1       3.970   6.110  17.911  0.00  0.00    +0.000 A 
ATOM     34  C   UNL     1       4.172   5.038  18.799  0.00  0.00    +0.000 A 
ATOM     35  C   UNL     1       5.116   4.043  18.534  0.00  0.00    +0.000 A 
ATOM     36  C   UNL     1       5.861   4.085  17.363  0.00  0.00    +0.000 A 
ATOM     37  C   UNL     1       5.661   5.118  16.452  0.00  0.00    +0.000 A 
ATOM     38  C   UNL     1       4.727   6.122  16.727  0.00  0.00    +0.000 A 
ENDBRANCH  30  33
ENDBRANCH  26  27
ENDBRANCH  25  26
ENDBRANCH   4  25
TORSDOF 10
ENDMDL
MODEL 4
REMARK VINA RESULT:      -8.2      4.668     11.209
REMARK  Name = 
REMARK  11 active torsions:
REMARK  status: ('A' for Active; 'I' for Inactive)
REMARK    1  A    between atoms: C_1  and  C_2
REMARK    2  A    between atoms: C_2  and  N_3
REMARK    3  A    between atoms: C_2  and  C_4
REMARK    4  A    between atoms: C_2  and  C_6
REMARK    5  A    between atoms: C_4  and  O_5
REMARK    6  A    between atoms: C_8  and  C_9
REMARK    7  A    between atoms: C_12  and  O_13
REMARK    8  A    between atoms: O_13  and  C_14
REMARK    9  A    between atoms: C_14  and  C_15
REMARK   10  A    between atoms: C_18  and  C_19
REMARK   11  A    between atoms: C_27  and  C_28
REMARK                            x       y       z     vdW  Elec       q    Type
REMARK                         _______ _______ _______ _____ _____    ______ ____
ROOT
ATOM      1  C   UNL     1       2.673   7.579  18.438  0.00  0.00    +0.000 A 
ATOM      2  C   UNL     1       2.382   8.534  17.470  0.00  0.00    +0.000 A 
ATOM      3  C   UNL     1       1.565   9.613  17.776  0.00  0.00    +0.000 A 
ATOM      4  C   UNL     1       1.057   9.791  19.071  0.00  0.00    +0.000 A 
ATOM      5  C   UNL     1       1.272   8.801  20.040  0.00  0.00    +0.000 A 
ATOM      6  C   UNL     1       2.080   7.694  19.701  0.00  0.00    +0.000 A 
ENDROOT
BRANCH   1   9
ATOM      7  C   UNL     1       5.334   5.478  17.395  0.00  0.00    +0.000 A 
ATOM      8  N   UNL     1       4.795   6.681  17.498  0.00  0.00    +0.000 NA
ATOM      9  C   UNL     1       3.607   6.504  18.161  0.00  0.00    +0.000 A 
ATOM     10  C   UNL     1       3.417   5.179  18.462  0.00  0.00    +0.000 A 
ATOM     11  N   UNL     1       4.518   4.538  17.978  0.00  0.00    +0.000 N 
ATOM     12  H   UNL     1       4.706   3.548  18.027  0.00  0.00    +0.000 HD
BRANCH   7  14
ATOM     13  C   UNL     1       6.454   4.034  15.701  0.00  0.00    +0.000 C 
ATOM     14  C   UNL     1       6.664   5.121  16.768  0.00  0.00    +0.000 C 
BRANCH  14  15
ATOM     15  N   UNL     1       7.245   6.317  16.128  0.00  0.00    +0.000 NA
ATOM     16  H   UNL     1       7.407   6.111  15.140  0.00  0.00    +0.000 HD
ATOM     17  H   UNL     1       8.150   6.543  16.530  0.00  0.00    +0.000 HD
ENDBRANCH  14  15
BRANCH  14  18
ATOM     18  C   UNL     1       7.646   4.604  17.862  0.00  0.00    +0.000 C 
BRANCH  18  19
ATOM     19  O   UNL     1       7.248   4.993  19.180  0.00  0.00    +0.000 OA
ATOM     20  H   UNL     1       6.900   4.174  19.592  0.00  0.00    +0.000 HD
ENDBRANCH  18  19
ENDBRANCH  14  18
ENDBRANCH   7  14
ENDBRANCH   1   9
BRANCH   5  21
ATOM     21  C   UNL     1       0.732   8.861  21.446  0.00  0.00    +0.000 C 
ATOM     22  F   UNL     1      -0.601   8.638  21.591  0.00  0.00    +0.000 F 
ATOM     23  F   UNL     1       1.343   7.953  22.265  0.00  0.00    +0.000 F 
ATOM     24  F   UNL     1       0.964  10.076  22.028  0.00  0.00    +0.000 F 
ENDBRANCH   5  21
BRANCH   4  25
ATOM     25  O   UNL     1       0.373  10.924  19.426  0.00  0.00    +0.000 OA
BRANCH  25  26
ATOM     26  C   UNL     1      -0.835  11.130  18.680  0.00  0.00    +0.000 C 
BRANCH  26  27
ATOM     27  C   UNL     1      -1.929  11.705  19.529  0.00  0.00    +0.000 A 
ATOM     28  C   UNL     1      -1.656  12.023  20.865  0.00  0.00    +0.000 A 
ATOM     29  C   UNL     1      -2.647  12.566  21.677  0.00  0.00    +0.000 A 
ATOM     30  C   UNL     1      -3.932  12.837  21.179  0.00  0.00    +0.000 A 
ATOM     31  C   UNL     1      -4.175  12.556  19.823  0.00  0.00    +0.000 A 
ATOM     32  C   UNL     1      -3.190  11.993  19.007  0.00  0.00    +0.000 A 
BRANCH  30  33
ATOM     33  C   UNL     1      -4.990  13.359  22.070  0.00  0.00    +0.000 A 
ATOM     34  C   UNL     1      -4.806  14.540  22.813  0.00  0.00    +0.000 A 
ATOM     35  C   UNL     1      -5.771  14.987  23.718  0.00  0.00    +0.000 A 
ATOM     36  C   UNL     1      -6.952  14.276  23.884  0.00  0.00    +0.000 A 
ATOM     37  C   UNL     1      -7.175  13.121  23.140  0.00  0.00    +0.000 A 
ATOM     38  C   UNL     1      -6.200  12.666  22.247  0.00  0.00    +0.000 A 
ENDBRANCH  30  33
ENDBRANCH  26  27
ENDBRANCH  25  26
ENDBRANCH   4  25
TORSDOF 10
ENDMDL
MODEL 5
REMARK VINA RESULT:      -8.2      2.105      2.648
REMARK  Name = 
REMARK  11 active torsions:
REMARK  status: ('A' for Active; 'I' for Inactive)
REMARK    1  A    between atoms: C_1  and  C_2
REMARK    2  A    between atoms: C_2  and  N_3
REMARK    3  A    between atoms: C_2  and  C_4
REMARK    4  A    between atoms: C_2  and  C_6
REMARK    5  A    between atoms: C_4  and  O_5
REMARK    6  A    between atoms: C_8  and  C_9
REMARK    7  A    between atoms: C_12  and  O_13
REMARK    8  A    between atoms: O_13  and  C_14
REMARK    9  A    between atoms: C_14  and  C_15
REMARK   10  A    between atoms: C_18  and  C_19
REMARK   11  A    between atoms: C_27  and  C_28
REMARK                            x       y       z     vdW  Elec       q    Type
REMARK                         _______ _______ _______ _____ _____    ______ ____
ROOT
ATOM      1  C   UNL     1      -2.635  12.489  22.100  0.00  0.00    +0.000 A 
ATOM      2  C   UNL     1      -1.878  11.838  23.069  0.00  0.00    +0.000 A 
ATOM      3  C   UNL     1      -0.794  11.054  22.698  0.00  0.00    +0.000 A 
ATOM      4  C   UNL     1      -0.410  10.940  21.355  0.00  0.00    +0.000 A 
ATOM      5  C   UNL     1      -1.202  11.523  20.357  0.00  0.00    +0.000 A 
ATOM      6  C   UNL     1      -2.320  12.291  20.750  0.00  0.00    +0.000 A 
ENDROOT
BRANCH   1   9
ATOM      7  C   UNL     1      -5.665  14.265  22.591  0.00  0.00    +0.000 A 
ATOM      8  N   UNL     1      -5.012  13.225  22.102  0.00  0.00    +0.000 NA
ATOM      9  C   UNL     1      -3.704  13.393  22.479  0.00  0.00    +0.000 A 
ATOM     10  C   UNL     1      -3.557  14.551  23.203  0.00  0.00    +0.000 A 
ATOM     11  N   UNL     1      -4.806  15.092  23.273  0.00  0.00    +0.000 N 
ATOM     12  H   UNL     1      -5.061  15.952  23.734  0.00  0.00    +0.000 HD
BRANCH   7  14
ATOM     13  C   UNL     1      -7.359  15.940  21.861  0.00  0.00    +0.000 C 
ATOM     14  C   UNL     1      -7.148  14.550  22.480  0.00  0.00    +0.000 C 
BRANCH  14  15
ATOM     15  N   UNL     1      -7.782  13.536  21.615  0.00  0.00    +0.000 NA
ATOM     16  H   UNL     1      -7.102  12.798  21.426  0.00  0.00    +0.000 HD
ATOM     17  H   UNL     1      -8.037  13.932  20.716  0.00  0.00    +0.000 HD
ENDBRANCH  14  15
BRANCH  14  18
ATOM     18  C   UNL     1      -7.806  14.494  23.891  0.00  0.00    +0.000 C 
BRANCH  18  19
ATOM     19  O   UNL     1      -7.146  13.575  24.767  0.00  0.00    +0.000 OA
ATOM     20  H   UNL     1      -6.280  13.397  24.341  0.00  0.00    +0.000 HD
ENDBRANCH  18  19
ENDBRANCH  14  18
ENDBRANCH   7  14
ENDBRANCH   1   9
BRANCH   5  21
ATOM     21  C   UNL     1      -0.915  11.423  18.880  0.00  0.00    +0.000 C 
ATOM     22  F   UNL     1       0.341  11.765  18.485  0.00  0.00    +0.000 F 
ATOM     23  F   UNL     1      -1.110  10.155  18.409  0.00  0.00    +0.000 F 
ATOM     24  F   UNL     1      -1.756  12.209  18.144  0.00  0.00    +0.000 F 
ENDBRANCH   5  21
BRANCH   4  25
ATOM     25  O   UNL     1       0.741  10.292  20.989  0.00  0.00    +0.000 OA
BRANCH  25  26
ATOM     26  C   UNL     1       0.689   8.870  21.171  0.00  0.00    +0.000 C 
BRANCH  26  27
ATOM     27  C   UNL     1       1.536   8.143  20.169  0.00  0.00    +0.000 A 
ATOM     28  C   UNL     1       1.980   6.850  20.468  0.00  0.00    +0.000 A 
ATOM     29  C   UNL     1       2.761   6.146  19.556  0.00  0.00    +0.000 A 
ATOM     30  C   UNL     1       3.101   6.693  18.308  0.00  0.00    +0.000 A 
ATOM     31  C   UNL     1       2.606   7.975  18.006  0.00  0.00    +0.000 A 
ATOM     32  C   UNL     1       1.838   8.695  18.924  0.00  0.00    +0.000 A 
BRANCH  30  33
ATOM     33  C   UNL     1       3.980   5.956  17.376  0.00  0.00    +0.000 A 
ATOM     34  C   UNL     1       4.771   6.630  16.427  0.00  0.00    +0.000 A 
ATOM     35  C   UNL     1       5.536   5.932  15.491  0.00  0.00    +0.000 A 
ATOM     36  C   UNL     1       5.546   4.542  15.497  0.00  0.00    +0.000 A 
ATOM     37  C   UNL     1       4.796   3.850  16.443  0.00  0.00    +0.000 A 
ATOM     38  C   UNL     1       4.018   4.551  17.369  0.00  0.00    +0.000 A 
ENDBRANCH  30  33
ENDBRANCH  26  27
ENDBRANCH  25  26
ENDBRANCH   4  25
TORSDOF 10
ENDMDL
MODEL 6
REMARK VINA RESULT:      -8.2      4.572     11.203
REMARK  Name = 
REMARK  11 active torsions:
REMARK  status: ('A' for Active; 'I' for Inactive)
REMARK    1  A    between atoms: C_1  and  C_2
REMARK    2  A    between atoms: C_2  and  N_3
REMARK    3  A    between atoms: C_2  and  C_4
REMARK    4  A    between atoms: C_2  and  C_6
REMARK    5  A    between atoms: C_4  and  O_5
REMARK    6  A    between atoms: C_8  and  C_9
REMARK    7  A    between atoms: C_12  and  O_13
REMARK    8  A    between atoms: O_13  and  C_14
REMARK    9  A    between atoms: C_14  and  C_15
REMARK   10  A    between atoms: C_18  and  C_19
REMARK   11  A    between atoms: C_27  and  C_28
REMARK                            x       y       z     vdW  Elec       q    Type
REMARK                         _______ _______ _______ _____ _____    ______ ____
ROOT
ATOM      1  C   UNL     1       2.299   7.805  18.594  0.00  0.00    +0.000 A 
ATOM      2  C   UNL     1       1.970   8.762  17.640  0.00  0.00    +0.000 A 
ATOM      3  C   UNL     1       1.215   9.872  17.994  0.00  0.00    +0.000 A 
ATOM      4  C   UNL     1       0.811  10.078  19.320  0.00  0.00    +0.000 A 
ATOM      5  C   UNL     1       1.063   9.090  20.281  0.00  0.00    +0.000 A 
ATOM      6  C   UNL     1       1.805   7.952  19.896  0.00  0.00    +0.000 A 
ENDROOT
BRANCH   1   9
ATOM      7  C   UNL     1       4.949   5.625  17.697  0.00  0.00    +0.000 A 
ATOM      8  N   UNL     1       4.514   6.834  18.009  0.00  0.00    +0.000 NA
ATOM      9  C   UNL     1       3.173   6.697  18.262  0.00  0.00    +0.000 A 
ATOM     10  C   UNL     1       2.784   5.391  18.096  0.00  0.00    +0.000 A 
ATOM     11  N   UNL     1       3.917   4.720  17.745  0.00  0.00    +0.000 N 
ATOM     12  H   UNL     1       3.993   3.734  17.545  0.00  0.00    +0.000 HD
BRANCH   7  14
ATOM     13  C   UNL     1       7.278   6.460  17.402  0.00  0.00    +0.000 C 
ATOM     14  C   UNL     1       6.368   5.222  17.356  0.00  0.00    +0.000 C 
BRANCH  14  15
ATOM     15  N   UNL     1       6.850   4.233  18.340  0.00  0.00    +0.000 NA
ATOM     16  H   UNL     1       6.106   4.060  19.018  0.00  0.00    +0.000 HD
ATOM     17  H   UNL     1       7.642   4.595  18.862  0.00  0.00    +0.000 HD
ENDBRANCH  14  15
BRANCH  14  18
ATOM     18  C   UNL     1       6.411   4.586  15.935  0.00  0.00    +0.000 C 
BRANCH  18  19
ATOM     19  O   UNL     1       5.889   3.254  15.916  0.00  0.00    +0.000 OA
ATOM     20  H   UNL     1       6.480   2.742  16.508  0.00  0.00    +0.000 HD
ENDBRANCH  18  19
ENDBRANCH  14  18
ENDBRANCH   7  14
ENDBRANCH   1   9
BRANCH   5  21
ATOM     21  C   UNL     1       0.631   9.180  21.723  0.00  0.00    +0.000 C 
ATOM     22  F   UNL     1       1.398   8.513  22.626  0.00  0.00    +0.000 F 
ATOM     23  F   UNL     1       0.597  10.474  22.163  0.00  0.00    +0.000 F 
ATOM     24  F   UNL     1      -0.639   8.709  21.904  0.00  0.00    +0.000 F 
ENDBRANCH   5  21
BRANCH   4  25
ATOM     25  O   UNL     1       0.194  11.237  19.712  0.00  0.00    +0.000 OA
BRANCH  25  26
ATOM     26  C   UNL     1      -0.996  11.540  18.971  0.00  0.00    +0.000 C 
BRANCH  26  27
ATOM     27  C   UNL     1      -2.109  12.008  19.860  0.00  0.00    +0.000 A 
ATOM     28  C   UNL     1      -3.396  12.136  19.327  0.00  0.00    +0.000 A 
ATOM     29  C   UNL     1      -4.452  12.559  20.128  0.00  0.00    +0.000 A 
ATOM     30  C   UNL     1      -4.268  12.842  21.492  0.00  0.00    +0.000 A 
ATOM     31  C   UNL     1      -2.977  12.663  22.022  0.00  0.00    +0.000 A 
ATOM     32  C   UNL     1      -1.909  12.256  21.219  0.00  0.00    +0.000 A 
BRANCH  30  33
ATOM     33  C   UNL     1      -5.387  13.348  22.314  0.00  0.00    +0.000 A 
ATOM     34  C   UNL     1      -5.297  14.575  22.999  0.00  0.00    +0.000 A 
ATOM     35  C   UNL     1      -6.319  15.012  23.843  0.00  0.00    +0.000 A 
ATOM     36  C   UNL     1      -7.465  14.244  24.004  0.00  0.00    +0.000 A 
ATOM     37  C   UNL     1      -7.595  13.041  23.316  0.00  0.00    +0.000 A 
ATOM     38  C   UNL     1      -6.563  12.597  22.484  0.00  0.00    +0.000 A 
ENDBRANCH  30  33
ENDBRANCH  26  27
ENDBRANCH  25  26
ENDBRANCH   4  25
TORSDOF 10
ENDMDL
MODEL 7
REMARK VINA RESULT:      -8.2      4.595     11.272
REMARK  Name = 
REMARK  11 active torsions:
REMARK  status: ('A' for Active; 'I' for Inactive)
REMARK    1  A    between atoms: C_1  and  C_2
REMARK    2  A    between atoms: C_2  and  N_3
REMARK    3  A    between atoms: C_2  and  C_4
REMARK    4  A    between atoms: C_2  and  C_6
REMARK    5  A    between atoms: C_4  and  O_5
REMARK    6  A    between atoms: C_8  and  C_9
REMARK    7  A    between atoms: C_12  and  O_13
REMARK    8  A    between atoms: O_13  and  C_14
REMARK    9  A    between atoms: C_14  and  C_15
REMARK   10  A    between atoms: C_18  and  C_19
REMARK   11  A    between atoms: C_27  and  C_28
REMARK                            x       y       z     vdW  Elec       q    Type
REMARK                         _______ _______ _______ _____ _____    ______ ____
ROOT
ATOM      1  C   UNL     1       2.362   7.806  18.539  0.00  0.00    +0.000 A 
ATOM      2  C   UNL     1       2.056   8.787  17.601  0.00  0.00    +0.000 A 
ATOM      3  C   UNL     1       1.288   9.885  17.962  0.00  0.00    +0.000 A 
ATOM      4  C   UNL     1       0.848  10.055  19.282  0.00  0.00    +0.000 A 
ATOM      5  C   UNL     1       1.077   9.043  20.224  0.00  0.00    +0.000 A 
ATOM      6  C   UNL     1       1.833   7.918  19.830  0.00  0.00    +0.000 A 
ENDROOT
BRANCH   1   9
ATOM      7  C   UNL     1       5.028   5.663  17.599  0.00  0.00    +0.000 A 
ATOM      8  N   UNL     1       4.577   6.870  17.898  0.00  0.00    +0.000 NA
ATOM      9  C   UNL     1       3.249   6.709  18.201  0.00  0.00    +0.000 A 
ATOM     10  C   UNL     1       2.884   5.391  18.082  0.00  0.00    +0.000 A 
ATOM     11  N   UNL     1       4.019   4.737  17.706  0.00  0.00    +0.000 N 
ATOM     12  H   UNL     1       4.110   3.748  17.527  0.00  0.00    +0.000 HD
BRANCH   7  14
ATOM     13  C   UNL     1       7.360   6.507  17.359  0.00  0.00    +0.000 C 
ATOM     14  C   UNL     1       6.442   5.283  17.217  0.00  0.00    +0.000 C 
BRANCH  14  15
ATOM     15  N   UNL     1       6.925   4.213  18.112  0.00  0.00    +0.000 NA
ATOM     16  H   UNL     1       7.914   4.377  18.311  0.00  0.00    +0.000 HD
ATOM     17  H   UNL     1       6.867   3.305  17.661  0.00  0.00    +0.000 HD
ENDBRANCH  14  15
BRANCH  14  18
ATOM     18  C   UNL     1       6.474   4.766  15.747  0.00  0.00    +0.000 C 
BRANCH  18  19
ATOM     19  O   UNL     1       7.505   5.385  14.973  0.00  0.00    +0.000 OA
ATOM     20  H   UNL     1       7.203   6.310  14.841  0.00  0.00    +0.000 HD
ENDBRANCH  18  19
ENDBRANCH  14  18
ENDBRANCH   7  14
ENDBRANCH   1   9
BRANCH   5  21
ATOM     21  C   UNL     1       0.606   9.096  21.656  0.00  0.00    +0.000 C 
ATOM     22  F   UNL     1      -0.670   8.684  21.887  0.00  0.00    +0.000 F 
ATOM     23  F   UNL     1       1.387   8.331  22.476  0.00  0.00    +0.000 F 
ATOM     24  F   UNL     1       0.680  10.360  22.169  0.00  0.00    +0.000 F 
ENDBRANCH   5  21
BRANCH   4  25
ATOM     25  O   UNL     1       0.217  11.203  19.687  0.00  0.00    +0.000 OA
BRANCH  25  26
ATOM     26  C   UNL     1      -1.008  11.468  18.989  0.00  0.00    +0.000 C 
BRANCH  26  27
ATOM     27  C   UNL     1      -2.082  11.971  19.907  0.00  0.00    +0.000 A 
ATOM     28  C   UNL     1      -3.367  12.183  19.396  0.00  0.00    +0.000 A 
ATOM     29  C   UNL     1      -4.387  12.641  20.224  0.00  0.00    +0.000 A 
ATOM     30  C   UNL     1      -4.170  12.875  21.592  0.00  0.00    +0.000 A 
ATOM     31  C   UNL     1      -2.884  12.611  22.098  0.00  0.00    +0.000 A 
ATOM     32  C   UNL     1      -1.850  12.169  21.269  0.00  0.00    +0.000 A 
BRANCH  30  33
ATOM     33  C   UNL     1      -5.248  13.418  22.445  0.00  0.00    +0.000 A 
ATOM     34  C   UNL     1      -6.449  12.712  22.644  0.00  0.00    +0.000 A 
ATOM     35  C   UNL     1      -7.502  13.262  23.380  0.00  0.00    +0.000 A 
ATOM     36  C   UNL     1      -7.367  14.520  23.953  0.00  0.00    +0.000 A 
ATOM     37  C   UNL     1      -6.179  15.228  23.797  0.00  0.00    +0.000 A 
ATOM     38  C   UNL     1      -5.134  14.683  23.047  0.00  0.00    +0.000 A 
ENDBRANCH  30  33
ENDBRANCH  26  27
ENDBRANCH  25  26
ENDBRANCH   4  25
TORSDOF 10
ENDMDL
MODEL 8
REMARK VINA RESULT:      -8.1      4.217     10.397
REMARK  Name = 
REMARK  11 active torsions:
REMARK  status: ('A' for Active; 'I' for Inactive)
REMARK    1  A    between atoms: C_1  and  C_2
REMARK    2  A    between atoms: C_2  and  N_3
REMARK    3  A    between atoms: C_2  and  C_4
REMARK    4  A    between atoms: C_2  and  C_6
REMARK    5  A    between atoms: C_4  and  O_5
REMARK    6  A    between atoms: C_8  and  C_9
REMARK    7  A    between atoms: C_12  and  O_13
REMARK    8  A    between atoms: O_13  and  C_14
REMARK    9  A    between atoms: C_14  and  C_15
REMARK   10  A    between atoms: C_18  and  C_19
REMARK   11  A    between atoms: C_27  and  C_28
REMARK                            x       y       z     vdW  Elec       q    Type
REMARK                         _______ _______ _______ _____ _____    ______ ____
ROOT
ATOM      1  C   UNL     1       2.155   7.720  18.783  0.00  0.00    +0.000 A 
ATOM      2  C   UNL     1       2.123   8.603  17.708  0.00  0.00    +0.000 A 
ATOM      3  C   UNL     1       1.594   9.876  17.865  0.00  0.00    +0.000 A 
ATOM      4  C   UNL     1       1.127  10.316  19.111  0.00  0.00    +0.000 A 
ATOM      5  C   UNL     1       1.076   9.420  20.187  0.00  0.00    +0.000 A 
ATOM      6  C   UNL     1       1.590   8.118  20.001  0.00  0.00    +0.000 A 
ENDROOT
BRANCH   1   9
ATOM      7  C   UNL     1       3.175   4.326  18.923  0.00  0.00    +0.000 A 
ATOM      8  N   UNL     1       2.290   5.269  19.196  0.00  0.00    +0.000 NA
ATOM      9  C   UNL     1       2.799   6.426  18.661  0.00  0.00    +0.000 A 
ATOM     10  C   UNL     1       4.009   6.186  18.059  0.00  0.00    +0.000 A 
ATOM     11  N   UNL     1       4.235   4.852  18.225  0.00  0.00    +0.000 N 
ATOM     12  H   UNL     1       5.039   4.336  17.904  0.00  0.00    +0.000 HD
BRANCH   7  14
ATOM     13  C   UNL     1       4.347   2.427  20.032  0.00  0.00    +0.000 C 
ATOM     14  C   UNL     1       3.082   2.855  19.271  0.00  0.00    +0.000 C 
BRANCH  14  15
ATOM     15  N   UNL     1       1.903   2.624  20.127  0.00  0.00    +0.000 NA
ATOM     16  H   UNL     1       2.052   3.095  21.021  0.00  0.00    +0.000 HD
ATOM     17  H   UNL     1       1.791   1.636  20.335  0.00  0.00    +0.000 HD
ENDBRANCH  14  15
BRANCH  14  18
ATOM     18  C   UNL     1       2.937   2.010  17.970  0.00  0.00    +0.000 C 
BRANCH  18  19
ATOM     19  O   UNL     1       2.224   2.706  16.943  0.00  0.00    +0.000 OA
ATOM     20  H   UNL     1       2.890   2.879  16.244  0.00  0.00    +0.000 HD
ENDBRANCH  18  19
ENDBRANCH  14  18
ENDBRANCH   7  14
ENDBRANCH   1   9
BRANCH   5  21
ATOM     21  C   UNL     1       0.547   9.768  21.555  0.00  0.00    +0.000 C 
ATOM     22  F   UNL     1       0.854  11.007  22.024  0.00  0.00    +0.000 F 
ATOM     23  F   UNL     1      -0.817   9.688  21.608  0.00  0.00    +0.000 F 
ATOM     24  F   UNL     1       0.992   8.896  22.509  0.00  0.00    +0.000 F 
ENDBRANCH   5  21
BRANCH   4  25
ATOM     25  O   UNL     1       0.739  11.615  19.315  0.00  0.00    +0.000 OA
BRANCH  25  26
ATOM     26  C   UNL     1      -0.339  12.038  18.469  0.00  0.00    +0.000 C 
BRANCH  26  27
ATOM     27  C   UNL     1      -1.628  12.171  19.223  0.00  0.00    +0.000 A 
ATOM     28  C   UNL     1      -1.602  12.682  20.526  0.00  0.00    +0.000 A 
ATOM     29  C   UNL     1      -2.781  12.825  21.250  0.00  0.00    +0.000 A 
ATOM     30  C   UNL     1      -4.027  12.494  20.692  0.00  0.00    +0.000 A 
ATOM     31  C   UNL     1      -4.039  12.027  19.365  0.00  0.00    +0.000 A 
ATOM     32  C   UNL     1      -2.857  11.863  18.639  0.00  0.00    +0.000 A 
BRANCH  30  33
ATOM     33  C   UNL     1      -5.264  12.597  21.495  0.00  0.00    +0.000 A 
ATOM     34  C   UNL     1      -5.244  13.094  22.811  0.00  0.00    +0.000 A 
ATOM     35  C   UNL     1      -6.397  13.112  23.599  0.00  0.00    +0.000 A 
ATOM     36  C   UNL     1      -7.602  12.656  23.080  0.00  0.00    +0.000 A 
ATOM     37  C   UNL     1      -7.658  12.187  21.771  0.00  0.00    +0.000 A 
ATOM     38  C   UNL     1      -6.499  12.154  20.990  0.00  0.00    +0.000 A 
ENDBRANCH  30  33
ENDBRANCH  26  27
ENDBRANCH  25  26
ENDBRANCH   4  25
TORSDOF 10
ENDMDL
MODEL 9
REMARK VINA RESULT:      -8.1      4.551     10.808
REMARK  Name = 
REMARK  11 active torsions:
REMARK  status: ('A' for Active; 'I' for Inactive)
REMARK    1  A    between atoms: C_1  and  C_2
REMARK    2  A    between atoms: C_2  and  N_3
REMARK    3  A    between atoms: C_2  and  C_4
REMARK    4  A    between atoms: C_2  and  C_6
REMARK    5  A    between atoms: C_4  and  O_5
REMARK    6  A    between atoms: C_8  and  C_9
REMARK    7  A    between atoms: C_12  and  O_13
REMARK    8  A    between atoms: O_13  and  C_14
REMARK    9  A    between atoms: C_14  and  C_15
REMARK   10  A    between atoms: C_18  and  C_19
REMARK   11  A    between atoms: C_27  and  C_28
REMARK                            x       y       z     vdW  Elec       q    Type
REMARK                         _______ _______ _______ _____ _____    ______ ____
ROOT
ATOM      1  C   UNL     1       2.279   7.446  18.812  0.00  0.00    +0.000 A 
ATOM      2  C   UNL     1       2.153   8.305  17.725  0.00  0.00    +0.000 A 
ATOM      3  C   UNL     1       1.549   9.545  17.881  0.00  0.00    +0.000 A 
ATOM      4  C   UNL     1       1.100   9.977  19.136  0.00  0.00    +0.000 A 
ATOM      5  C   UNL     1       1.145   9.099  20.227  0.00  0.00    +0.000 A 
ATOM      6  C   UNL     1       1.734   7.829  20.043  0.00  0.00    +0.000 A 
ENDROOT
BRANCH   1   9
ATOM      7  C   UNL     1       3.440   4.094  18.831  0.00  0.00    +0.000 A 
ATOM      8  N   UNL     1       2.477   4.975  19.040  0.00  0.00    +0.000 NA
ATOM      9  C   UNL     1       3.000   6.193  18.686  0.00  0.00    +0.000 A 
ATOM     10  C   UNL     1       4.298   6.054  18.261  0.00  0.00    +0.000 A 
ATOM     11  N   UNL     1       4.564   4.720  18.352  0.00  0.00    +0.000 N 
ATOM     12  H   UNL     1       5.434   4.266  18.118  0.00  0.00    +0.000 HD
BRANCH   7  14
ATOM     13  C   UNL     1       1.901   2.155  19.116  0.00  0.00    +0.000 C 
ATOM     14  C   UNL     1       3.372   2.596  19.040  0.00  0.00    +0.000 C 
BRANCH  14  15
ATOM     15  N   UNL     1       4.022   1.910  17.907  0.00  0.00    +0.000 NA
ATOM     16  H   UNL     1       3.882   2.469  17.064  0.00  0.00    +0.000 HD
ATOM     17  H   UNL     1       3.591   1.007  17.732  0.00  0.00    +0.000 HD
ENDBRANCH  14  15
BRANCH  14  18
ATOM     18  C   UNL     1       4.109   2.210  20.357  0.00  0.00    +0.000 C 
BRANCH  18  19
ATOM     19  O   UNL     1       5.299   1.454  20.116  0.00  0.00    +0.000 OA
ATOM     20  H   UNL     1       5.755   1.925  19.386  0.00  0.00    +0.000 HD
ENDBRANCH  18  19
ENDBRANCH  14  18
ENDBRANCH   7  14
ENDBRANCH   1   9
BRANCH   5  21
ATOM     21  C   UNL     1       0.644   9.437  21.609  0.00  0.00    +0.000 C 
ATOM     22  F   UNL     1      -0.701   9.365  21.798  0.00  0.00    +0.000 F 
ATOM     23  F   UNL     1       1.188   8.621  22.561  0.00  0.00    +0.000 F 
ATOM     24  F   UNL     1       0.998  10.703  21.982  0.00  0.00    +0.000 F 
ENDBRANCH   5  21
BRANCH   4  25
ATOM     25  O   UNL     1       0.637  11.252  19.335  0.00  0.00    +0.000 OA
BRANCH  25  26
ATOM     26  C   UNL     1      -0.537  11.567  18.573  0.00  0.00    +0.000 C 
BRANCH  26  27
ATOM     27  C   UNL     1      -1.679  11.989  19.450  0.00  0.00    +0.000 A 
ATOM     28  C   UNL     1      -2.983  11.914  18.948  0.00  0.00    +0.000 A 
ATOM     29  C   UNL     1      -4.065  12.290  19.738  0.00  0.00    +0.000 A 
ATOM     30  C   UNL     1      -3.887  12.724  21.062  0.00  0.00    +0.000 A 
ATOM     31  C   UNL     1      -2.574  12.748  21.566  0.00  0.00    +0.000 A 
ATOM     32  C   UNL     1      -1.482  12.390  20.771  0.00  0.00    +0.000 A 
BRANCH  30  33
ATOM     33  C   UNL     1      -5.041  13.176  21.869  0.00  0.00    +0.000 A 
ATOM     34  C   UNL     1      -6.340  12.696  21.621  0.00  0.00    +0.000 A 
ATOM     35  C   UNL     1      -7.443  13.185  22.325  0.00  0.00    +0.000 A 
ATOM     36  C   UNL     1      -7.267  14.149  23.310  0.00  0.00    +0.000 A 
ATOM     37  C   UNL     1      -5.989  14.620  23.597  0.00  0.00    +0.000 A 
ATOM     38  C   UNL     1      -4.890  14.141  22.879  0.00  0.00    +0.000 A 
ENDBRANCH  30  33
ENDBRANCH  26  27
ENDBRANCH  25  26
ENDBRANCH   4  25
TORSDOF 10
ENDMDL
