MODEL 1
REMARK VINA RESULT:      -7.4      0.000      0.000
REMARK  Name = 
REMARK  7 active torsions:
REMARK  status: ('A' for Active; 'I' for Inactive)
REMARK    1  A    between atoms: C_1  and  C_2
REMARK    2  A    between atoms: C_2  and  N_3
REMARK    3  A    between atoms: C_4  and  C_5
REMARK    4  A    between atoms: C_5  and  C_6
REMARK    5  A    between atoms: C_11  and  C_12
REMARK    6  A    between atoms: N_17  and  C_18
REMARK    7  A    between atoms: C_18  and  C_19
REMARK                            x       y       z     vdW  Elec       q    Type
REMARK                         _______ _______ _______ _____ _____    ______ ____
ROOT
ATOM      1  C   UNL     1       3.963   4.766  18.020  0.00  0.00    +0.000 A 
ATOM      2  C   UNL     1       3.553   4.501  19.332  0.00  0.00    +0.000 A 
ATOM      3  C   UNL     1       2.847   5.466  20.054  0.00  0.00    +0.000 A 
ATOM      4  C   UNL     1       2.521   6.706  19.483  0.00  0.00    +0.000 A 
ATOM      5  C   UNL     1       1.771   7.666  20.186  0.00  0.00    +0.000 A 
ATOM      6  C   UNL     1       1.420   8.885  19.595  0.00  0.00    +0.000 A 
ATOM      7  C   UNL     1       0.652   9.919  20.365  0.00  0.00    +0.000 C 
ATOM      8  C   UNL     1       1.804   9.138  18.276  0.00  0.00    +0.000 A 
ATOM      9  C   UNL     1       2.557   8.199  17.568  0.00  0.00    +0.000 A 
ATOM     10  C   UNL     1       2.942   6.990  18.167  0.00  0.00    +0.000 A 
ATOM     11  C   UNL     1       3.700   6.032  17.467  0.00  0.00    +0.000 A 
ENDROOT
BRANCH   1  12
ATOM     12  C   UNL     1       4.577   3.681  17.169  0.00  0.00    +0.000 C 
BRANCH  12  14
ATOM     13  N   UNL     1       5.475   4.027  14.989  0.00  0.00    +0.000 NA
ATOM     14  C   UNL     1       5.768   4.051  16.254  0.00  0.00    +0.000 C 
ATOM     15  N   UNL     1       7.053   4.281  16.716  0.00  0.00    +0.000 N 
ATOM     16  H   UNL     1       7.802   4.008  16.102  0.00  0.00    +0.000 HD
BRANCH  13  18
ATOM     17  C   UNL     1       6.239   3.617  12.720  0.00  0.00    +0.000 C 
ATOM     18  C   UNL     1       6.508   4.368  14.015  0.00  0.00    +0.000 C 
ENDBRANCH  13  18
BRANCH  15  19
ATOM     19  C   UNL     1       7.458   4.753  18.021  0.00  0.00    +0.000 C 
ATOM     20  C   UNL     1       7.421   6.257  18.122  0.00  0.00    +0.000 C 
ENDBRANCH  15  19
ENDBRANCH  12  14
ENDBRANCH   1  12
TORSDOF 4
ENDMDL
MODEL 2
REMARK VINA RESULT:      -7.3      1.996      4.440
REMARK  Name = 
REMARK  7 active torsions:
REMARK  status: ('A' for Active; 'I' for Inactive)
REMARK    1  A    between atoms: C_1  and  C_2
REMARK    2  A    between atoms: C_2  and  N_3
REMARK    3  A    between atoms: C_4  and  C_5
REMARK    4  A    between atoms: C_5  and  C_6
REMARK    5  A    between atoms: C_11  and  C_12
REMARK    6  A    between atoms: N_17  and  C_18
REMARK    7  A    between atoms: C_18  and  C_19
REMARK                            x       y       z     vdW  Elec       q    Type
REMARK                         _______ _______ _______ _____ _____    ______ ____
ROOT
ATOM      1  C   UNL     1       3.979   6.175  17.333  0.00  0.00    +0.000 A 
ATOM      2  C   UNL     1       3.208   6.998  18.164  0.00  0.00    +0.000 A 
ATOM      3  C   UNL     1       2.490   6.445  19.226  0.00  0.00    +0.000 A 
ATOM      4  C   UNL     1       2.534   5.068  19.495  0.00  0.00    +0.000 A 
ATOM      5  C   UNL     1       1.851   4.510  20.590  0.00  0.00    +0.000 A 
ATOM      6  C   UNL     1       1.931   3.141  20.871  0.00  0.00    +0.000 A 
ATOM      7  C   UNL     1       1.169   2.547  22.019  0.00  0.00    +0.000 C 
ATOM      8  C   UNL     1       2.722   2.325  20.061  0.00  0.00    +0.000 A 
ATOM      9  C   UNL     1       3.400   2.863  18.964  0.00  0.00    +0.000 A 
ATOM     10  C   UNL     1       3.295   4.227  18.657  0.00  0.00    +0.000 A 
ATOM     11  C   UNL     1       3.972   4.787  17.556  0.00  0.00    +0.000 A 
ENDROOT
BRANCH   1  12
ATOM     12  C   UNL     1       4.891   6.771  16.289  0.00  0.00    +0.000 C 
BRANCH  12  14
ATOM     13  N   UNL     1       6.756   7.835  17.322  0.00  0.00    +0.000 NA
ATOM     14  C   UNL     1       6.409   6.824  16.585  0.00  0.00    +0.000 C 
ATOM     15  N   UNL     1       7.333   5.952  16.035  0.00  0.00    +0.000 N 
ATOM     16  H   UNL     1       8.248   6.331  15.851  0.00  0.00    +0.000 HD
BRANCH  13  18
ATOM     17  C   UNL     1       8.396   9.433  18.134  0.00  0.00    +0.000 C 
ATOM     18  C   UNL     1       8.160   7.999  17.686  0.00  0.00    +0.000 C 
ENDBRANCH  13  18
BRANCH  15  19
ATOM     19  C   UNL     1       7.116   4.597  15.578  0.00  0.00    +0.000 C 
ATOM     20  C   UNL     1       6.749   4.539  14.116  0.00  0.00    +0.000 C 
ENDBRANCH  15  19
ENDBRANCH  12  14
ENDBRANCH   1  12
TORSDOF 4
ENDMDL
MODEL 3
REMARK VINA RESULT:      -7.3      1.612      3.490
REMARK  Name = 
REMARK  7 active torsions:
REMARK  status: ('A' for Active; 'I' for Inactive)
REMARK    1  A    between atoms: C_1  and  C_2
REMARK    2  A    between atoms: C_2  and  N_3
REMARK    3  A    between atoms: C_4  and  C_5
REMARK    4  A    between atoms: C_5  and  C_6
REMARK    5  A    between atoms: C_11  and  C_12
REMARK    6  A    between atoms: N_17  and  C_18
REMARK    7  A    between atoms: C_18  and  C_19
REMARK                            x       y       z     vdW  Elec       q    Type
REMARK                         _______ _______ _______ _____ _____    ______ ____
ROOT
ATOM      1  C   UNL     1       3.937   6.243  17.425  0.00  0.00    +0.000 A 
ATOM      2  C   UNL     1       3.199   7.058  18.292  0.00  0.00    +0.000 A 
ATOM      3  C   UNL     1       2.496   6.492  19.357  0.00  0.00    +0.000 A 
ATOM      4  C   UNL     1       2.523   5.109  19.592  0.00  0.00    +0.000 A 
ATOM      5  C   UNL     1       1.855   4.536  20.689  0.00  0.00    +0.000 A 
ATOM      6  C   UNL     1       1.918   3.159  20.936  0.00  0.00    +0.000 A 
ATOM      7  C   UNL     1       1.173   2.550  22.087  0.00  0.00    +0.000 C 
ATOM      8  C   UNL     1       2.678   2.350  20.089  0.00  0.00    +0.000 A 
ATOM      9  C   UNL     1       3.339   2.903  18.990  0.00  0.00    +0.000 A 
ATOM     10  C   UNL     1       3.251   4.276  18.718  0.00  0.00    +0.000 A 
ATOM     11  C   UNL     1       3.912   4.850  17.615  0.00  0.00    +0.000 A 
ENDROOT
BRANCH   1  12
ATOM     12  C   UNL     1       4.835   6.849  16.374  0.00  0.00    +0.000 C 
BRANCH  12  14
ATOM     13  N   UNL     1       5.899   5.543  14.688  0.00  0.00    +0.000 NA
ATOM     14  C   UNL     1       6.049   6.025  15.884  0.00  0.00    +0.000 C 
ATOM     15  N   UNL     1       7.149   5.729  16.672  0.00  0.00    +0.000 N 
ATOM     16  H   UNL     1       7.593   4.842  16.501  0.00  0.00    +0.000 HD
BRANCH  13  18
ATOM     17  C   UNL     1       6.386   3.767  13.104  0.00  0.00    +0.000 C 
ATOM     18  C   UNL     1       6.976   4.753  14.099  0.00  0.00    +0.000 C 
ENDBRANCH  13  18
BRANCH  15  19
ATOM     19  C   UNL     1       7.669   6.481  17.792  0.00  0.00    +0.000 C 
ATOM     20  C   UNL     1       7.441   5.776  19.107  0.00  0.00    +0.000 C 
ENDBRANCH  15  19
ENDBRANCH  12  14
ENDBRANCH   1  12
TORSDOF 4
ENDMDL
MODEL 4
REMARK VINA RESULT:      -7.1      1.993      3.047
REMARK  Name = 
REMARK  7 active torsions:
REMARK  status: ('A' for Active; 'I' for Inactive)
REMARK    1  A    between atoms: C_1  and  C_2
REMARK    2  A    between atoms: C_2  and  N_3
REMARK    3  A    between atoms: C_4  and  C_5
REMARK    4  A    between atoms: C_5  and  C_6
REMARK    5  A    between atoms: C_11  and  C_12
REMARK    6  A    between atoms: N_17  and  C_18
REMARK    7  A    between atoms: C_18  and  C_19
REMARK                            x       y       z     vdW  Elec       q    Type
REMARK                         _______ _______ _______ _____ _____    ______ ____
ROOT
ATOM      1  C   UNL     1       3.096   6.197  18.454  0.00  0.00    +0.000 A 
ATOM      2  C   UNL     1       2.631   5.941  19.749  0.00  0.00    +0.000 A 
ATOM      3  C   UNL     1       1.915   6.919  20.442  0.00  0.00    +0.000 A 
ATOM      4  C   UNL     1       1.632   8.163  19.858  0.00  0.00    +0.000 A 
ATOM      5  C   UNL     1       0.872   9.136  20.531  0.00  0.00    +0.000 A 
ATOM      6  C   UNL     1       0.564  10.361  19.926  0.00  0.00    +0.000 A 
ATOM      7  C   UNL     1      -0.216  11.408  20.664  0.00  0.00    +0.000 C 
ATOM      8  C   UNL     1       1.003  10.605  18.623  0.00  0.00    +0.000 A 
ATOM      9  C   UNL     1       1.766   9.652  17.945  0.00  0.00    +0.000 A 
ATOM     10  C   UNL     1       2.107   8.438  18.559  0.00  0.00    +0.000 A 
ATOM     11  C   UNL     1       2.875   7.466  17.890  0.00  0.00    +0.000 A 
ENDROOT
BRANCH   1  12
ATOM     12  C   UNL     1       3.724   5.100  17.628  0.00  0.00    +0.000 C 
BRANCH  12  14
ATOM     13  N   UNL     1       6.098   5.300  17.667  0.00  0.00    +0.000 NA
ATOM     14  C   UNL     1       5.108   4.558  18.059  0.00  0.00    +0.000 C 
ATOM     15  N   UNL     1       5.295   3.347  18.704  0.00  0.00    +0.000 N 
ATOM     16  H   UNL     1       6.148   2.856  18.490  0.00  0.00    +0.000 HD
BRANCH  13  18
ATOM     17  C   UNL     1       7.957   5.788  19.152  0.00  0.00    +0.000 C 
ATOM     18  C   UNL     1       7.461   4.908  18.016  0.00  0.00    +0.000 C 
ENDBRANCH  13  18
BRANCH  15  19
ATOM     19  C   UNL     1       4.365   2.638  19.554  0.00  0.00    +0.000 C 
ATOM     20  C   UNL     1       3.474   1.705  18.771  0.00  0.00    +0.000 C 
ENDBRANCH  15  19
ENDBRANCH  12  14
ENDBRANCH   1  12
TORSDOF 4
ENDMDL
MODEL 5
REMARK VINA RESULT:      -7.0      0.825      1.827
REMARK  Name = 
REMARK  7 active torsions:
REMARK  status: ('A' for Active; 'I' for Inactive)
REMARK    1  A    between atoms: C_1  and  C_2
REMARK    2  A    between atoms: C_2  and  N_3
REMARK    3  A    between atoms: C_4  and  C_5
REMARK    4  A    between atoms: C_5  and  C_6
REMARK    5  A    between atoms: C_11  and  C_12
REMARK    6  A    between atoms: N_17  and  C_18
REMARK    7  A    between atoms: C_18  and  C_19
REMARK                            x       y       z     vdW  Elec       q    Type
REMARK                         _______ _______ _______ _____ _____    ______ ____
ROOT
ATOM      1  C   UNL     1       3.985   4.828  17.437  0.00  0.00    +0.000 A 
ATOM      2  C   UNL     1       4.149   6.143  16.985  0.00  0.00    +0.000 A 
ATOM      3  C   UNL     1       3.521   7.197  17.653  0.00  0.00    +0.000 A 
ATOM      4  C   UNL     1       2.731   6.969  18.790  0.00  0.00    +0.000 A 
ATOM      5  C   UNL     1       2.133   8.028  19.495  0.00  0.00    +0.000 A 
ATOM      6  C   UNL     1       1.377   7.794  20.650  0.00  0.00    +0.000 A 
ATOM      7  C   UNL     1       0.711   8.926  21.375  0.00  0.00    +0.000 C 
ATOM      8  C   UNL     1       1.237   6.486  21.118  0.00  0.00    +0.000 A 
ATOM      9  C   UNL     1       1.818   5.422  20.424  0.00  0.00    +0.000 A 
ATOM     10  C   UNL     1       2.547   5.647  19.247  0.00  0.00    +0.000 A 
ATOM     11  C   UNL     1       3.140   4.587  18.535  0.00  0.00    +0.000 A 
ENDROOT
BRANCH   1  12
ATOM     12  C   UNL     1       4.785   3.699  16.835  0.00  0.00    +0.000 C 
BRANCH  12  14
ATOM     13  N   UNL     1       5.755   4.040  14.685  0.00  0.00    +0.000 NA
ATOM     14  C   UNL     1       6.010   4.055  15.958  0.00  0.00    +0.000 C 
ATOM     15  N   UNL     1       7.283   4.264  16.460  0.00  0.00    +0.000 N 
ATOM     16  H   UNL     1       8.047   3.981  15.867  0.00  0.00    +0.000 HD
BRANCH  13  18
ATOM     17  C   UNL     1       6.547   3.679  12.417  0.00  0.00    +0.000 C 
ATOM     18  C   UNL     1       6.822   4.369  13.744  0.00  0.00    +0.000 C 
ENDBRANCH  13  18
BRANCH  15  19
ATOM     19  C   UNL     1       7.656   4.724  17.779  0.00  0.00    +0.000 C 
ATOM     20  C   UNL     1       7.551   6.223  17.911  0.00  0.00    +0.000 C 
ENDBRANCH  15  19
ENDBRANCH  12  14
ENDBRANCH   1  12
TORSDOF 4
ENDMDL
MODEL 6
REMARK VINA RESULT:      -7.0      1.096      2.070
REMARK  Name = 
REMARK  7 active torsions:
REMARK  status: ('A' for Active; 'I' for Inactive)
REMARK    1  A    between atoms: C_1  and  C_2
REMARK    2  A    between atoms: C_2  and  N_3
REMARK    3  A    between atoms: C_4  and  C_5
REMARK    4  A    between atoms: C_5  and  C_6
REMARK    5  A    between atoms: C_11  and  C_12
REMARK    6  A    between atoms: N_17  and  C_18
REMARK    7  A    between atoms: C_18  and  C_19
REMARK                            x       y       z     vdW  Elec       q    Type
REMARK                         _______ _______ _______ _____ _____    ______ ____
ROOT
ATOM      1  C   UNL     1       3.872   5.886  18.573  0.00  0.00    +0.000 A 
ATOM      2  C   UNL     1       3.854   6.805  17.515  0.00  0.00    +0.000 A 
ATOM      3  C   UNL     1       3.026   7.927  17.577  0.00  0.00    +0.000 A 
ATOM      4  C   UNL     1       2.211   8.170  18.694  0.00  0.00    +0.000 A 
ATOM      5  C   UNL     1       1.409   9.321  18.783  0.00  0.00    +0.000 A 
ATOM      6  C   UNL     1       0.628   9.572  19.918  0.00  0.00    +0.000 A 
ATOM      7  C   UNL     1      -0.254  10.784  19.990  0.00  0.00    +0.000 C 
ATOM      8  C   UNL     1       0.668   8.672  20.984  0.00  0.00    +0.000 A 
ATOM      9  C   UNL     1       1.453   7.519  20.906  0.00  0.00    +0.000 A 
ATOM     10  C   UNL     1       2.210   7.245  19.758  0.00  0.00    +0.000 A 
ATOM     11  C   UNL     1       3.008   6.088  19.663  0.00  0.00    +0.000 A 
ENDROOT
BRANCH   1  12
ATOM     12  C   UNL     1       4.878   4.762  18.601  0.00  0.00    +0.000 C 
BRANCH  12  14
ATOM     13  N   UNL     1       5.559   3.998  16.448  0.00  0.00    +0.000 NA
ATOM     14  C   UNL     1       5.937   4.697  17.475  0.00  0.00    +0.000 C 
ATOM     15  N   UNL     1       7.209   5.234  17.581  0.00  0.00    +0.000 N 
ATOM     16  H   UNL     1       7.942   4.742  17.096  0.00  0.00    +0.000 HD
BRANCH  13  18
ATOM     17  C   UNL     1       5.688   4.132  14.026  0.00  0.00    +0.000 C 
ATOM     18  C   UNL     1       6.461   3.864  15.308  0.00  0.00    +0.000 C 
ENDBRANCH  13  18
BRANCH  15  19
ATOM     19  C   UNL     1       7.642   6.343  18.400  0.00  0.00    +0.000 C 
ATOM     20  C   UNL     1       7.626   7.650  17.646  0.00  0.00    +0.000 C 
ENDBRANCH  15  19
ENDBRANCH  12  14
ENDBRANCH   1  12
TORSDOF 4
ENDMDL
MODEL 7
REMARK VINA RESULT:      -6.9      1.561      3.073
REMARK  Name = 
REMARK  7 active torsions:
REMARK  status: ('A' for Active; 'I' for Inactive)
REMARK    1  A    between atoms: C_1  and  C_2
REMARK    2  A    between atoms: C_2  and  N_3
REMARK    3  A    between atoms: C_4  and  C_5
REMARK    4  A    between atoms: C_5  and  C_6
REMARK    5  A    between atoms: C_11  and  C_12
REMARK    6  A    between atoms: N_17  and  C_18
REMARK    7  A    between atoms: C_18  and  C_19
REMARK                            x       y       z     vdW  Elec       q    Type
REMARK                         _______ _______ _______ _____ _____    ______ ____
ROOT
ATOM      1  C   UNL     1       3.822   6.637  17.798  0.00  0.00    +0.000 A 
ATOM      2  C   UNL     1       3.704   5.768  18.890  0.00  0.00    +0.000 A 
ATOM      3  C   UNL     1       2.858   6.090  19.953  0.00  0.00    +0.000 A 
ATOM      4  C   UNL     1       2.101   7.271  19.948  0.00  0.00    +0.000 A 
ATOM      5  C   UNL     1       1.213   7.581  20.994  0.00  0.00    +0.000 A 
ATOM      6  C   UNL     1       0.435   8.745  20.962  0.00  0.00    +0.000 A 
ATOM      7  C   UNL     1      -0.483   9.086  22.098  0.00  0.00    +0.000 C 
ATOM      8  C   UNL     1       0.530   9.597  19.860  0.00  0.00    +0.000 A 
ATOM      9  C   UNL     1       1.415   9.308  18.818  0.00  0.00    +0.000 A 
ATOM     10  C   UNL     1       2.222   8.162  18.861  0.00  0.00    +0.000 A 
ATOM     11  C   UNL     1       3.118   7.855  17.820  0.00  0.00    +0.000 A 
ENDROOT
BRANCH   1  12
ATOM     12  C   UNL     1       4.597   6.231  16.569  0.00  0.00    +0.000 C 
BRANCH  12  14
ATOM     13  N   UNL     1       6.526   7.443  17.269  0.00  0.00    +0.000 NA
ATOM     14  C   UNL     1       6.133   6.418  16.575  0.00  0.00    +0.000 C 
ATOM     15  N   UNL     1       7.007   5.644  15.831  0.00  0.00    +0.000 N 
ATOM     16  H   UNL     1       7.833   6.108  15.491  0.00  0.00    +0.000 HD
BRANCH  13  18
ATOM     17  C   UNL     1       8.146   9.122  17.944  0.00  0.00    +0.000 C 
ATOM     18  C   UNL     1       7.954   7.728  17.367  0.00  0.00    +0.000 C 
ENDBRANCH  13  18
BRANCH  15  19
ATOM     19  C   UNL     1       6.825   4.283  15.376  0.00  0.00    +0.000 C 
ATOM     20  C   UNL     1       6.336   4.218  13.950  0.00  0.00    +0.000 C 
ENDBRANCH  15  19
ENDBRANCH  12  14
ENDBRANCH   1  12
TORSDOF 4
ENDMDL
MODEL 8
REMARK VINA RESULT:      -6.8      2.336      4.250
REMARK  Name = 
REMARK  7 active torsions:
REMARK  status: ('A' for Active; 'I' for Inactive)
REMARK    1  A    between atoms: C_1  and  C_2
REMARK    2  A    between atoms: C_2  and  N_3
REMARK    3  A    between atoms: C_4  and  C_5
REMARK    4  A    between atoms: C_5  and  C_6
REMARK    5  A    between atoms: C_11  and  C_12
REMARK    6  A    between atoms: N_17  and  C_18
REMARK    7  A    between atoms: C_18  and  C_19
REMARK                            x       y       z     vdW  Elec       q    Type
REMARK                         _______ _______ _______ _____ _____    ______ ____
ROOT
ATOM      1  C   UNL     1       2.319   7.831  18.548  0.00  0.00    +0.000 A 
ATOM      2  C   UNL     1       1.706   8.861  17.824  0.00  0.00    +0.000 A 
ATOM      3  C   UNL     1       0.865   9.768  18.472  0.00  0.00    +0.000 A 
ATOM      4  C   UNL     1       0.629   9.682  19.853  0.00  0.00    +0.000 A 
ATOM      5  C   UNL     1      -0.180  10.619  20.521  0.00  0.00    +0.000 A 
ATOM      6  C   UNL     1      -0.380  10.547  21.904  0.00  0.00    +0.000 A 
ATOM      7  C   UNL     1      -1.273  11.528  22.604  0.00  0.00    +0.000 C 
ATOM      8  C   UNL     1       0.256   9.538  22.631  0.00  0.00    +0.000 A 
ATOM      9  C   UNL     1       1.055   8.594  21.981  0.00  0.00    +0.000 A 
ATOM     10  C   UNL     1       1.230   8.642  20.590  0.00  0.00    +0.000 A 
ATOM     11  C   UNL     1       2.032   7.700  19.919  0.00  0.00    +0.000 A 
ENDROOT
BRANCH   1  12
ATOM     12  C   UNL     1       3.358   6.947  17.903  0.00  0.00    +0.000 C 
BRANCH  12  14
ATOM     13  N   UNL     1       2.266   4.833  17.759  0.00  0.00    +0.000 NA
ATOM     14  C   UNL     1       3.325   5.431  18.213  0.00  0.00    +0.000 C 
ATOM     15  N   UNL     1       4.270   4.783  18.991  0.00  0.00    +0.000 N 
ATOM     16  H   UNL     1       3.937   4.010  19.543  0.00  0.00    +0.000 HD
BRANCH  13  18
ATOM     17  C   UNL     1       1.015   3.158  18.996  0.00  0.00    +0.000 C 
ATOM     18  C   UNL     1       2.115   3.397  17.974  0.00  0.00    +0.000 C 
ENDBRANCH  13  18
BRANCH  15  19
ATOM     19  C   UNL     1       5.652   5.151  19.205  0.00  0.00    +0.000 C 
ATOM     20  C   UNL     1       6.534   4.754  18.047  0.00  0.00    +0.000 C 
ENDBRANCH  15  19
ENDBRANCH  12  14
ENDBRANCH   1  12
TORSDOF 4
ENDMDL
MODEL 9
REMARK VINA RESULT:      -6.8      1.431      3.133
REMARK  Name = 
REMARK  7 active torsions:
REMARK  status: ('A' for Active; 'I' for Inactive)
REMARK    1  A    between atoms: C_1  and  C_2
REMARK    2  A    between atoms: C_2  and  N_3
REMARK    3  A    between atoms: C_4  and  C_5
REMARK    4  A    between atoms: C_5  and  C_6
REMARK    5  A    between atoms: C_11  and  C_12
REMARK    6  A    between atoms: N_17  and  C_18
REMARK    7  A    between atoms: C_18  and  C_19
REMARK                            x       y       z     vdW  Elec       q    Type
REMARK                         _______ _______ _______ _____ _____    ______ ____
ROOT
ATOM      1  C   UNL     1       3.457   6.354  18.775  0.00  0.00    +0.000 A 
ATOM      2  C   UNL     1       3.371   7.242  17.696  0.00  0.00    +0.000 A 
ATOM      3  C   UNL     1       2.519   8.347  17.764  0.00  0.00    +0.000 A 
ATOM      4  C   UNL     1       1.750   8.602  18.910  0.00  0.00    +0.000 A 
ATOM      5  C   UNL     1       0.925   9.737  19.005  0.00  0.00    +0.000 A 
ATOM      6  C   UNL     1       0.189  10.002  20.166  0.00  0.00    +0.000 A 
ATOM      7  C   UNL     1      -0.717  11.195  20.246  0.00  0.00    +0.000 C 
ATOM      8  C   UNL     1       0.298   9.132  21.253  0.00  0.00    +0.000 A 
ATOM      9  C   UNL     1       1.105   7.996  21.171  0.00  0.00    +0.000 A 
ATOM     10  C   UNL     1       1.817   7.707  19.998  0.00  0.00    +0.000 A 
ATOM     11  C   UNL     1       2.637   6.567  19.898  0.00  0.00    +0.000 A 
ENDROOT
BRANCH   1  12
ATOM     12  C   UNL     1       4.490   5.253  18.788  0.00  0.00    +0.000 C 
BRANCH  12  14
ATOM     13  N   UNL     1       5.683   4.617  16.826  0.00  0.00    +0.000 NA
ATOM     14  C   UNL     1       4.625   4.360  17.532  0.00  0.00    +0.000 C 
ATOM     15  N   UNL     1       3.664   3.447  17.129  0.00  0.00    +0.000 N 
ATOM     16  H   UNL     1       3.567   3.313  16.136  0.00  0.00    +0.000 HD
BRANCH  13  18
ATOM     17  C   UNL     1       6.784   4.661  14.661  0.00  0.00    +0.000 C 
ATOM     18  C   UNL     1       5.937   3.837  15.618  0.00  0.00    +0.000 C 
ENDBRANCH  13  18
BRANCH  15  19
ATOM     19  C   UNL     1       2.698   2.750  17.949  0.00  0.00    +0.000 C 
ATOM     20  C   UNL     1       1.399   3.507  18.067  0.00  0.00    +0.000 C 
ENDBRANCH  15  19
ENDBRANCH  12  14
ENDBRANCH   1  12
TORSDOF 4
ENDMDL
