MODEL 1
REMARK VINA RESULT:      -8.2      0.000      0.000
REMARK  Name = 
REMARK  5 active torsions:
REMARK  status: ('A' for Active; 'I' for Inactive)
REMARK    1  A    between atoms: C_1  and  N_2
REMARK    2  A    between atoms: N_2  and  C_3
REMARK    3  A    between atoms: N_2  and  C_4
REMARK    4  A    between atoms: C_4  and  C_5
REMARK    5  A    between atoms: C_5  and  C_6
REMARK                            x       y       z     vdW  Elec       q    Type
REMARK                         _______ _______ _______ _____ _____    ______ ____
ROOT
ATOM      1  C   UNL     1       3.997   5.734  17.758  0.00  0.00    +0.000 A 
ATOM      2  C   UNL     1       4.043   4.518  18.465  0.00  0.00    +0.000 A 
ATOM      3  C   UNL     1       3.306   4.393  19.622  0.00  0.00    +0.000 A 
ATOM      4  C   UNL     1       2.543   5.392  20.118  0.00  0.00    +0.000 A 
ATOM      5  C   UNL     1       2.437   6.649  19.479  0.00  0.00    +0.000 A 
ATOM      6  C   UNL     1       3.180   6.808  18.256  0.00  0.00    +0.000 A 
ATOM      7  C   UNL     1       3.085   8.028  17.558  0.00  0.00    +0.000 A 
ATOM      8  C   UNL     1       2.283   9.059  18.017  0.00  0.00    +0.000 A 
ATOM      9  C   UNL     1       1.564   8.933  19.205  0.00  0.00    +0.000 A 
ATOM     10  C   UNL     1       0.772  10.010  19.632  0.00  0.00    +0.000 A 
ATOM     11  C   UNL     1       0.059   9.928  20.825  0.00  0.00    +0.000 A 
ATOM     12  C   UNL     1       0.132   8.775  21.599  0.00  0.00    +0.000 A 
ATOM     13  C   UNL     1       0.902   7.688  21.179  0.00  0.00    +0.000 A 
ATOM     14  C   UNL     1       1.635   7.735  19.966  0.00  0.00    +0.000 A 
ATOM     15  O   UNL     1       1.953   4.941  21.233  0.00  0.00    +0.000 OA
ATOM     16  C   UNL     1       2.340   3.624  21.442  0.00  0.00    +0.000 C 
ATOM     17  O   UNL     1       3.212   3.315  20.407  0.00  0.00    +0.000 OA
ENDROOT
BRANCH   1  18
ATOM     18  C   UNL     1       4.804   5.822  16.471  0.00  0.00    +0.000 C 
BRANCH  18  19
ATOM     19  C   UNL     1       6.227   6.372  16.704  0.00  0.00    +0.000 C 
BRANCH  19  21
ATOM     20  C   UNL     1       7.639   4.603  17.650  0.00  0.00    +0.000 C 
ATOM     21  N   UNL     1       7.286   5.370  16.440  0.00  0.00    +0.000 NA
ATOM     22  C   UNL     1       6.828   4.425  15.405  0.00  0.00    +0.000 C 
ENDBRANCH  19  21
ENDBRANCH  18  19
ENDBRANCH   1  18
TORSDOF 3
ENDMDL
MODEL 2
REMARK VINA RESULT:      -8.1      0.841      1.089
REMARK  Name = 
REMARK  5 active torsions:
REMARK  status: ('A' for Active; 'I' for Inactive)
REMARK    1  A    between atoms: C_1  and  N_2
REMARK    2  A    between atoms: N_2  and  C_3
REMARK    3  A    between atoms: N_2  and  C_4
REMARK    4  A    between atoms: C_4  and  C_5
REMARK    5  A    between atoms: C_5  and  C_6
REMARK                            x       y       z     vdW  Elec       q    Type
REMARK                         _______ _______ _______ _____ _____    ______ ____
ROOT
ATOM      1  C   UNL     1       4.196   5.169  17.880  0.00  0.00    +0.000 A 
ATOM      2  C   UNL     1       4.167   3.995  18.655  0.00  0.00    +0.000 A 
ATOM      3  C   UNL     1       3.386   3.967  19.790  0.00  0.00    +0.000 A 
ATOM      4  C   UNL     1       2.651   5.025  20.201  0.00  0.00    +0.000 A 
ATOM      5  C   UNL     1       2.620   6.245  19.490  0.00  0.00    +0.000 A 
ATOM      6  C   UNL     1       3.410   6.303  18.287  0.00  0.00    +0.000 A 
ATOM      7  C   UNL     1       3.392   7.483  17.518  0.00  0.00    +0.000 A 
ATOM      8  C   UNL     1       2.620   8.572  17.889  0.00  0.00    +0.000 A 
ATOM      9  C   UNL     1       1.856   8.544  19.056  0.00  0.00    +0.000 A 
ATOM     10  C   UNL     1       1.097   9.675  19.393  0.00  0.00    +0.000 A 
ATOM     11  C   UNL     1       0.342   9.691  20.562  0.00  0.00    +0.000 A 
ATOM     12  C   UNL     1       0.339   8.583  21.402  0.00  0.00    +0.000 A 
ATOM     13  C   UNL     1       1.075   7.443  21.072  0.00  0.00    +0.000 A 
ATOM     14  C   UNL     1       1.850   7.390  19.885  0.00  0.00    +0.000 A 
ATOM     15  O   UNL     1       2.005   4.663  21.317  0.00  0.00    +0.000 OA
ATOM     16  C   UNL     1       2.327   3.345  21.614  0.00  0.00    +0.000 C 
ATOM     17  O   UNL     1       3.219   2.942  20.630  0.00  0.00    +0.000 OA
ENDROOT
BRANCH   1  18
ATOM     18  C   UNL     1       5.049   5.150  16.620  0.00  0.00    +0.000 C 
BRANCH  18  19
ATOM     19  C   UNL     1       6.556   5.287  16.926  0.00  0.00    +0.000 C 
BRANCH  19  21
ATOM     20  C   UNL     1       7.746   5.698  19.031  0.00  0.00    +0.000 C 
ATOM     21  N   UNL     1       6.842   6.258  18.008  0.00  0.00    +0.000 NA
ATOM     22  C   UNL     1       7.471   7.464  17.439  0.00  0.00    +0.000 C 
ENDBRANCH  19  21
ENDBRANCH  18  19
ENDBRANCH   1  18
TORSDOF 3
ENDMDL
MODEL 3
REMARK VINA RESULT:      -7.9      0.648      1.055
REMARK  Name = 
REMARK  5 active torsions:
REMARK  status: ('A' for Active; 'I' for Inactive)
REMARK    1  A    between atoms: C_1  and  N_2
REMARK    2  A    between atoms: N_2  and  C_3
REMARK    3  A    between atoms: N_2  and  C_4
REMARK    4  A    between atoms: C_4  and  C_5
REMARK    5  A    between atoms: C_5  and  C_6
REMARK                            x       y       z     vdW  Elec       q    Type
REMARK                         _______ _______ _______ _____ _____    ______ ____
ROOT
ATOM      1  C   UNL     1       3.950   5.591  17.817  0.00  0.00    +0.000 A 
ATOM      2  C   UNL     1       3.968   4.387  18.547  0.00  0.00    +0.000 A 
ATOM      3  C   UNL     1       3.227   4.301  19.706  0.00  0.00    +0.000 A 
ATOM      4  C   UNL     1       2.489   5.327  20.183  0.00  0.00    +0.000 A 
ATOM      5  C   UNL     1       2.413   6.574  19.522  0.00  0.00    +0.000 A 
ATOM      6  C   UNL     1       3.159   6.693  18.296  0.00  0.00    +0.000 A 
ATOM      7  C   UNL     1       3.093   7.901  17.575  0.00  0.00    +0.000 A 
ATOM      8  C   UNL     1       2.316   8.960  18.015  0.00  0.00    +0.000 A 
ATOM      9  C   UNL     1       1.595   8.873  19.205  0.00  0.00    +0.000 A 
ATOM     10  C   UNL     1       0.828   9.976  19.613  0.00  0.00    +0.000 A 
ATOM     11  C   UNL     1       0.114   9.933  20.806  0.00  0.00    +0.000 A 
ATOM     12  C   UNL     1       0.160   8.793  21.601  0.00  0.00    +0.000 A 
ATOM     13  C   UNL     1       0.904   7.681  21.202  0.00  0.00    +0.000 A 
ATOM     14  C   UNL     1       1.637   7.688  19.988  0.00  0.00    +0.000 A 
ATOM     15  O   UNL     1       1.889   4.911  21.306  0.00  0.00    +0.000 OA
ATOM     16  C   UNL     1       2.244   3.588  21.539  0.00  0.00    +0.000 C 
ATOM     17  O   UNL     1       3.109   3.240  20.510  0.00  0.00    +0.000 OA
ENDROOT
BRANCH   1  18
ATOM     18  C   UNL     1       4.758   5.636  16.529  0.00  0.00    +0.000 C 
BRANCH  18  19
ATOM     19  C   UNL     1       4.967   4.236  15.915  0.00  0.00    +0.000 C 
BRANCH  19  21
ATOM     20  C   UNL     1       6.758   4.531  14.264  0.00  0.00    +0.000 C 
ATOM     21  N   UNL     1       6.382   3.958  15.571  0.00  0.00    +0.000 NA
ATOM     22  C   UNL     1       7.264   4.531  16.603  0.00  0.00    +0.000 C 
ENDBRANCH  19  21
ENDBRANCH  18  19
ENDBRANCH   1  18
TORSDOF 3
ENDMDL
MODEL 4
REMARK VINA RESULT:      -7.7      2.391      6.020
REMARK  Name = 
REMARK  5 active torsions:
REMARK  status: ('A' for Active; 'I' for Inactive)
REMARK    1  A    between atoms: C_1  and  N_2
REMARK    2  A    between atoms: N_2  and  C_3
REMARK    3  A    between atoms: N_2  and  C_4
REMARK    4  A    between atoms: C_4  and  C_5
REMARK    5  A    between atoms: C_5  and  C_6
REMARK                            x       y       z     vdW  Elec       q    Type
REMARK                         _______ _______ _______ _____ _____    ______ ____
ROOT
ATOM      1  C   UNL     1       1.988   7.077  20.024  0.00  0.00    +0.000 A 
ATOM      2  C   UNL     1       1.678   6.060  20.946  0.00  0.00    +0.000 A 
ATOM      3  C   UNL     1       2.194   4.799  20.742  0.00  0.00    +0.000 A 
ATOM      4  C   UNL     1       2.979   4.488  19.687  0.00  0.00    +0.000 A 
ATOM      5  C   UNL     1       3.341   5.442  18.709  0.00  0.00    +0.000 A 
ATOM      6  C   UNL     1       2.835   6.777  18.901  0.00  0.00    +0.000 A 
ATOM      7  C   UNL     1       3.192   7.777  17.976  0.00  0.00    +0.000 A 
ATOM      8  C   UNL     1       4.026   7.503  16.905  0.00  0.00    +0.000 A 
ATOM      9  C   UNL     1       4.517   6.216  16.692  0.00  0.00    +0.000 A 
ATOM     10  C   UNL     1       5.353   5.987  15.587  0.00  0.00    +0.000 A 
ATOM     11  C   UNL     1       5.843   4.710  15.330  0.00  0.00    +0.000 A 
ATOM     12  C   UNL     1       5.504   3.654  16.169  0.00  0.00    +0.000 A 
ATOM     13  C   UNL     1       4.688   3.869  17.282  0.00  0.00    +0.000 A 
ATOM     14  C   UNL     1       4.177   5.158  17.577  0.00  0.00    +0.000 A 
ATOM     15  O   UNL     1       3.317   3.197  19.796  0.00  0.00    +0.000 OA
ATOM     16  C   UNL     1       2.745   2.680  20.951  0.00  0.00    +0.000 C 
ATOM     17  O   UNL     1       2.025   3.723  21.518  0.00  0.00    +0.000 OA
ENDROOT
BRANCH   1  18
ATOM     18  C   UNL     1       1.422   8.462  20.299  0.00  0.00    +0.000 C 
BRANCH  18  19
ATOM     19  C   UNL     1       1.022   8.653  21.778  0.00  0.00    +0.000 C 
BRANCH  19  21
ATOM     20  C   UNL     1       0.512  10.898  20.931  0.00  0.00    +0.000 C 
ATOM     21  N   UNL     1       0.747  10.067  22.127  0.00  0.00    +0.000 NA
ATOM     22  C   UNL     1      -0.446  10.142  22.989  0.00  0.00    +0.000 C 
ENDBRANCH  19  21
ENDBRANCH  18  19
ENDBRANCH   1  18
TORSDOF 3
ENDMDL
MODEL 5
REMARK VINA RESULT:      -7.3      1.199      1.553
REMARK  Name = 
REMARK  5 active torsions:
REMARK  status: ('A' for Active; 'I' for Inactive)
REMARK    1  A    between atoms: C_1  and  N_2
REMARK    2  A    between atoms: N_2  and  C_3
REMARK    3  A    between atoms: N_2  and  C_4
REMARK    4  A    between atoms: C_4  and  C_5
REMARK    5  A    between atoms: C_5  and  C_6
REMARK                            x       y       z     vdW  Elec       q    Type
REMARK                         _______ _______ _______ _____ _____    ______ ____
ROOT
ATOM      1  C   UNL     1       4.661   4.557  18.138  0.00  0.00    +0.000 A 
ATOM      2  C   UNL     1       4.488   3.440  18.977  0.00  0.00    +0.000 A 
ATOM      3  C   UNL     1       3.574   3.517  20.005  0.00  0.00    +0.000 A 
ATOM      4  C   UNL     1       2.839   4.624  20.252  0.00  0.00    +0.000 A 
ATOM      5  C   UNL     1       2.946   5.793  19.466  0.00  0.00    +0.000 A 
ATOM      6  C   UNL     1       3.879   5.742  18.370  0.00  0.00    +0.000 A 
ATOM      7  C   UNL     1       4.004   6.866  17.531  0.00  0.00    +0.000 A 
ATOM      8  C   UNL     1       3.238   8.003  17.732  0.00  0.00    +0.000 A 
ATOM      9  C   UNL     1       2.337   8.080  18.794  0.00  0.00    +0.000 A 
ATOM     10  C   UNL     1       1.591   9.257  18.961  0.00  0.00    +0.000 A 
ATOM     11  C   UNL     1       0.700   9.379  20.022  0.00  0.00    +0.000 A 
ATOM     12  C   UNL     1       0.548   8.331  20.925  0.00  0.00    +0.000 A 
ATOM     13  C   UNL     1       1.271   7.148  20.763  0.00  0.00    +0.000 A 
ATOM     14  C   UNL     1       2.182   6.987  19.688  0.00  0.00    +0.000 A 
ATOM     15  O   UNL     1       2.047   4.362  21.300  0.00  0.00    +0.000 OA
ATOM     16  C   UNL     1       2.275   3.057  21.719  0.00  0.00    +0.000 C 
ATOM     17  O   UNL     1       3.264   2.557  20.882  0.00  0.00    +0.000 OA
ENDROOT
BRANCH   1  18
ATOM     18  C   UNL     1       5.660   4.422  16.998  0.00  0.00    +0.000 C 
BRANCH  18  19
ATOM     19  C   UNL     1       4.980   4.079  15.655  0.00  0.00    +0.000 C 
BRANCH  19  21
ATOM     20  C   UNL     1       7.097   4.967  14.792  0.00  0.00    +0.000 C 
ATOM     21  N   UNL     1       5.692   4.643  14.484  0.00  0.00    +0.000 NA
ATOM     22  C   UNL     1       5.668   3.672  13.375  0.00  0.00    +0.000 C 
ENDBRANCH  19  21
ENDBRANCH  18  19
ENDBRANCH   1  18
TORSDOF 3
ENDMDL
MODEL 6
REMARK VINA RESULT:      -7.3      3.628      4.717
REMARK  Name = 
REMARK  5 active torsions:
REMARK  status: ('A' for Active; 'I' for Inactive)
REMARK    1  A    between atoms: C_1  and  N_2
REMARK    2  A    between atoms: N_2  and  C_3
REMARK    3  A    between atoms: N_2  and  C_4
REMARK    4  A    between atoms: C_4  and  C_5
REMARK    5  A    between atoms: C_5  and  C_6
REMARK                            x       y       z     vdW  Elec       q    Type
REMARK                         _______ _______ _______ _____ _____    ______ ____
ROOT
ATOM      1  C   UNL     1       5.246   4.364  15.851  0.00  0.00    +0.000 A 
ATOM      2  C   UNL     1       6.488   4.859  16.290  0.00  0.00    +0.000 A 
ATOM      3  C   UNL     1       6.676   5.084  17.636  0.00  0.00    +0.000 A 
ATOM      4  C   UNL     1       5.715   4.860  18.559  0.00  0.00    +0.000 A 
ATOM      5  C   UNL     1       4.437   4.367  18.213  0.00  0.00    +0.000 A 
ATOM      6  C   UNL     1       4.211   4.101  16.816  0.00  0.00    +0.000 A 
ATOM      7  C   UNL     1       2.967   3.576  16.417  0.00  0.00    +0.000 A 
ATOM      8  C   UNL     1       1.973   3.298  17.340  0.00  0.00    +0.000 A 
ATOM      9  C   UNL     1       2.164   3.558  18.697  0.00  0.00    +0.000 A 
ATOM     10  C   UNL     1       1.124   3.266  19.593  0.00  0.00    +0.000 A 
ATOM     11  C   UNL     1       1.270   3.535  20.951  0.00  0.00    +0.000 A 
ATOM     12  C   UNL     1       2.452   4.095  21.424  0.00  0.00    +0.000 A 
ATOM     13  C   UNL     1       3.502   4.375  20.548  0.00  0.00    +0.000 A 
ATOM     14  C   UNL     1       3.390   4.108  19.160  0.00  0.00    +0.000 A 
ATOM     15  O   UNL     1       6.225   5.164  19.760  0.00  0.00    +0.000 OA
ATOM     16  C   UNL     1       7.541   5.577  19.597  0.00  0.00    +0.000 C 
ATOM     17  O   UNL     1       7.787   5.529  18.231  0.00  0.00    +0.000 OA
ENDROOT
BRANCH   1  18
ATOM     18  C   UNL     1       5.087   4.103  14.361  0.00  0.00    +0.000 C 
BRANCH  18  19
ATOM     19  C   UNL     1       6.442   3.900  13.650  0.00  0.00    +0.000 C 
BRANCH  19  21
ATOM     20  C   UNL     1       7.210   2.633  11.695  0.00  0.00    +0.000 C 
ATOM     21  N   UNL     1       6.305   3.688  12.189  0.00  0.00    +0.000 NA
ATOM     22  C   UNL     1       4.919   3.299  11.873  0.00  0.00    +0.000 C 
ENDBRANCH  19  21
ENDBRANCH  18  19
ENDBRANCH   1  18
TORSDOF 3
ENDMDL
MODEL 7
REMARK VINA RESULT:      -7.1      1.858      4.355
REMARK  Name = 
REMARK  5 active torsions:
REMARK  status: ('A' for Active; 'I' for Inactive)
REMARK    1  A    between atoms: C_1  and  N_2
REMARK    2  A    between atoms: N_2  and  C_3
REMARK    3  A    between atoms: N_2  and  C_4
REMARK    4  A    between atoms: C_4  and  C_5
REMARK    5  A    between atoms: C_5  and  C_6
REMARK                            x       y       z     vdW  Elec       q    Type
REMARK                         _______ _______ _______ _____ _____    ______ ____
ROOT
ATOM      1  C   UNL     1       4.652   6.171  16.822  0.00  0.00    +0.000 A 
ATOM      2  C   UNL     1       4.136   7.480  16.878  0.00  0.00    +0.000 A 
ATOM      3  C   UNL     1       3.148   7.766  17.795  0.00  0.00    +0.000 A 
ATOM      4  C   UNL     1       2.641   6.841  18.640  0.00  0.00    +0.000 A 
ATOM      5  C   UNL     1       3.093   5.503  18.654  0.00  0.00    +0.000 A 
ATOM      6  C   UNL     1       4.140   5.172  17.722  0.00  0.00    +0.000 A 
ATOM      7  C   UNL     1       4.655   3.861  17.715  0.00  0.00    +0.000 A 
ATOM      8  C   UNL     1       4.185   2.899  18.593  0.00  0.00    +0.000 A 
ATOM      9  C   UNL     1       3.164   3.192  19.497  0.00  0.00    +0.000 A 
ATOM     10  C   UNL     1       2.717   2.180  20.361  0.00  0.00    +0.000 A 
ATOM     11  C   UNL     1       1.684   2.430  21.259  0.00  0.00    +0.000 A 
ATOM     12  C   UNL     1       1.089   3.686  21.302  0.00  0.00    +0.000 A 
ATOM     13  C   UNL     1       1.533   4.708  20.460  0.00  0.00    +0.000 A 
ATOM     14  C   UNL     1       2.589   4.490  19.538  0.00  0.00    +0.000 A 
ATOM     15  O   UNL     1       1.718   7.446  19.400  0.00  0.00    +0.000 OA
ATOM     16  C   UNL     1       1.647   8.785  19.039  0.00  0.00    +0.000 C 
ATOM     17  O   UNL     1       2.559   8.947  18.004  0.00  0.00    +0.000 OA
ENDROOT
BRANCH   1  18
ATOM     18  C   UNL     1       5.760   5.903  15.815  0.00  0.00    +0.000 C 
BRANCH  18  19
ATOM     19  C   UNL     1       7.167   6.054  16.432  0.00  0.00    +0.000 C 
BRANCH  19  21
ATOM     20  C   UNL     1       7.816   5.972  18.796  0.00  0.00    +0.000 C 
ATOM     21  N   UNL     1       7.155   6.758  17.737  0.00  0.00    +0.000 NA
ATOM     22  C   UNL     1       7.854   8.049  17.609  0.00  0.00    +0.000 C 
ENDBRANCH  19  21
ENDBRANCH  18  19
ENDBRANCH   1  18
TORSDOF 3
ENDMDL
MODEL 8
REMARK VINA RESULT:      -7.1      1.484      4.198
REMARK  Name = 
REMARK  5 active torsions:
REMARK  status: ('A' for Active; 'I' for Inactive)
REMARK    1  A    between atoms: C_1  and  N_2
REMARK    2  A    between atoms: N_2  and  C_3
REMARK    3  A    between atoms: N_2  and  C_4
REMARK    4  A    between atoms: C_4  and  C_5
REMARK    5  A    between atoms: C_5  and  C_6
REMARK                            x       y       z     vdW  Elec       q    Type
REMARK                         _______ _______ _______ _____ _____    ______ ____
ROOT
ATOM      1  C   UNL     1       4.115   6.563  17.151  0.00  0.00    +0.000 A 
ATOM      2  C   UNL     1       3.506   7.803  17.420  0.00  0.00    +0.000 A 
ATOM      3  C   UNL     1       2.642   7.903  18.488  0.00  0.00    +0.000 A 
ATOM      4  C   UNL     1       2.342   6.856  19.289  0.00  0.00    +0.000 A 
ATOM      5  C   UNL     1       2.901   5.573  19.096  0.00  0.00    +0.000 A 
ATOM      6  C   UNL     1       3.825   5.437  17.999  0.00  0.00    +0.000 A 
ATOM      7  C   UNL     1       4.440   4.190  17.779  0.00  0.00    +0.000 A 
ATOM      8  C   UNL     1       4.185   3.106  18.603  0.00  0.00    +0.000 A 
ATOM      9  C   UNL     1       3.285   3.210  19.664  0.00  0.00    +0.000 A 
ATOM     10  C   UNL     1       3.055   2.081  20.466  0.00  0.00    +0.000 A 
ATOM     11  C   UNL     1       2.146   2.141  21.519  0.00  0.00    +0.000 A 
ATOM     12  C   UNL     1       1.462   3.324  21.778  0.00  0.00    +0.000 A 
ATOM     13  C   UNL     1       1.693   4.460  21.000  0.00  0.00    +0.000 A 
ATOM     14  C   UNL     1       2.617   4.436  19.925  0.00  0.00    +0.000 A 
ATOM     15  O   UNL     1       1.493   7.292  20.229  0.00  0.00    +0.000 OA
ATOM     16  C   UNL     1       1.259   8.646  20.028  0.00  0.00    +0.000 C 
ATOM     17  O   UNL     1       1.994   8.995  18.903  0.00  0.00    +0.000 OA
ENDROOT
BRANCH   1  18
ATOM     18  C   UNL     1       5.083   6.502  15.980  0.00  0.00    +0.000 C 
BRANCH  18  19
ATOM     19  C   UNL     1       6.551   6.697  16.417  0.00  0.00    +0.000 C 
BRANCH  19  21
ATOM     20  C   UNL     1       7.638   4.620  17.139  0.00  0.00    +0.000 C 
ATOM     21  N   UNL     1       7.427   5.567  16.027  0.00  0.00    +0.000 NA
ATOM     22  C   UNL     1       6.822   4.836  14.899  0.00  0.00    +0.000 C 
ENDBRANCH  19  21
ENDBRANCH  18  19
ENDBRANCH   1  18
TORSDOF 3
ENDMDL
MODEL 9
REMARK VINA RESULT:      -7.0      2.242      4.620
REMARK  Name = 
REMARK  5 active torsions:
REMARK  status: ('A' for Active; 'I' for Inactive)
REMARK    1  A    between atoms: C_1  and  N_2
REMARK    2  A    between atoms: N_2  and  C_3
REMARK    3  A    between atoms: N_2  and  C_4
REMARK    4  A    between atoms: C_4  and  C_5
REMARK    5  A    between atoms: C_5  and  C_6
REMARK                            x       y       z     vdW  Elec       q    Type
REMARK                         _______ _______ _______ _____ _____    ______ ____
ROOT
ATOM      1  C   UNL     1       4.924   5.666  16.458  0.00  0.00    +0.000 A 
ATOM      2  C   UNL     1       4.549   7.022  16.416  0.00  0.00    +0.000 A 
ATOM      3  C   UNL     1       3.570   7.468  17.276  0.00  0.00    +0.000 A 
ATOM      4  C   UNL     1       2.941   6.658  18.156  0.00  0.00    +0.000 A 
ATOM      5  C   UNL     1       3.247   5.283  18.268  0.00  0.00    +0.000 A 
ATOM      6  C   UNL     1       4.281   4.786  17.397  0.00  0.00    +0.000 A 
ATOM      7  C   UNL     1       4.652   3.431  17.488  0.00  0.00    +0.000 A 
ATOM      8  C   UNL     1       4.056   2.581  18.405  0.00  0.00    +0.000 A 
ATOM      9  C   UNL     1       3.045   3.036  19.250  0.00  0.00    +0.000 A 
ATOM     10  C   UNL     1       2.466   2.134  20.157  0.00  0.00    +0.000 A 
ATOM     11  C   UNL     1       1.438   2.548  20.999  0.00  0.00    +0.000 A 
ATOM     12  C   UNL     1       0.980   3.859  20.943  0.00  0.00    +0.000 A 
ATOM     13  C   UNL     1       1.557   4.773  20.059  0.00  0.00    +0.000 A 
ATOM     14  C   UNL     1       2.610   4.388  19.192  0.00  0.00    +0.000 A 
ATOM     15  O   UNL     1       2.066   7.403  18.843  0.00  0.00    +0.000 OA
ATOM     16  C   UNL     1       2.149   8.716  18.399  0.00  0.00    +0.000 C 
ATOM     17  O   UNL     1       3.104   8.716  17.391  0.00  0.00    +0.000 OA
ENDROOT
BRANCH   1  18
ATOM     18  C   UNL     1       6.028   5.219  15.512  0.00  0.00    +0.000 C 
BRANCH  18  19
ATOM     19  C   UNL     1       5.491   4.376  14.336  0.00  0.00    +0.000 C 
BRANCH  19  21
ATOM     20  C   UNL     1       6.027   3.320  12.188  0.00  0.00    +0.000 C 
ATOM     21  N   UNL     1       6.564   3.868  13.448  0.00  0.00    +0.000 NA
ATOM     22  C   UNL     1       7.497   4.961  13.122  0.00  0.00    +0.000 C 
ENDBRANCH  19  21
ENDBRANCH  18  19
ENDBRANCH   1  18
TORSDOF 3
ENDMDL
