MODEL 1
REMARK VINA RESULT:      -7.4      0.000      0.000
REMARK  Name = 
REMARK  7 active torsions:
REMARK  status: ('A' for Active; 'I' for Inactive)
REMARK    1  A    between atoms: C_1  and  C_2
REMARK    2  A    between atoms: C_4  and  C_5
REMARK    3  A    between atoms: C_9  and  C_10
REMARK    4  A    between atoms: N_12  and  C_13
REMARK    5  A    between atoms: C_13  and  C_14
REMARK    6  A    between atoms: C_14  and  C_15
REMARK    7  A    between atoms: C_14  and  C_16
REMARK                            x       y       z     vdW  Elec       q    Type
REMARK                         _______ _______ _______ _____ _____    ______ ____
ROOT
ATOM      1  C   UNL     1       3.499   1.577  18.517  0.00  0.00    +0.000 C 
ATOM      2  C   UNL     1       3.688   3.033  18.181  0.00  0.00    +0.000 A 
ATOM      3  C   UNL     1       2.949   4.025  19.023  0.00  0.00    +0.000 A 
ATOM      4  C   UNL     1       3.124   5.323  18.717  0.00  0.00    +0.000 A 
ATOM      5  C   UNL     1       2.445   6.422  19.475  0.00  0.00    +0.000 C 
ATOM      6  N   UNL     1       3.972   5.665  17.651  0.00  0.00    +0.000 N 
ATOM      7  N   UNL     1       4.277   6.904  17.191  0.00  0.00    +0.000 NA
ATOM      8  C   UNL     1       5.115   6.686  16.176  0.00  0.00    +0.000 A 
ATOM      9  C   UNL     1       5.375   5.321  15.947  0.00  0.00    +0.000 A 
ATOM     10  C   UNL     1       4.629   4.669  16.913  0.00  0.00    +0.000 A 
ATOM     11  N   UNL     1       4.476   3.333  17.190  0.00  0.00    +0.000 NA
ENDROOT
BRANCH   9  12
ATOM     12  C   UNL     1       6.233   4.754  14.922  0.00  0.00    +0.000 C 
ATOM     13  O   UNL     1       7.455   4.744  15.038  0.00  0.00    +0.000 OA
ATOM     14  N   UNL     1       5.576   4.246  13.826  0.00  0.00    +0.000 N 
ATOM     15  H   UNL     1       4.559   4.275  13.839  0.00  0.00    +0.000 HD
BRANCH  14  16
ATOM     16  C   UNL     1       6.259   3.648  12.698  0.00  0.00    +0.000 C 
BRANCH  16  17
ATOM     17  C   UNL     1       5.433   2.553  12.004  0.00  0.00    +0.000 C 
ATOM     18  C   UNL     1       4.320   3.142  11.135  0.00  0.00    +0.000 C 
ATOM     19  C   UNL     1       6.346   1.676  11.144  0.00  0.00    +0.000 C 
ENDBRANCH  16  17
ENDBRANCH  14  16
ENDBRANCH   9  12
TORSDOF 3
ENDMDL
MODEL 2
REMARK VINA RESULT:      -6.9      3.245      5.031
REMARK  Name = 
REMARK  7 active torsions:
REMARK  status: ('A' for Active; 'I' for Inactive)
REMARK    1  A    between atoms: C_1  and  C_2
REMARK    2  A    between atoms: C_4  and  C_5
REMARK    3  A    between atoms: C_9  and  C_10
REMARK    4  A    between atoms: N_12  and  C_13
REMARK    5  A    between atoms: C_13  and  C_14
REMARK    6  A    between atoms: C_14  and  C_15
REMARK    7  A    between atoms: C_14  and  C_16
REMARK                            x       y       z     vdW  Elec       q    Type
REMARK                         _______ _______ _______ _____ _____    ______ ____
ROOT
ATOM      1  C   UNL     1       1.830   7.560  20.407  0.00  0.00    +0.000 C 
ATOM      2  C   UNL     1       2.209   6.126  20.140  0.00  0.00    +0.000 A 
ATOM      3  C   UNL     1       1.501   5.077  20.937  0.00  0.00    +0.000 A 
ATOM      4  C   UNL     1       1.844   3.800  20.691  0.00  0.00    +0.000 A 
ATOM      5  C   UNL     1       1.217   2.650  21.416  0.00  0.00    +0.000 C 
ATOM      6  N   UNL     1       2.824   3.531  19.722  0.00  0.00    +0.000 N 
ATOM      7  N   UNL     1       3.304   2.323  19.332  0.00  0.00    +0.000 NA
ATOM      8  C   UNL     1       4.209   2.611  18.395  0.00  0.00    +0.000 A 
ATOM      9  C   UNL     1       4.345   3.992  18.151  0.00  0.00    +0.000 A 
ATOM     10  C   UNL     1       3.439   4.578  19.018  0.00  0.00    +0.000 A 
ATOM     11  N   UNL     1       3.120   5.894  19.239  0.00  0.00    +0.000 NA
ENDROOT
BRANCH   9  12
ATOM     12  C   UNL     1       5.242   4.628  17.203  0.00  0.00    +0.000 C 
ATOM     13  O   UNL     1       5.626   4.049  16.191  0.00  0.00    +0.000 OA
ATOM     14  N   UNL     1       5.626   5.908  17.531  0.00  0.00    +0.000 N 
ATOM     15  H   UNL     1       5.228   6.310  18.376  0.00  0.00    +0.000 HD
BRANCH  14  16
ATOM     16  C   UNL     1       6.521   6.701  16.716  0.00  0.00    +0.000 C 
BRANCH  16  17
ATOM     17  C   UNL     1       7.797   7.127  17.460  0.00  0.00    +0.000 C 
ATOM     18  C   UNL     1       7.833   8.635  17.714  0.00  0.00    +0.000 C 
ATOM     19  C   UNL     1       7.900   6.379  18.791  0.00  0.00    +0.000 C 
ENDBRANCH  16  17
ENDBRANCH  14  16
ENDBRANCH   9  12
TORSDOF 3
ENDMDL
MODEL 3
REMARK VINA RESULT:      -6.8      5.550      7.405
REMARK  Name = 
REMARK  7 active torsions:
REMARK  status: ('A' for Active; 'I' for Inactive)
REMARK    1  A    between atoms: C_1  and  C_2
REMARK    2  A    between atoms: C_4  and  C_5
REMARK    3  A    between atoms: C_9  and  C_10
REMARK    4  A    between atoms: N_12  and  C_13
REMARK    5  A    between atoms: C_13  and  C_14
REMARK    6  A    between atoms: C_14  and  C_15
REMARK    7  A    between atoms: C_14  and  C_16
REMARK                            x       y       z     vdW  Elec       q    Type
REMARK                         _______ _______ _______ _____ _____    ______ ____
ROOT
ATOM      1  C   UNL     1      -0.110   9.421  23.069  0.00  0.00    +0.000 C 
ATOM      2  C   UNL     1       0.390   9.590  21.657  0.00  0.00    +0.000 A 
ATOM      3  C   UNL     1       0.150  10.914  21.005  0.00  0.00    +0.000 A 
ATOM      4  C   UNL     1       0.601  11.056  19.746  0.00  0.00    +0.000 A 
ATOM      5  C   UNL     1       0.427  12.327  18.973  0.00  0.00    +0.000 C 
ATOM      6  N   UNL     1       1.258   9.979  19.130  0.00  0.00    +0.000 N 
ATOM      7  N   UNL     1       1.782   9.923  17.880  0.00  0.00    +0.000 NA
ATOM      8  C   UNL     1       2.288   8.693  17.785  0.00  0.00    +0.000 A 
ATOM      9  C   UNL     1       2.111   7.922  18.950  0.00  0.00    +0.000 A 
ATOM     10  C   UNL     1       1.443   8.769  19.817  0.00  0.00    +0.000 A 
ATOM     11  N   UNL     1       0.997   8.581  21.101  0.00  0.00    +0.000 NA
ENDROOT
BRANCH   9  12
ATOM     12  C   UNL     1       2.539   6.551  19.165  0.00  0.00    +0.000 C 
ATOM     13  O   UNL     1       3.179   5.936  18.317  0.00  0.00    +0.000 OA
ATOM     14  N   UNL     1       2.169   6.005  20.372  0.00  0.00    +0.000 N 
ATOM     15  H   UNL     1       1.666   6.608  21.019  0.00  0.00    +0.000 HD
BRANCH  14  16
ATOM     16  C   UNL     1       2.495   4.651  20.764  0.00  0.00    +0.000 C 
BRANCH  16  17
ATOM     17  C   UNL     1       1.286   3.704  20.728  0.00  0.00    +0.000 C 
ATOM     18  C   UNL     1       1.048   3.134  19.327  0.00  0.00    +0.000 C 
ATOM     19  C   UNL     1       1.488   2.557  21.721  0.00  0.00    +0.000 C 
ENDBRANCH  16  17
ENDBRANCH  14  16
ENDBRANCH   9  12
TORSDOF 3
ENDMDL
MODEL 4
REMARK VINA RESULT:      -6.8      2.145      4.022
REMARK  Name = 
REMARK  7 active torsions:
REMARK  status: ('A' for Active; 'I' for Inactive)
REMARK    1  A    between atoms: C_1  and  C_2
REMARK    2  A    between atoms: C_4  and  C_5
REMARK    3  A    between atoms: C_9  and  C_10
REMARK    4  A    between atoms: N_12  and  C_13
REMARK    5  A    between atoms: C_13  and  C_14
REMARK    6  A    between atoms: C_14  and  C_15
REMARK    7  A    between atoms: C_14  and  C_16
REMARK                            x       y       z     vdW  Elec       q    Type
REMARK                         _______ _______ _______ _____ _____    ______ ____
ROOT
ATOM      1  C   UNL     1       2.020   7.646  19.761  0.00  0.00    +0.000 C 
ATOM      2  C   UNL     1       2.473   6.217  19.909  0.00  0.00    +0.000 A 
ATOM      3  C   UNL     1       1.593   5.304  20.703  0.00  0.00    +0.000 A 
ATOM      4  C   UNL     1       2.003   4.030  20.828  0.00  0.00    +0.000 A 
ATOM      5  C   UNL     1       1.221   3.010  21.596  0.00  0.00    +0.000 C 
ATOM      6  N   UNL     1       3.206   3.637  20.219  0.00  0.00    +0.000 N 
ATOM      7  N   UNL     1       3.786   2.410  20.229  0.00  0.00    +0.000 NA
ATOM      8  C   UNL     1       4.901   2.563  19.514  0.00  0.00    +0.000 A 
ATOM      9  C   UNL     1       5.080   3.873  19.026  0.00  0.00    +0.000 A 
ATOM     10  C   UNL     1       3.971   4.560  19.490  0.00  0.00    +0.000 A 
ATOM     11  N   UNL     1       3.591   5.870  19.339  0.00  0.00    +0.000 NA
ENDROOT
BRANCH   9  12
ATOM     12  C   UNL     1       6.187   4.364  18.225  0.00  0.00    +0.000 C 
ATOM     13  O   UNL     1       7.089   5.037  18.716  0.00  0.00    +0.000 OA
ATOM     14  N   UNL     1       6.139   4.026  16.892  0.00  0.00    +0.000 N 
ATOM     15  H   UNL     1       5.365   3.438  16.590  0.00  0.00    +0.000 HD
BRANCH  14  16
ATOM     16  C   UNL     1       7.146   4.430  15.934  0.00  0.00    +0.000 C 
BRANCH  16  17
ATOM     17  C   UNL     1       6.552   5.030  14.651  0.00  0.00    +0.000 C 
ATOM     18  C   UNL     1       6.113   3.947  13.663  0.00  0.00    +0.000 C 
ATOM     19  C   UNL     1       5.359   5.925  14.995  0.00  0.00    +0.000 C 
ENDBRANCH  16  17
ENDBRANCH  14  16
ENDBRANCH   9  12
TORSDOF 3
ENDMDL
MODEL 5
REMARK VINA RESULT:      -6.7      0.691      1.069
REMARK  Name = 
REMARK  7 active torsions:
REMARK  status: ('A' for Active; 'I' for Inactive)
REMARK    1  A    between atoms: C_1  and  C_2
REMARK    2  A    between atoms: C_4  and  C_5
REMARK    3  A    between atoms: C_9  and  C_10
REMARK    4  A    between atoms: N_12  and  C_13
REMARK    5  A    between atoms: C_13  and  C_14
REMARK    6  A    between atoms: C_14  and  C_15
REMARK    7  A    between atoms: C_14  and  C_16
REMARK                            x       y       z     vdW  Elec       q    Type
REMARK                         _______ _______ _______ _____ _____    ______ ____
ROOT
ATOM      1  C   UNL     1       4.152   2.261  19.620  0.00  0.00    +0.000 C 
ATOM      2  C   UNL     1       4.126   3.595  18.920  0.00  0.00    +0.000 A 
ATOM      3  C   UNL     1       3.251   4.655  19.509  0.00  0.00    +0.000 A 
ATOM      4  C   UNL     1       3.234   5.843  18.879  0.00  0.00    +0.000 A 
ATOM      5  C   UNL     1       2.403   6.991  19.359  0.00  0.00    +0.000 C 
ATOM      6  N   UNL     1       4.022   6.016  17.730  0.00  0.00    +0.000 N 
ATOM      7  N   UNL     1       4.143   7.126  16.959  0.00  0.00    +0.000 NA
ATOM      8  C   UNL     1       5.003   6.776  16.002  0.00  0.00    +0.000 A 
ATOM      9  C   UNL     1       5.460   5.448  16.117  0.00  0.00    +0.000 A 
ATOM     10  C   UNL     1       4.817   4.967  17.244  0.00  0.00    +0.000 A 
ATOM     11  N   UNL     1       4.862   3.739  17.855  0.00  0.00    +0.000 NA
ENDROOT
BRANCH   9  12
ATOM     12  C   UNL     1       6.392   4.765  15.236  0.00  0.00    +0.000 C 
ATOM     13  O   UNL     1       7.562   4.580  15.556  0.00  0.00    +0.000 OA
ATOM     14  N   UNL     1       5.865   4.355  14.034  0.00  0.00    +0.000 N 
ATOM     15  H   UNL     1       4.875   4.528  13.877  0.00  0.00    +0.000 HD
BRANCH  14  16
ATOM     16  C   UNL     1       6.638   3.666  13.022  0.00  0.00    +0.000 C 
BRANCH  16  17
ATOM     17  C   UNL     1       5.792   3.209  11.824  0.00  0.00    +0.000 C 
ATOM     18  C   UNL     1       5.977   1.719  11.529  0.00  0.00    +0.000 C 
ATOM     19  C   UNL     1       4.313   3.500  12.085  0.00  0.00    +0.000 C 
ENDBRANCH  16  17
ENDBRANCH  14  16
ENDBRANCH   9  12
TORSDOF 3
ENDMDL
MODEL 6
REMARK VINA RESULT:      -6.5      1.618      3.017
REMARK  Name = 
REMARK  7 active torsions:
REMARK  status: ('A' for Active; 'I' for Inactive)
REMARK    1  A    between atoms: C_1  and  C_2
REMARK    2  A    between atoms: C_4  and  C_5
REMARK    3  A    between atoms: C_9  and  C_10
REMARK    4  A    between atoms: N_12  and  C_13
REMARK    5  A    between atoms: C_13  and  C_14
REMARK    6  A    between atoms: C_14  and  C_15
REMARK    7  A    between atoms: C_14  and  C_16
REMARK                            x       y       z     vdW  Elec       q    Type
REMARK                         _______ _______ _______ _____ _____    ______ ____
ROOT
ATOM      1  C   UNL     1       1.981   8.816  18.209  0.00  0.00    +0.000 C 
ATOM      2  C   UNL     1       2.607   7.476  18.499  0.00  0.00    +0.000 A 
ATOM      3  C   UNL     1       2.074   6.717  19.672  0.00  0.00    +0.000 A 
ATOM      4  C   UNL     1       2.638   5.522  19.923  0.00  0.00    +0.000 A 
ATOM      5  C   UNL     1       2.204   4.657  21.065  0.00  0.00    +0.000 C 
ATOM      6  N   UNL     1       3.670   5.065  19.087  0.00  0.00    +0.000 N 
ATOM      7  N   UNL     1       4.359   3.900  19.171  0.00  0.00    +0.000 NA
ATOM      8  C   UNL     1       5.220   3.947  18.154  0.00  0.00    +0.000 A 
ATOM      9  C   UNL     1       5.121   5.126  17.389  0.00  0.00    +0.000 A 
ATOM     10  C   UNL     1       4.109   5.843  18.005  0.00  0.00    +0.000 A 
ATOM     11  N   UNL     1       3.563   7.068  17.715  0.00  0.00    +0.000 NA
ENDROOT
BRANCH   9  12
ATOM     12  C   UNL     1       5.914   5.485  16.227  0.00  0.00    +0.000 C 
ATOM     13  O   UNL     1       6.450   6.585  16.127  0.00  0.00    +0.000 OA
ATOM     14  N   UNL     1       6.008   4.511  15.261  0.00  0.00    +0.000 N 
ATOM     15  H   UNL     1       5.553   3.621  15.452  0.00  0.00    +0.000 HD
BRANCH  14  16
ATOM     16  C   UNL     1       6.747   4.684  14.028  0.00  0.00    +0.000 C 
BRANCH  16  17
ATOM     17  C   UNL     1       6.393   3.637  12.960  0.00  0.00    +0.000 C 
ATOM     18  C   UNL     1       4.896   3.629  12.643  0.00  0.00    +0.000 C 
ATOM     19  C   UNL     1       7.187   3.907  11.680  0.00  0.00    +0.000 C 
ENDBRANCH  16  17
ENDBRANCH  14  16
ENDBRANCH   9  12
TORSDOF 3
ENDMDL
MODEL 7
REMARK VINA RESULT:      -6.5      1.425      2.905
REMARK  Name = 
REMARK  7 active torsions:
REMARK  status: ('A' for Active; 'I' for Inactive)
REMARK    1  A    between atoms: C_1  and  C_2
REMARK    2  A    between atoms: C_4  and  C_5
REMARK    3  A    between atoms: C_9  and  C_10
REMARK    4  A    between atoms: N_12  and  C_13
REMARK    5  A    between atoms: C_13  and  C_14
REMARK    6  A    between atoms: C_14  and  C_15
REMARK    7  A    between atoms: C_14  and  C_16
REMARK                            x       y       z     vdW  Elec       q    Type
REMARK                         _______ _______ _______ _____ _____    ______ ____
ROOT
ATOM      1  C   UNL     1       2.605   8.282  18.113  0.00  0.00    +0.000 C 
ATOM      2  C   UNL     1       2.755   6.792  18.284  0.00  0.00    +0.000 A 
ATOM      3  C   UNL     1       1.805   6.117  19.221  0.00  0.00    +0.000 A 
ATOM      4  C   UNL     1       1.944   4.787  19.367  0.00  0.00    +0.000 A 
ATOM      5  C   UNL     1       1.063   3.985  20.273  0.00  0.00    +0.000 C 
ATOM      6  N   UNL     1       2.951   4.124  18.647  0.00  0.00    +0.000 N 
ATOM      7  N   UNL     1       3.251   2.801  18.655  0.00  0.00    +0.000 NA
ATOM      8  C   UNL     1       4.276   2.686  17.811  0.00  0.00    +0.000 A 
ATOM      9  C   UNL     1       4.670   3.910  17.236  0.00  0.00    +0.000 A 
ATOM     10  C   UNL     1       3.801   4.836  17.786  0.00  0.00    +0.000 A 
ATOM     11  N   UNL     1       3.694   6.193  17.610  0.00  0.00    +0.000 NA
ENDROOT
BRANCH   9  12
ATOM     12  C   UNL     1       5.750   4.125  16.289  0.00  0.00    +0.000 C 
ATOM     13  O   UNL     1       6.907   4.300  16.659  0.00  0.00    +0.000 OA
ATOM     14  N   UNL     1       5.375   4.123  14.966  0.00  0.00    +0.000 N 
ATOM     15  H   UNL     1       4.395   3.937  14.760  0.00  0.00    +0.000 HD
BRANCH  14  16
ATOM     16  C   UNL     1       6.306   4.328  13.876  0.00  0.00    +0.000 C 
BRANCH  16  17
ATOM     17  C   UNL     1       6.080   3.366  12.700  0.00  0.00    +0.000 C 
ATOM     18  C   UNL     1       4.675   3.506  12.109  0.00  0.00    +0.000 C 
ATOM     19  C   UNL     1       7.123   3.618  11.609  0.00  0.00    +0.000 C 
ENDBRANCH  16  17
ENDBRANCH  14  16
ENDBRANCH   9  12
TORSDOF 3
ENDMDL
MODEL 8
REMARK VINA RESULT:      -6.5      1.859      3.600
REMARK  Name = 
REMARK  7 active torsions:
REMARK  status: ('A' for Active; 'I' for Inactive)
REMARK    1  A    between atoms: C_1  and  C_2
REMARK    2  A    between atoms: C_4  and  C_5
REMARK    3  A    between atoms: C_9  and  C_10
REMARK    4  A    between atoms: N_12  and  C_13
REMARK    5  A    between atoms: C_13  and  C_14
REMARK    6  A    between atoms: C_14  and  C_15
REMARK    7  A    between atoms: C_14  and  C_16
REMARK                            x       y       z     vdW  Elec       q    Type
REMARK                         _______ _______ _______ _____ _____    ______ ____
ROOT
ATOM      1  C   UNL     1       1.894   7.826  20.223  0.00  0.00    +0.000 C 
ATOM      2  C   UNL     1       2.245   6.396  19.901  0.00  0.00    +0.000 A 
ATOM      3  C   UNL     1       1.504   5.332  20.645  0.00  0.00    +0.000 A 
ATOM      4  C   UNL     1       1.822   4.058  20.351  0.00  0.00    +0.000 A 
ATOM      5  C   UNL     1       1.161   2.894  21.021  0.00  0.00    +0.000 C 
ATOM      6  N   UNL     1       2.808   3.807  19.384  0.00  0.00    +0.000 N 
ATOM      7  N   UNL     1       3.267   2.606  18.951  0.00  0.00    +0.000 NA
ATOM      8  C   UNL     1       4.190   2.911  18.037  0.00  0.00    +0.000 A 
ATOM      9  C   UNL     1       4.359   4.298  17.852  0.00  0.00    +0.000 A 
ATOM     10  C   UNL     1       3.455   4.868  18.732  0.00  0.00    +0.000 A 
ATOM     11  N   UNL     1       3.162   6.181  19.003  0.00  0.00    +0.000 NA
ENDROOT
BRANCH   9  12
ATOM     12  C   UNL     1       5.282   4.952  16.942  0.00  0.00    +0.000 C 
ATOM     13  O   UNL     1       5.216   6.157  16.714  0.00  0.00    +0.000 OA
ATOM     14  N   UNL     1       6.214   4.125  16.361  0.00  0.00    +0.000 N 
ATOM     15  H   UNL     1       6.205   3.146  16.639  0.00  0.00    +0.000 HD
BRANCH  14  16
ATOM     16  C   UNL     1       7.212   4.591  15.421  0.00  0.00    +0.000 C 
BRANCH  16  17
ATOM     17  C   UNL     1       6.643   4.854  14.018  0.00  0.00    +0.000 C 
ATOM     18  C   UNL     1       7.745   5.174  13.005  0.00  0.00    +0.000 C 
ATOM     19  C   UNL     1       5.845   3.639  13.540  0.00  0.00    +0.000 C 
ENDBRANCH  16  17
ENDBRANCH  14  16
ENDBRANCH   9  12
TORSDOF 3
ENDMDL
MODEL 9
REMARK VINA RESULT:      -6.4      3.643      7.857
REMARK  Name = 
REMARK  7 active torsions:
REMARK  status: ('A' for Active; 'I' for Inactive)
REMARK    1  A    between atoms: C_1  and  C_2
REMARK    2  A    between atoms: C_4  and  C_5
REMARK    3  A    between atoms: C_9  and  C_10
REMARK    4  A    between atoms: N_12  and  C_13
REMARK    5  A    between atoms: C_13  and  C_14
REMARK    6  A    between atoms: C_14  and  C_15
REMARK    7  A    between atoms: C_14  and  C_16
REMARK                            x       y       z     vdW  Elec       q    Type
REMARK                         _______ _______ _______ _____ _____    ______ ____
ROOT
ATOM      1  C   UNL     1       5.852   5.813  16.561  0.00  0.00    +0.000 C 
ATOM      2  C   UNL     1       4.799   5.215  17.458  0.00  0.00    +0.000 A 
ATOM      3  C   UNL     1       4.692   3.724  17.479  0.00  0.00    +0.000 A 
ATOM      4  C   UNL     1       3.750   3.199  18.284  0.00  0.00    +0.000 A 
ATOM      5  C   UNL     1       3.532   1.722  18.402  0.00  0.00    +0.000 C 
ATOM      6  N   UNL     1       2.942   4.061  19.041  0.00  0.00    +0.000 N 
ATOM      7  N   UNL     1       1.947   3.732  19.904  0.00  0.00    +0.000 NA
ATOM      8  C   UNL     1       1.499   4.903  20.358  0.00  0.00    +0.000 A 
ATOM      9  C   UNL     1       2.175   6.012  19.814  0.00  0.00    +0.000 A 
ATOM     10  C   UNL     1       3.111   5.452  18.962  0.00  0.00    +0.000 A 
ATOM     11  N   UNL     1       4.057   6.029  18.153  0.00  0.00    +0.000 NA
ENDROOT
BRANCH   9  12
ATOM     12  C   UNL     1       1.925   7.415  20.097  0.00  0.00    +0.000 C 
ATOM     13  O   UNL     1       1.957   8.266  19.214  0.00  0.00    +0.000 OA
ATOM     14  N   UNL     1       1.661   7.707  21.415  0.00  0.00    +0.000 N 
ATOM     15  H   UNL     1       1.627   6.925  22.067  0.00  0.00    +0.000 HD
BRANCH  14  16
ATOM     16  C   UNL     1       1.395   9.047  21.894  0.00  0.00    +0.000 C 
BRANCH  16  17
ATOM     17  C   UNL     1      -0.091   9.430  21.820  0.00  0.00    +0.000 C 
ATOM     18  C   UNL     1      -0.625   9.910  23.172  0.00  0.00    +0.000 C 
ATOM     19  C   UNL     1      -0.299  10.523  20.769  0.00  0.00    +0.000 C 
ENDBRANCH  16  17
ENDBRANCH  14  16
ENDBRANCH   9  12
TORSDOF 3
ENDMDL
