MODEL 1
REMARK VINA RESULT:      -9.0      0.000      0.000
REMARK  Name = 
REMARK  4 active torsions:
REMARK  status: ('A' for Active; 'I' for Inactive)
REMARK    1  A    between atoms: C_2  and  C_3
REMARK    2  A    between atoms: C_3  and  C_4
REMARK    3  A    between atoms: C_4  and  N_5
REMARK    4  A    between atoms: N_11  and  C_12
REMARK                            x       y       z     vdW  Elec       q    Type
REMARK                         _______ _______ _______ _____ _____    ______ ____
ROOT
ATOM      1  C   UNL     1       6.223   5.890  16.413  0.00  0.00    +0.000 A 
ATOM      2  C   UNL     1       6.839   5.032  15.497  0.00  0.00    +0.000 A 
ATOM      3  C   UNL     1       6.344   3.747  15.277  0.00  0.00    +0.000 A 
ATOM      4  C   UNL     1       5.225   3.300  15.974  0.00  0.00    +0.000 A 
ATOM      5  C   UNL     1       4.595   4.109  16.935  0.00  0.00    +0.000 A 
ATOM      6  C   UNL     1       5.117   5.404  17.159  0.00  0.00    +0.000 A 
ATOM      7  C   UNL     1       4.458   6.254  18.198  0.00  0.00    +0.000 C 
ATOM      8  O   UNL     1       4.882   7.378  18.456  0.00  0.00    +0.000 OA
ATOM      9  C   UNL     1       3.281   5.727  18.932  0.00  0.00    +0.000 A 
ATOM     10  C   UNL     1       2.651   6.516  19.900  0.00  0.00    +0.000 A 
ATOM     11  C   UNL     1       1.542   6.021  20.587  0.00  0.00    +0.000 A 
ATOM     12  C   UNL     1       1.063   4.739  20.306  0.00  0.00    +0.000 A 
ATOM     13  C   UNL     1       1.687   3.938  19.338  0.00  0.00    +0.000 A 
ATOM     14  C   UNL     1       1.230   2.655  19.037  0.00  0.00    +0.000 A 
ATOM     15  C   UNL     1       1.896   1.925  18.073  0.00  0.00    +0.000 A 
ATOM     16  N   UNL     1       2.973   2.379  17.397  0.00  0.00    +0.000 NA
ATOM     17  C   UNL     1       3.422   3.629  17.687  0.00  0.00    +0.000 A 
ATOM     18  C   UNL     1       2.811   4.440  18.645  0.00  0.00    +0.000 A 
ENDROOT
BRANCH   1  21
ATOM     19  O   UNL     1       8.246   6.931  18.335  0.00  0.00    +0.000 OA
ATOM     20  C   UNL     1       7.608   7.647  17.567  0.00  0.00    +0.000 C 
ATOM     21  N   UNL     1       6.696   7.213  16.621  0.00  0.00    +0.000 N 
ATOM     22  H   UNL     1       6.429   7.879  15.891  0.00  0.00    +0.000 HD
BRANCH  20  23
ATOM     23  C   UNL     1       7.739   9.159  17.626  0.00  0.00    +0.000 C 
BRANCH  23  24
ATOM     24  C   UNL     1       8.726   9.605  18.712  0.00  0.00    +0.000 C 
BRANCH  24  25
ATOM     25  N   UNL     1       9.570  10.748  18.291  0.00  0.00    +0.000 NA
ATOM     26  C   UNL     1       8.765  11.930  17.932  0.00  0.00    +0.000 C 
ATOM     27  C   UNL     1       9.647  13.080  17.441  0.00  0.00    +0.000 C 
ATOM     28  C   UNL     1      10.704  13.454  18.470  0.00  0.00    +0.000 C 
ATOM     29  C   UNL     1      11.476  12.216  18.906  0.00  0.00    +0.000 C 
ATOM     30  C   UNL     1      10.531  11.096  19.354  0.00  0.00    +0.000 C 
ENDBRANCH  24  25
ENDBRANCH  23  24
ENDBRANCH  20  23
ENDBRANCH   1  21
TORSDOF 4
ENDMDL
MODEL 2
REMARK VINA RESULT:      -8.8      3.112      5.928
REMARK  Name = 
REMARK  4 active torsions:
REMARK  status: ('A' for Active; 'I' for Inactive)
REMARK    1  A    between atoms: C_2  and  C_3
REMARK    2  A    between atoms: C_3  and  C_4
REMARK    3  A    between atoms: C_4  and  N_5
REMARK    4  A    between atoms: N_11  and  C_12
REMARK                            x       y       z     vdW  Elec       q    Type
REMARK                         _______ _______ _______ _____ _____    ______ ____
ROOT
ATOM      1  C   UNL     1       3.094   5.182  18.748  0.00  0.00    +0.000 A 
ATOM      2  C   UNL     1       2.972   4.110  19.637  0.00  0.00    +0.000 A 
ATOM      3  C   UNL     1       2.269   4.250  20.833  0.00  0.00    +0.000 A 
ATOM      4  C   UNL     1       1.680   5.469  21.159  0.00  0.00    +0.000 A 
ATOM      5  C   UNL     1       1.809   6.587  20.319  0.00  0.00    +0.000 A 
ATOM      6  C   UNL     1       2.538   6.435  19.117  0.00  0.00    +0.000 A 
ATOM      7  C   UNL     1       2.693   7.633  18.236  0.00  0.00    +0.000 C 
ATOM      8  O   UNL     1       3.337   7.570  17.191  0.00  0.00    +0.000 OA
ATOM      9  C   UNL     1       2.066   8.917  18.634  0.00  0.00    +0.000 A 
ATOM     10  C   UNL     1       2.197  10.043  17.814  0.00  0.00    +0.000 A 
ATOM     11  C   UNL     1       1.603  11.249  18.188  0.00  0.00    +0.000 A 
ATOM     12  C   UNL     1       0.879  11.330  19.381  0.00  0.00    +0.000 A 
ATOM     13  C   UNL     1       0.742  10.208  20.212  0.00  0.00    +0.000 A 
ATOM     14  C   UNL     1       0.024  10.260  21.407  0.00  0.00    +0.000 A 
ATOM     15  C   UNL     1      -0.067   9.115  22.174  0.00  0.00    +0.000 A 
ATOM     16  N   UNL     1       0.501   7.938  21.836  0.00  0.00    +0.000 NA
ATOM     17  C   UNL     1       1.201   7.883  20.672  0.00  0.00    +0.000 A 
ATOM     18  C   UNL     1       1.345   8.988  19.833  0.00  0.00    +0.000 A 
ENDROOT
BRANCH   1  21
ATOM     19  O   UNL     1       3.786   2.736  17.195  0.00  0.00    +0.000 OA
ATOM     20  C   UNL     1       4.116   3.870  16.857  0.00  0.00    +0.000 C 
ATOM     21  N   UNL     1       3.779   5.043  17.512  0.00  0.00    +0.000 N 
ATOM     22  H   UNL     1       3.902   5.917  16.994  0.00  0.00    +0.000 HD
BRANCH  20  23
ATOM     23  C   UNL     1       5.010   4.092  15.651  0.00  0.00    +0.000 C 
BRANCH  23  24
ATOM     24  C   UNL     1       6.485   4.228  16.050  0.00  0.00    +0.000 C 
BRANCH  24  25
ATOM     25  N   UNL     1       6.703   5.235  17.115  0.00  0.00    +0.000 NA
ATOM     26  C   UNL     1       7.721   4.800  18.090  0.00  0.00    +0.000 C 
ATOM     27  C   UNL     1       7.890   5.823  19.216  0.00  0.00    +0.000 C 
ATOM     28  C   UNL     1       8.235   7.202  18.673  0.00  0.00    +0.000 C 
ATOM     29  C   UNL     1       7.233   7.612  17.602  0.00  0.00    +0.000 C 
ATOM     30  C   UNL     1       7.091   6.531  16.526  0.00  0.00    +0.000 C 
ENDBRANCH  24  25
ENDBRANCH  23  24
ENDBRANCH  20  23
ENDBRANCH   1  21
TORSDOF 4
ENDMDL
MODEL 3
REMARK VINA RESULT:      -8.2      4.403      6.613
REMARK  Name = 
REMARK  4 active torsions:
REMARK  status: ('A' for Active; 'I' for Inactive)
REMARK    1  A    between atoms: C_2  and  C_3
REMARK    2  A    between atoms: C_3  and  C_4
REMARK    3  A    between atoms: C_4  and  N_5
REMARK    4  A    between atoms: N_11  and  C_12
REMARK                            x       y       z     vdW  Elec       q    Type
REMARK                         _______ _______ _______ _____ _____    ______ ____
ROOT
ATOM      1  C   UNL     1       3.580   4.604  19.048  0.00  0.00    +0.000 A 
ATOM      2  C   UNL     1       3.386   3.580  19.979  0.00  0.00    +0.000 A 
ATOM      3  C   UNL     1       2.514   3.749  21.055  0.00  0.00    +0.000 A 
ATOM      4  C   UNL     1       1.826   4.948  21.216  0.00  0.00    +0.000 A 
ATOM      5  C   UNL     1       2.019   6.022  20.330  0.00  0.00    +0.000 A 
ATOM      6  C   UNL     1       2.918   5.842  19.253  0.00  0.00    +0.000 A 
ATOM      7  C   UNL     1       3.138   6.995  18.326  0.00  0.00    +0.000 C 
ATOM      8  O   UNL     1       3.925   6.908  17.387  0.00  0.00    +0.000 OA
ATOM      9  C   UNL     1       2.399   8.262  18.549  0.00  0.00    +0.000 A 
ATOM     10  C   UNL     1       2.590   9.344  17.684  0.00  0.00    +0.000 A 
ATOM     11  C   UNL     1       1.892  10.533  17.892  0.00  0.00    +0.000 A 
ATOM     12  C   UNL     1       1.004  10.642  18.966  0.00  0.00    +0.000 A 
ATOM     13  C   UNL     1       0.804   9.564  19.842  0.00  0.00    +0.000 A 
ATOM     14  C   UNL     1      -0.077   9.644  20.920  0.00  0.00    +0.000 A 
ATOM     15  C   UNL     1      -0.220   8.542  21.740  0.00  0.00    +0.000 A 
ATOM     16  N   UNL     1       0.446   7.382  21.561  0.00  0.00    +0.000 NA
ATOM     17  C   UNL     1       1.306   7.299  20.511  0.00  0.00    +0.000 A 
ATOM     18  C   UNL     1       1.513   8.361  19.629  0.00  0.00    +0.000 A 
ENDROOT
BRANCH   1  21
ATOM     19  O   UNL     1       6.549   4.403  18.912  0.00  0.00    +0.000 OA
ATOM     20  C   UNL     1       5.823   4.394  17.921  0.00  0.00    +0.000 C 
ATOM     21  N   UNL     1       4.438   4.432  17.929  0.00  0.00    +0.000 N 
ATOM     22  H   UNL     1       3.960   4.169  17.064  0.00  0.00    +0.000 HD
BRANCH  20  23
ATOM     23  C   UNL     1       6.415   4.386  16.523  0.00  0.00    +0.000 C 
BRANCH  23  24
ATOM     24  C   UNL     1       5.345   4.146  15.451  0.00  0.00    +0.000 C 
BRANCH  24  25
ATOM     25  N   UNL     1       5.820   4.457  14.082  0.00  0.00    +0.000 NA
ATOM     26  C   UNL     1       7.249   4.818  14.059  0.00  0.00    +0.000 C 
ATOM     27  C   UNL     1       7.708   5.195  12.648  0.00  0.00    +0.000 C 
ATOM     28  C   UNL     1       7.430   4.079  11.652  0.00  0.00    +0.000 C 
ATOM     29  C   UNL     1       5.973   3.646  11.740  0.00  0.00    +0.000 C 
ATOM     30  C   UNL     1       5.574   3.315  13.182  0.00  0.00    +0.000 C 
ENDBRANCH  24  25
ENDBRANCH  23  24
ENDBRANCH  20  23
ENDBRANCH   1  21
TORSDOF 4
ENDMDL
MODEL 4
REMARK VINA RESULT:      -8.1      5.319      8.266
REMARK  Name = 
REMARK  4 active torsions:
REMARK  status: ('A' for Active; 'I' for Inactive)
REMARK    1  A    between atoms: C_2  and  C_3
REMARK    2  A    between atoms: C_3  and  C_4
REMARK    3  A    between atoms: C_4  and  N_5
REMARK    4  A    between atoms: N_11  and  C_12
REMARK                            x       y       z     vdW  Elec       q    Type
REMARK                         _______ _______ _______ _____ _____    ______ ____
ROOT
ATOM      1  C   UNL     1       1.227   8.939  19.574  0.00  0.00    +0.000 A 
ATOM      2  C   UNL     1       1.537   9.906  18.614  0.00  0.00    +0.000 A 
ATOM      3  C   UNL     1       2.390   9.610  17.551  0.00  0.00    +0.000 A 
ATOM      4  C   UNL     1       2.948   8.340  17.435  0.00  0.00    +0.000 A 
ATOM      5  C   UNL     1       2.699   7.346  18.397  0.00  0.00    +0.000 A 
ATOM      6  C   UNL     1       1.845   7.666  19.478  0.00  0.00    +0.000 A 
ATOM      7  C   UNL     1       1.601   6.612  20.512  0.00  0.00    +0.000 C 
ATOM      8  O   UNL     1       0.890   6.838  21.487  0.00  0.00    +0.000 OA
ATOM      9  C   UNL     1       2.234   5.280  20.358  0.00  0.00    +0.000 A 
ATOM     10  C   UNL     1       2.007   4.284  21.314  0.00  0.00    +0.000 A 
ATOM     11  C   UNL     1       2.599   3.029  21.167  0.00  0.00    +0.000 A 
ATOM     12  C   UNL     1       3.419   2.770  20.065  0.00  0.00    +0.000 A 
ATOM     13  C   UNL     1       3.656   3.761  19.100  0.00  0.00    +0.000 A 
ATOM     14  C   UNL     1       4.469   3.529  17.991  0.00  0.00    +0.000 A 
ATOM     15  C   UNL     1       4.656   4.554  17.083  0.00  0.00    +0.000 A 
ATOM     16  N   UNL     1       4.097   5.776  17.205  0.00  0.00    +0.000 NA
ATOM     17  C   UNL     1       3.304   6.006  18.285  0.00  0.00    +0.000 A 
ATOM     18  C   UNL     1       3.056   5.031  19.252  0.00  0.00    +0.000 A 
ENDROOT
BRANCH   1  21
ATOM     19  O   UNL     1       1.241  11.153  21.567  0.00  0.00    +0.000 OA
ATOM     20  C   UNL     1       0.417  10.241  21.572  0.00  0.00    +0.000 C 
ATOM     21  N   UNL     1       0.334   9.218  20.642  0.00  0.00    +0.000 N 
ATOM     22  H   UNL     1      -0.536   8.679  20.620  0.00  0.00    +0.000 HD
BRANCH  20  23
ATOM     23  C   UNL     1      -0.607  10.125  22.687  0.00  0.00    +0.000 C 
BRANCH  23  24
ATOM     24  C   UNL     1      -1.132  11.497  23.125  0.00  0.00    +0.000 C 
BRANCH  24  25
ATOM     25  N   UNL     1      -2.400  11.871  22.456  0.00  0.00    +0.000 NA
ATOM     26  C   UNL     1      -3.330  12.556  23.372  0.00  0.00    +0.000 C 
ATOM     27  C   UNL     1      -4.658  12.880  22.683  0.00  0.00    +0.000 C 
ATOM     28  C   UNL     1      -4.447  13.712  21.426  0.00  0.00    +0.000 C 
ATOM     29  C   UNL     1      -3.419  13.048  20.521  0.00  0.00    +0.000 C 
ATOM     30  C   UNL     1      -2.130  12.723  21.283  0.00  0.00    +0.000 C 
ENDBRANCH  24  25
ENDBRANCH  23  24
ENDBRANCH  20  23
ENDBRANCH   1  21
TORSDOF 4
ENDMDL
MODEL 5
REMARK VINA RESULT:      -8.1      4.812      7.334
REMARK  Name = 
REMARK  4 active torsions:
REMARK  status: ('A' for Active; 'I' for Inactive)
REMARK    1  A    between atoms: C_2  and  C_3
REMARK    2  A    between atoms: C_3  and  C_4
REMARK    3  A    between atoms: C_4  and  N_5
REMARK    4  A    between atoms: N_11  and  C_12
REMARK                            x       y       z     vdW  Elec       q    Type
REMARK                         _______ _______ _______ _____ _____    ______ ____
ROOT
ATOM      1  C   UNL     1       1.216   8.918  19.672  0.00  0.00    +0.000 A 
ATOM      2  C   UNL     1       1.520   9.913  18.738  0.00  0.00    +0.000 A 
ATOM      3  C   UNL     1       2.351   9.643  17.652  0.00  0.00    +0.000 A 
ATOM      4  C   UNL     1       2.894   8.372  17.485  0.00  0.00    +0.000 A 
ATOM      5  C   UNL     1       2.652   7.349  18.418  0.00  0.00    +0.000 A 
ATOM      6  C   UNL     1       1.820   7.642  19.523  0.00  0.00    +0.000 A 
ATOM      7  C   UNL     1       1.583   6.558  20.527  0.00  0.00    +0.000 C 
ATOM      8  O   UNL     1       0.891   6.759  21.521  0.00  0.00    +0.000 OA
ATOM      9  C   UNL     1       2.200   5.225  20.319  0.00  0.00    +0.000 A 
ATOM     10  C   UNL     1       1.979   4.201  21.246  0.00  0.00    +0.000 A 
ATOM     11  C   UNL     1       2.556   2.946  21.047  0.00  0.00    +0.000 A 
ATOM     12  C   UNL     1       3.354   2.716  19.924  0.00  0.00    +0.000 A 
ATOM     13  C   UNL     1       3.585   3.735  18.988  0.00  0.00    +0.000 A 
ATOM     14  C   UNL     1       4.376   3.532  17.857  0.00  0.00    +0.000 A 
ATOM     15  C   UNL     1       4.558   4.583  16.981  0.00  0.00    +0.000 A 
ATOM     16  N   UNL     1       4.014   5.806  17.152  0.00  0.00    +0.000 NA
ATOM     17  C   UNL     1       3.241   6.009  18.252  0.00  0.00    +0.000 A 
ATOM     18  C   UNL     1       3.000   5.005  19.191  0.00  0.00    +0.000 A 
ENDROOT
BRANCH   1  21
ATOM     19  O   UNL     1       1.811   9.875  22.429  0.00  0.00    +0.000 OA
ATOM     20  C   UNL     1       0.684   9.571  22.045  0.00  0.00    +0.000 C 
ATOM     21  N   UNL     1       0.344   9.170  20.764  0.00  0.00    +0.000 N 
ATOM     22  H   UNL     1      -0.649   9.190  20.518  0.00  0.00    +0.000 HD
BRANCH  20  23
ATOM     23  C   UNL     1      -0.489   9.562  23.008  0.00  0.00    +0.000 C 
BRANCH  23  24
ATOM     24  C   UNL     1      -1.230  10.905  23.017  0.00  0.00    +0.000 C 
BRANCH  24  25
ATOM     25  N   UNL     1      -0.832  11.791  21.898  0.00  0.00    +0.000 NA
ATOM     26  C   UNL     1      -1.896  11.917  20.885  0.00  0.00    +0.000 C 
ATOM     27  C   UNL     1      -1.447  12.786  19.707  0.00  0.00    +0.000 C 
ATOM     28  C   UNL     1      -0.992  14.163  20.168  0.00  0.00    +0.000 C 
ATOM     29  C   UNL     1       0.042  14.032  21.278  0.00  0.00    +0.000 C 
ATOM     30  C   UNL     1      -0.460  13.125  22.406  0.00  0.00    +0.000 C 
ENDBRANCH  24  25
ENDBRANCH  23  24
ENDBRANCH  20  23
ENDBRANCH   1  21
TORSDOF 4
ENDMDL
MODEL 6
REMARK VINA RESULT:      -8.1      6.257      9.934
REMARK  Name = 
REMARK  4 active torsions:
REMARK  status: ('A' for Active; 'I' for Inactive)
REMARK    1  A    between atoms: C_2  and  C_3
REMARK    2  A    between atoms: C_3  and  C_4
REMARK    3  A    between atoms: C_4  and  N_5
REMARK    4  A    between atoms: N_11  and  C_12
REMARK                            x       y       z     vdW  Elec       q    Type
REMARK                         _______ _______ _______ _____ _____    ______ ____
ROOT
ATOM      1  C   UNL     1       0.442  10.169  20.045  0.00  0.00    +0.000 A 
ATOM      2  C   UNL     1       0.846  10.641  21.297  0.00  0.00    +0.000 A 
ATOM      3  C   UNL     1       0.034  11.503  22.032  0.00  0.00    +0.000 A 
ATOM      4  C   UNL     1      -1.197  11.910  21.522  0.00  0.00    +0.000 A 
ATOM      5  C   UNL     1      -1.629  11.497  20.250  0.00  0.00    +0.000 A 
ATOM      6  C   UNL     1      -0.787  10.635  19.510  0.00  0.00    +0.000 A 
ATOM      7  C   UNL     1      -1.240  10.216  18.147  0.00  0.00    +0.000 C 
ATOM      8  O   UNL     1      -0.541   9.489  17.445  0.00  0.00    +0.000 OA
ATOM      9  C   UNL     1      -2.549  10.692  17.635  0.00  0.00    +0.000 A 
ATOM     10  C   UNL     1      -2.987  10.300  16.366  0.00  0.00    +0.000 A 
ATOM     11  C   UNL     1      -4.220  10.744  15.888  0.00  0.00    +0.000 A 
ATOM     12  C   UNL     1      -5.014  11.581  16.677  0.00  0.00    +0.000 A 
ATOM     13  C   UNL     1      -4.585  11.982  17.951  0.00  0.00    +0.000 A 
ATOM     14  C   UNL     1      -5.357  12.815  18.760  0.00  0.00    +0.000 A 
ATOM     15  C   UNL     1      -4.868  13.168  20.002  0.00  0.00    +0.000 A 
ATOM     16  N   UNL     1      -3.679  12.754  20.487  0.00  0.00    +0.000 NA
ATOM     17  C   UNL     1      -2.922  11.942  19.701  0.00  0.00    +0.000 A 
ATOM     18  C   UNL     1      -3.336  11.532  18.433  0.00  0.00    +0.000 A 
ENDROOT
BRANCH   1  21
ATOM     19  O   UNL     1       1.520   7.494  20.788  0.00  0.00    +0.000 OA
ATOM     20  C   UNL     1       1.760   8.048  19.718  0.00  0.00    +0.000 C 
ATOM     21  N   UNL     1       1.245   9.264  19.301  0.00  0.00    +0.000 N 
ATOM     22  H   UNL     1       1.324   9.486  18.305  0.00  0.00    +0.000 HD
BRANCH  20  23
ATOM     23  C   UNL     1       2.730   7.435  18.726  0.00  0.00    +0.000 C 
BRANCH  23  24
ATOM     24  C   UNL     1       3.285   6.094  19.223  0.00  0.00    +0.000 C 
BRANCH  24  25
ATOM     25  N   UNL     1       2.478   4.934  18.776  0.00  0.00    +0.000 NA
ATOM     26  C   UNL     1       3.269   3.985  17.971  0.00  0.00    +0.000 C 
ATOM     27  C   UNL     1       2.407   2.825  17.467  0.00  0.00    +0.000 C 
ATOM     28  C   UNL     1       1.719   2.099  18.613  0.00  0.00    +0.000 C 
ATOM     29  C   UNL     1       0.975   3.093  19.495  0.00  0.00    +0.000 C 
ATOM     30  C   UNL     1       1.888   4.241  19.937  0.00  0.00    +0.000 C 
ENDBRANCH  24  25
ENDBRANCH  23  24
ENDBRANCH  20  23
ENDBRANCH   1  21
TORSDOF 4
ENDMDL
MODEL 7
REMARK VINA RESULT:      -8.0      6.105      9.612
REMARK  Name = 
REMARK  4 active torsions:
REMARK  status: ('A' for Active; 'I' for Inactive)
REMARK    1  A    between atoms: C_2  and  C_3
REMARK    2  A    between atoms: C_3  and  C_4
REMARK    3  A    between atoms: C_4  and  N_5
REMARK    4  A    between atoms: N_11  and  C_12
REMARK                            x       y       z     vdW  Elec       q    Type
REMARK                         _______ _______ _______ _____ _____    ______ ____
ROOT
ATOM      1  C   UNL     1       0.545   9.989  20.119  0.00  0.00    +0.000 A 
ATOM      2  C   UNL     1       0.824  10.460  21.405  0.00  0.00    +0.000 A 
ATOM      3  C   UNL     1      -0.068  11.304  22.066  0.00  0.00    +0.000 A 
ATOM      4  C   UNL     1      -1.253  11.693  21.447  0.00  0.00    +0.000 A 
ATOM      5  C   UNL     1      -1.559  11.280  20.139  0.00  0.00    +0.000 A 
ATOM      6  C   UNL     1      -0.638  10.437  19.475  0.00  0.00    +0.000 A 
ATOM      7  C   UNL     1      -0.957  10.018  18.075  0.00  0.00    +0.000 C 
ATOM      8  O   UNL     1      -0.184   9.308  17.437  0.00  0.00    +0.000 OA
ATOM      9  C   UNL     1      -2.221  10.475  17.447  0.00  0.00    +0.000 A 
ATOM     10  C   UNL     1      -2.534  10.083  16.142  0.00  0.00    +0.000 A 
ATOM     11  C   UNL     1      -3.725  10.509  15.554  0.00  0.00    +0.000 A 
ATOM     12  C   UNL     1      -4.603  11.328  16.270  0.00  0.00    +0.000 A 
ATOM     13  C   UNL     1      -4.300  11.729  17.580  0.00  0.00    +0.000 A 
ATOM     14  C   UNL     1      -5.158  12.544  18.318  0.00  0.00    +0.000 A 
ATOM     15  C   UNL     1      -4.791  12.898  19.602  0.00  0.00    +0.000 A 
ATOM     16  N   UNL     1      -3.644  12.502  20.191  0.00  0.00    +0.000 NA
ATOM     17  C   UNL     1      -2.804  11.706  19.475  0.00  0.00    +0.000 A 
ATOM     18  C   UNL     1      -3.092  11.297  18.173  0.00  0.00    +0.000 A 
ENDROOT
BRANCH   1  21
ATOM     19  O   UNL     1       1.407   7.228  20.831  0.00  0.00    +0.000 OA
ATOM     20  C   UNL     1       1.832   7.841  19.854  0.00  0.00    +0.000 C 
ATOM     21  N   UNL     1       1.428   9.102  19.449  0.00  0.00    +0.000 N 
ATOM     22  H   UNL     1       1.671   9.385  18.496  0.00  0.00    +0.000 HD
BRANCH  20  23
ATOM     23  C   UNL     1       2.929   7.254  18.985  0.00  0.00    +0.000 C 
BRANCH  23  24
ATOM     24  C   UNL     1       2.375   6.254  17.963  0.00  0.00    +0.000 C 
BRANCH  24  25
ATOM     25  N   UNL     1       3.050   4.936  18.021  0.00  0.00    +0.000 NA
ATOM     26  C   UNL     1       3.722   4.712  19.314  0.00  0.00    +0.000 C 
ATOM     27  C   UNL     1       4.464   3.373  19.335  0.00  0.00    +0.000 C 
ATOM     28  C   UNL     1       3.533   2.212  19.016  0.00  0.00    +0.000 C 
ATOM     29  C   UNL     1       2.774   2.485  17.725  0.00  0.00    +0.000 C 
ATOM     30  C   UNL     1       2.083   3.853  17.761  0.00  0.00    +0.000 C 
ENDBRANCH  24  25
ENDBRANCH  23  24
ENDBRANCH  20  23
ENDBRANCH   1  21
TORSDOF 4
ENDMDL
MODEL 8
REMARK VINA RESULT:      -7.9      6.704     10.199
REMARK  Name = 
REMARK  4 active torsions:
REMARK  status: ('A' for Active; 'I' for Inactive)
REMARK    1  A    between atoms: C_2  and  C_3
REMARK    2  A    between atoms: C_3  and  C_4
REMARK    3  A    between atoms: C_4  and  N_5
REMARK    4  A    between atoms: N_11  and  C_12
REMARK                            x       y       z     vdW  Elec       q    Type
REMARK                         _______ _______ _______ _____ _____    ______ ____
ROOT
ATOM      1  C   UNL     1       0.622  11.254  19.470  0.00  0.00    +0.000 A 
ATOM      2  C   UNL     1       1.460  12.033  20.273  0.00  0.00    +0.000 A 
ATOM      3  C   UNL     1       0.945  13.076  21.043  0.00  0.00    +0.000 A 
ATOM      4  C   UNL     1      -0.418  13.357  21.017  0.00  0.00    +0.000 A 
ATOM      5  C   UNL     1      -1.295  12.630  20.195  0.00  0.00    +0.000 A 
ATOM      6  C   UNL     1      -0.757  11.585  19.408  0.00  0.00    +0.000 A 
ATOM      7  C   UNL     1      -1.690  10.828  18.517  0.00  0.00    +0.000 C 
ATOM      8  O   UNL     1      -1.277   9.927  17.791  0.00  0.00    +0.000 OA
ATOM      9  C   UNL     1      -3.131  11.177  18.506  0.00  0.00    +0.000 A 
ATOM     10  C   UNL     1      -4.015  10.471  17.684  0.00  0.00    +0.000 A 
ATOM     11  C   UNL     1      -5.372  10.797  17.678  0.00  0.00    +0.000 A 
ATOM     12  C   UNL     1      -5.845  11.829  18.493  0.00  0.00    +0.000 A 
ATOM     13  C   UNL     1      -4.969  12.545  19.321  0.00  0.00    +0.000 A 
ATOM     14  C   UNL     1      -5.413  13.579  20.146  0.00  0.00    +0.000 A 
ATOM     15  C   UNL     1      -4.491  14.240  20.933  0.00  0.00    +0.000 A 
ATOM     16  N   UNL     1      -3.174  13.946  20.955  0.00  0.00    +0.000 NA
ATOM     17  C   UNL     1      -2.736  12.939  20.153  0.00  0.00    +0.000 A 
ATOM     18  C   UNL     1      -3.595  12.215  19.325  0.00  0.00    +0.000 A 
ENDROOT
BRANCH   1  21
ATOM     19  O   UNL     1       1.456   8.525  20.326  0.00  0.00    +0.000 OA
ATOM     20  C   UNL     1       1.547   8.931  19.170  0.00  0.00    +0.000 C 
ATOM     21  N   UNL     1       1.128  10.168  18.708  0.00  0.00    +0.000 N 
ATOM     22  H   UNL     1       1.033  10.279  17.696  0.00  0.00    +0.000 HD
BRANCH  20  23
ATOM     23  C   UNL     1       2.206   8.082  18.097  0.00  0.00    +0.000 C 
BRANCH  23  24
ATOM     24  C   UNL     1       2.955   6.885  18.697  0.00  0.00    +0.000 C 
BRANCH  24  25
ATOM     25  N   UNL     1       2.140   5.648  18.722  0.00  0.00    +0.000 NA
ATOM     26  C   UNL     1       2.695   4.599  17.847  0.00  0.00    +0.000 C 
ATOM     27  C   UNL     1       1.809   3.351  17.837  0.00  0.00    +0.000 C 
ATOM     28  C   UNL     1       1.594   2.807  19.242  0.00  0.00    +0.000 C 
ATOM     29  C   UNL     1       1.104   3.913  20.167  0.00  0.00    +0.000 C 
ATOM     30  C   UNL     1       2.019   5.141  20.102  0.00  0.00    +0.000 C 
ENDBRANCH  24  25
ENDBRANCH  23  24
ENDBRANCH  20  23
ENDBRANCH   1  21
TORSDOF 4
ENDMDL
MODEL 9
REMARK VINA RESULT:      -7.9      6.224     10.013
REMARK  Name = 
REMARK  4 active torsions:
REMARK  status: ('A' for Active; 'I' for Inactive)
REMARK    1  A    between atoms: C_2  and  C_3
REMARK    2  A    between atoms: C_3  and  C_4
REMARK    3  A    between atoms: C_4  and  N_5
REMARK    4  A    between atoms: N_11  and  C_12
REMARK                            x       y       z     vdW  Elec       q    Type
REMARK                         _______ _______ _______ _____ _____    ______ ____
ROOT
ATOM      1  C   UNL     1       0.093  11.025  18.641  0.00  0.00    +0.000 A 
ATOM      2  C   UNL     1      -1.207  10.766  19.085  0.00  0.00    +0.000 A 
ATOM      3  C   UNL     1      -2.030  11.801  19.527  0.00  0.00    +0.000 A 
ATOM      4  C   UNL     1      -1.563  13.113  19.534  0.00  0.00    +0.000 A 
ATOM      5  C   UNL     1      -0.250  13.419  19.137  0.00  0.00    +0.000 A 
ATOM      6  C   UNL     1       0.579  12.357  18.706  0.00  0.00    +0.000 A 
ATOM      7  C   UNL     1       1.982  12.684  18.305  0.00  0.00    +0.000 C 
ATOM      8  O   UNL     1       2.758  11.801  17.947  0.00  0.00    +0.000 OA
ATOM      9  C   UNL     1       2.444  14.093  18.350  0.00  0.00    +0.000 A 
ATOM     10  C   UNL     1       3.752  14.412  17.969  0.00  0.00    +0.000 A 
ATOM     11  C   UNL     1       4.184  15.738  18.008  0.00  0.00    +0.000 A 
ATOM     12  C   UNL     1       3.310  16.744  18.426  0.00  0.00    +0.000 A 
ATOM     13  C   UNL     1       1.996  16.437  18.811  0.00  0.00    +0.000 A 
ATOM     14  C   UNL     1       1.102  17.422  19.232  0.00  0.00    +0.000 A 
ATOM     15  C   UNL     1      -0.175  17.043  19.597  0.00  0.00    +0.000 A 
ATOM     16  N   UNL     1      -0.616  15.768  19.572  0.00  0.00    +0.000 NA
ATOM     17  C   UNL     1       0.252  14.805  19.162  0.00  0.00    +0.000 A 
ATOM     18  C   UNL     1       1.561  15.094  18.773  0.00  0.00    +0.000 A 
ENDROOT
BRANCH   1  21
ATOM     19  O   UNL     1       1.309   8.710  20.068  0.00  0.00    +0.000 OA
ATOM     20  C   UNL     1       1.508   8.956  18.880  0.00  0.00    +0.000 C 
ATOM     21  N   UNL     1       0.930   9.985  18.156  0.00  0.00    +0.000 N 
ATOM     22  H   UNL     1       0.985   9.925  17.137  0.00  0.00    +0.000 HD
BRANCH  20  23
ATOM     23  C   UNL     1       2.495   8.133  18.072  0.00  0.00    +0.000 C 
BRANCH  23  24
ATOM     24  C   UNL     1       2.813   6.795  18.749  0.00  0.00    +0.000 C 
BRANCH  24  25
ATOM     25  N   UNL     1       3.896   6.047  18.069  0.00  0.00    +0.000 NA
ATOM     26  C   UNL     1       3.433   4.746  17.552  0.00  0.00    +0.000 C 
ATOM     27  C   UNL     1       4.578   3.960  16.907  0.00  0.00    +0.000 C 
ATOM     28  C   UNL     1       5.250   4.758  15.799  0.00  0.00    +0.000 C 
ATOM     29  C   UNL     1       5.648   6.136  16.310  0.00  0.00    +0.000 C 
ATOM     30  C   UNL     1       4.465   6.851  16.971  0.00  0.00    +0.000 C 
ENDBRANCH  24  25
ENDBRANCH  23  24
ENDBRANCH  20  23
ENDBRANCH   1  21
TORSDOF 4
ENDMDL
