MODEL 1
REMARK VINA RESULT:      -7.7      0.000      0.000
REMARK  Name = 
REMARK  5 active torsions:
REMARK  status: ('A' for Active; 'I' for Inactive)
REMARK    1  A    between atoms: C_2  and  C_3
REMARK    2  A    between atoms: C_9  and  C_11
REMARK    3  A    between atoms: C_11  and  N_12
REMARK    4  A    between atoms: C_11  and  C_13
REMARK    5  A    between atoms: C_19  and  O_20
REMARK                            x       y       z     vdW  Elec       q    Type
REMARK                         _______ _______ _______ _____ _____    ______ ____
ROOT
ATOM      1  C   UNL     1       3.688   5.927  18.900  0.00  0.00    +0.000 C 
ENDROOT
BRANCH   1   2
ATOM      2  C   UNL     1       3.030   4.560  19.138  0.00  0.00    +0.000 C 
ATOM      3  C   UNL     1       1.867   4.406  20.143  0.00  0.00    +0.000 C 
ATOM      4  C   UNL     1       1.477   2.892  20.249  0.00  0.00    +0.000 C 
ATOM      5  C   UNL     1       1.060   2.329  18.876  0.00  0.00    +0.000 C 
ATOM      6  C   UNL     1       2.186   2.539  17.853  0.00  0.00    +0.000 C 
ATOM      7  C   UNL     1       3.457   1.803  18.294  0.00  0.00    +0.000 C 
ATOM      8  C   UNL     1       3.842   2.218  19.721  0.00  0.00    +0.000 C 
ATOM      9  C   UNL     1       2.683   2.052  20.711  0.00  0.00    +0.000 C 
ATOM     10  C   UNL     1       4.200   3.687  19.699  0.00  0.00    +0.000 C 
ATOM     11  C   UNL     1       2.493   4.032  17.777  0.00  0.00    +0.000 C 
BRANCH   8  12
ATOM     12  O   UNL     1       4.965   1.474  20.164  0.00  0.00    +0.000 OA
ATOM     13  H   UNL     1       4.749   0.527  20.094  0.00  0.00    +0.000 HD
ENDBRANCH   8  12
ENDBRANCH   1   2
BRANCH   1  20
ATOM     14  C   UNL     1       6.062   4.852  17.656  0.00  0.00    +0.000 C 
ATOM     15  C   UNL     1       6.825   4.145  16.500  0.00  0.00    +0.000 C 
ATOM     16  C   UNL     1       6.787   5.122  15.352  0.00  0.00    +0.000 C 
ATOM     17  C   UNL     1       5.590   5.224  14.448  0.00  0.00    +0.000 C 
ATOM     18  C   UNL     1       5.688   6.116  15.645  0.00  0.00    +0.000 C 
ATOM     19  N   UNL     1       5.145   5.789  16.940  0.00  0.00    +0.000 N 
ATOM     20  C   UNL     1       4.022   6.421  17.486  0.00  0.00    +0.000 C 
ATOM     21  O   UNL     1       3.373   7.275  16.891  0.00  0.00    +0.000 OA
BRANCH  14  23
ATOM     22  N   UNL     1       7.911   6.308  19.139  0.00  0.00    +0.000 NA
ATOM     23  C   UNL     1       7.072   5.648  18.466  0.00  0.00    +0.000 C 
ENDBRANCH  14  23
ENDBRANCH   1  20
BRANCH   1  24
ATOM     24  N   UNL     1       3.245   7.051  19.720  0.00  0.00    +0.000 NA
ATOM     25  H   UNL     1       2.239   7.206  19.608  0.00  0.00    +0.000 HD
ATOM     26  H   UNL     1       3.389   6.887  20.713  0.00  0.00    +0.000 HD
ENDBRANCH   1  24
TORSDOF 5
ENDMDL
MODEL 2
REMARK VINA RESULT:      -7.1      1.033      1.458
REMARK  Name = 
REMARK  5 active torsions:
REMARK  status: ('A' for Active; 'I' for Inactive)
REMARK    1  A    between atoms: C_2  and  C_3
REMARK    2  A    between atoms: C_9  and  C_11
REMARK    3  A    between atoms: C_11  and  N_12
REMARK    4  A    between atoms: C_11  and  C_13
REMARK    5  A    between atoms: C_19  and  O_20
REMARK                            x       y       z     vdW  Elec       q    Type
REMARK                         _______ _______ _______ _____ _____    ______ ____
ROOT
ATOM      1  C   UNL     1       3.790   5.786  18.815  0.00  0.00    +0.000 C 
ENDROOT
BRANCH   1   2
ATOM      2  C   UNL     1       2.983   4.494  19.009  0.00  0.00    +0.000 C 
ATOM      3  C   UNL     1       1.612   4.306  18.321  0.00  0.00    +0.000 C 
ATOM      4  C   UNL     1       0.985   2.948  18.789  0.00  0.00    +0.000 C 
ATOM      5  C   UNL     1       1.910   1.763  18.447  0.00  0.00    +0.000 C 
ATOM      6  C   UNL     1       3.296   1.975  19.073  0.00  0.00    +0.000 C 
ATOM      7  C   UNL     1       3.189   2.060  20.600  0.00  0.00    +0.000 C 
ATOM      8  C   UNL     1       2.166   3.133  21.001  0.00  0.00    +0.000 C 
ATOM      9  C   UNL     1       0.809   2.931  20.319  0.00  0.00    +0.000 C 
ATOM     10  C   UNL     1       2.696   4.474  20.547  0.00  0.00    +0.000 C 
ATOM     11  C   UNL     1       3.861   3.294  18.553  0.00  0.00    +0.000 C 
BRANCH   8  12
ATOM     12  O   UNL     1       2.000   3.153  22.410  0.00  0.00    +0.000 OA
ATOM     13  H   UNL     1       1.677   4.036  22.665  0.00  0.00    +0.000 HD
ENDBRANCH   8  12
ENDBRANCH   1   2
BRANCH   1  20
ATOM     14  C   UNL     1       6.210   4.810  17.576  0.00  0.00    +0.000 C 
ATOM     15  C   UNL     1       7.007   4.150  16.415  0.00  0.00    +0.000 C 
ATOM     16  C   UNL     1       6.951   5.149  15.286  0.00  0.00    +0.000 C 
ATOM     17  C   UNL     1       5.762   5.233  14.371  0.00  0.00    +0.000 C 
ATOM     18  C   UNL     1       5.819   6.103  15.587  0.00  0.00    +0.000 C 
ATOM     19  N   UNL     1       5.272   5.733  16.870  0.00  0.00    +0.000 N 
ATOM     20  C   UNL     1       4.124   6.319  17.415  0.00  0.00    +0.000 C 
ATOM     21  O   UNL     1       3.456   7.165  16.830  0.00  0.00    +0.000 OA
BRANCH  14  23
ATOM     22  N   UNL     1       7.996   6.290  19.109  0.00  0.00    +0.000 NA
ATOM     23  C   UNL     1       7.186   5.618  18.414  0.00  0.00    +0.000 C 
ENDBRANCH  14  23
ENDBRANCH   1  20
BRANCH   1  24
ATOM     24  N   UNL     1       3.518   6.904  19.713  0.00  0.00    +0.000 NA
ATOM     25  H   UNL     1       3.927   7.769  19.348  0.00  0.00    +0.000 HD
ATOM     26  H   UNL     1       2.523   7.090  19.810  0.00  0.00    +0.000 HD
ENDBRANCH   1  24
TORSDOF 5
ENDMDL
MODEL 3
REMARK VINA RESULT:      -7.1      1.877      3.494
REMARK  Name = 
REMARK  5 active torsions:
REMARK  status: ('A' for Active; 'I' for Inactive)
REMARK    1  A    between atoms: C_2  and  C_3
REMARK    2  A    between atoms: C_9  and  C_11
REMARK    3  A    between atoms: C_11  and  N_12
REMARK    4  A    between atoms: C_11  and  C_13
REMARK    5  A    between atoms: C_19  and  O_20
REMARK                            x       y       z     vdW  Elec       q    Type
REMARK                         _______ _______ _______ _____ _____    ______ ____
ROOT
ATOM      1  C   UNL     1       4.193   3.495  18.022  0.00  0.00    +0.000 C 
ENDROOT
BRANCH   1   2
ATOM      2  C   UNL     1       3.033   3.500  19.029  0.00  0.00    +0.000 C 
ATOM      3  C   UNL     1       1.617   3.049  18.608  0.00  0.00    +0.000 C 
ATOM      4  C   UNL     1       0.631   3.264  19.807  0.00  0.00    +0.000 C 
ATOM      5  C   UNL     1       1.086   2.470  21.048  0.00  0.00    +0.000 C 
ATOM      6  C   UNL     1       2.519   2.866  21.434  0.00  0.00    +0.000 C 
ATOM      7  C   UNL     1       2.591   4.358  21.780  0.00  0.00    +0.000 C 
ATOM      8  C   UNL     1       2.013   5.197  20.632  0.00  0.00    +0.000 C 
ATOM      9  C   UNL     1       0.605   4.745  20.229  0.00  0.00    +0.000 C 
ATOM     10  C   UNL     1       2.902   5.008  19.424  0.00  0.00    +0.000 C 
ATOM     11  C   UNL     1       3.428   2.602  20.237  0.00  0.00    +0.000 C 
BRANCH   8  12
ATOM     12  O   UNL     1       1.997   6.570  20.986  0.00  0.00    +0.000 OA
ATOM     13  H   UNL     1       1.108   6.921  20.800  0.00  0.00    +0.000 HD
ENDBRANCH   8  12
ENDBRANCH   1   2
BRANCH   1  20
ATOM     14  C   UNL     1       5.149   5.478  16.154  0.00  0.00    +0.000 C 
ATOM     15  C   UNL     1       5.677   6.893  15.779  0.00  0.00    +0.000 C 
ATOM     16  C   UNL     1       7.040   6.982  16.419  0.00  0.00    +0.000 C 
ATOM     17  C   UNL     1       7.204   7.348  17.867  0.00  0.00    +0.000 C 
ATOM     18  C   UNL     1       7.112   5.907  17.476  0.00  0.00    +0.000 C 
ATOM     19  N   UNL     1       5.876   5.164  17.421  0.00  0.00    +0.000 N 
ATOM     20  C   UNL     1       5.534   4.168  18.342  0.00  0.00    +0.000 C 
ATOM     21  O   UNL     1       6.235   3.871  19.304  0.00  0.00    +0.000 OA
BRANCH  14  23
ATOM     22  N   UNL     1       5.943   3.710  14.160  0.00  0.00    +0.000 NA
ATOM     23  C   UNL     1       5.583   4.512  15.064  0.00  0.00    +0.000 C 
ENDBRANCH  14  23
ENDBRANCH   1  20
BRANCH   1  24
ATOM     24  N   UNL     1       4.427   2.274  17.256  0.00  0.00    +0.000 NA
ATOM     25  H   UNL     1       5.160   1.708  17.692  0.00  0.00    +0.000 HD
ATOM     26  H   UNL     1       3.605   1.677  17.218  0.00  0.00    +0.000 HD
ENDBRANCH   1  24
TORSDOF 5
ENDMDL
MODEL 4
REMARK VINA RESULT:      -7.0      1.244      2.098
REMARK  Name = 
REMARK  5 active torsions:
REMARK  status: ('A' for Active; 'I' for Inactive)
REMARK    1  A    between atoms: C_2  and  C_3
REMARK    2  A    between atoms: C_9  and  C_11
REMARK    3  A    between atoms: C_11  and  N_12
REMARK    4  A    between atoms: C_11  and  C_13
REMARK    5  A    between atoms: C_19  and  O_20
REMARK                            x       y       z     vdW  Elec       q    Type
REMARK                         _______ _______ _______ _____ _____    ______ ____
ROOT
ATOM      1  C   UNL     1       3.874   5.943  19.032  0.00  0.00    +0.000 C 
ENDROOT
BRANCH   1   2
ATOM      2  C   UNL     1       3.366   4.583  19.534  0.00  0.00    +0.000 C 
ATOM      3  C   UNL     1       4.333   3.389  19.699  0.00  0.00    +0.000 C 
ATOM      4  C   UNL     1       3.515   2.121  20.121  0.00  0.00    +0.000 C 
ATOM      5  C   UNL     1       2.754   2.364  21.440  0.00  0.00    +0.000 C 
ATOM      6  C   UNL     1       1.840   3.591  21.304  0.00  0.00    +0.000 C 
ATOM      7  C   UNL     1       0.801   3.368  20.199  0.00  0.00    +0.000 C 
ATOM      8  C   UNL     1       1.498   2.978  18.888  0.00  0.00    +0.000 C 
ATOM      9  C   UNL     1       2.447   1.787  19.062  0.00  0.00    +0.000 C 
ATOM     10  C   UNL     1       2.337   4.152  18.438  0.00  0.00    +0.000 C 
ATOM     11  C   UNL     1       2.701   4.792  20.925  0.00  0.00    +0.000 C 
BRANCH   8  12
ATOM     12  O   UNL     1       0.536   2.685  17.887  0.00  0.00    +0.000 OA
ATOM     13  H   UNL     1       0.762   1.825  17.491  0.00  0.00    +0.000 HD
ENDBRANCH   8  12
ENDBRANCH   1   2
BRANCH   1  20
ATOM     14  C   UNL     1       6.266   4.991  17.723  0.00  0.00    +0.000 C 
ATOM     15  C   UNL     1       7.024   4.209  16.612  0.00  0.00    +0.000 C 
ATOM     16  C   UNL     1       6.753   4.976  15.342  0.00  0.00    +0.000 C 
ATOM     17  C   UNL     1       5.485   4.778  14.561  0.00  0.00    +0.000 C 
ATOM     18  C   UNL     1       5.553   5.856  15.596  0.00  0.00    +0.000 C 
ATOM     19  N   UNL     1       5.169   5.677  16.975  0.00  0.00    +0.000 N 
ATOM     20  C   UNL     1       4.017   6.240  17.533  0.00  0.00    +0.000 C 
ATOM     21  O   UNL     1       3.208   6.898  16.888  0.00  0.00    +0.000 OA
BRANCH  14  23
ATOM     22  N   UNL     1       8.006   6.889  18.774  0.00  0.00    +0.000 NA
ATOM     23  C   UNL     1       7.217   6.028  18.298  0.00  0.00    +0.000 C 
ENDBRANCH  14  23
ENDBRANCH   1  20
BRANCH   1  24
ATOM     24  N   UNL     1       3.419   7.142  19.729  0.00  0.00    +0.000 NA
ATOM     25  H   UNL     1       2.411   7.097  19.905  0.00  0.00    +0.000 HD
ATOM     26  H   UNL     1       3.853   7.248  20.641  0.00  0.00    +0.000 HD
ENDBRANCH   1  24
TORSDOF 5
ENDMDL
MODEL 5
REMARK VINA RESULT:      -6.7      2.063      5.842
REMARK  Name = 
REMARK  5 active torsions:
REMARK  status: ('A' for Active; 'I' for Inactive)
REMARK    1  A    between atoms: C_2  and  C_3
REMARK    2  A    between atoms: C_9  and  C_11
REMARK    3  A    between atoms: C_11  and  N_12
REMARK    4  A    between atoms: C_11  and  C_13
REMARK    5  A    between atoms: C_19  and  O_20
REMARK                            x       y       z     vdW  Elec       q    Type
REMARK                         _______ _______ _______ _____ _____    ______ ____
ROOT
ATOM      1  C   UNL     1       3.968   3.059  17.723  0.00  0.00    +0.000 C 
ENDROOT
BRANCH   1   2
ATOM      2  C   UNL     1       4.786   4.253  17.208  0.00  0.00    +0.000 C 
ATOM      3  C   UNL     1       4.106   5.608  16.910  0.00  0.00    +0.000 C 
ATOM      4  C   UNL     1       5.165   6.590  16.303  0.00  0.00    +0.000 C 
ATOM      5  C   UNL     1       6.347   6.799  17.270  0.00  0.00    +0.000 C 
ATOM      6  C   UNL     1       6.987   5.449  17.624  0.00  0.00    +0.000 C 
ATOM      7  C   UNL     1       7.529   4.764  16.364  0.00  0.00    +0.000 C 
ATOM      8  C   UNL     1       6.425   4.658  15.302  0.00  0.00    +0.000 C 
ATOM      9  C   UNL     1       5.765   6.010  15.008  0.00  0.00    +0.000 C 
ATOM     10  C   UNL     1       5.347   3.744  15.839  0.00  0.00    +0.000 C 
ATOM     11  C   UNL     1       5.913   4.555  18.237  0.00  0.00    +0.000 C 
BRANCH   8  12
ATOM     12  O   UNL     1       6.946   4.105  14.104  0.00  0.00    +0.000 OA
ATOM     13  H   UNL     1       6.406   3.330  13.867  0.00  0.00    +0.000 HD
ENDBRANCH   8  12
ENDBRANCH   1   2
BRANCH   1  20
ATOM     14  C   UNL     1       1.849   4.057  19.412  0.00  0.00    +0.000 C 
ATOM     15  C   UNL     1       0.684   3.882  20.429  0.00  0.00    +0.000 C 
ATOM     16  C   UNL     1       1.345   3.417  21.702  0.00  0.00    +0.000 C 
ATOM     17  C   UNL     1       1.700   1.973  21.920  0.00  0.00    +0.000 C 
ATOM     18  C   UNL     1       2.716   2.902  21.335  0.00  0.00    +0.000 C 
ATOM     19  N   UNL     1       2.892   3.115  19.918  0.00  0.00    +0.000 N 
ATOM     20  C   UNL     1       3.997   2.645  19.201  0.00  0.00    +0.000 C 
ATOM     21  O   UNL     1       4.890   1.970  19.703  0.00  0.00    +0.000 OA
BRANCH  14  23
ATOM     22  N   UNL     1       2.775   6.671  19.609  0.00  0.00    +0.000 NA
ATOM     23  C   UNL     1       2.355   5.485  19.520  0.00  0.00    +0.000 C 
ENDBRANCH  14  23
ENDBRANCH   1  20
BRANCH   1  24
ATOM     24  N   UNL     1       2.623   2.869  17.187  0.00  0.00    +0.000 NA
ATOM     25  H   UNL     1       1.929   3.333  17.780  0.00  0.00    +0.000 HD
ATOM     26  H   UNL     1       2.514   3.278  16.263  0.00  0.00    +0.000 HD
ENDBRANCH   1  24
TORSDOF 5
ENDMDL
MODEL 6
REMARK VINA RESULT:      -6.6      3.381      5.202
REMARK  Name = 
REMARK  5 active torsions:
REMARK  status: ('A' for Active; 'I' for Inactive)
REMARK    1  A    between atoms: C_2  and  C_3
REMARK    2  A    between atoms: C_9  and  C_11
REMARK    3  A    between atoms: C_11  and  N_12
REMARK    4  A    between atoms: C_11  and  C_13
REMARK    5  A    between atoms: C_19  and  O_20
REMARK                            x       y       z     vdW  Elec       q    Type
REMARK                         _______ _______ _______ _____ _____    ______ ____
ROOT
ATOM      1  C   UNL     1       2.208   6.926  19.120  0.00  0.00    +0.000 C 
ENDROOT
BRANCH   1   2
ATOM      2  C   UNL     1       2.141   5.394  19.212  0.00  0.00    +0.000 C 
ATOM      3  C   UNL     1       1.295   4.703  20.305  0.00  0.00    +0.000 C 
ATOM      4  C   UNL     1       1.507   3.153  20.214  0.00  0.00    +0.000 C 
ATOM      5  C   UNL     1       1.105   2.619  18.825  0.00  0.00    +0.000 C 
ATOM      6  C   UNL     1       1.895   3.348  17.728  0.00  0.00    +0.000 C 
ATOM      7  C   UNL     1       3.400   3.114  17.903  0.00  0.00    +0.000 C 
ATOM      8  C   UNL     1       3.834   3.494  19.325  0.00  0.00    +0.000 C 
ATOM      9  C   UNL     1       2.993   2.796  20.400  0.00  0.00    +0.000 C 
ATOM     10  C   UNL     1       3.624   4.982  19.494  0.00  0.00    +0.000 C 
ATOM     11  C   UNL     1       1.620   4.844  17.854  0.00  0.00    +0.000 C 
BRANCH   8  12
ATOM     12  O   UNL     1       5.208   3.196  19.517  0.00  0.00    +0.000 OA
ATOM     13  H   UNL     1       5.270   2.355  20.005  0.00  0.00    +0.000 HD
ENDBRANCH   8  12
ENDBRANCH   1   2
BRANCH   1  20
ATOM     14  C   UNL     1       0.691   9.323  18.585  0.00  0.00    +0.000 C 
ATOM     15  C   UNL     1      -0.513  10.284  18.808  0.00  0.00    +0.000 C 
ATOM     16  C   UNL     1      -0.319  10.836  20.198  0.00  0.00    +0.000 C 
ATOM     17  C   UNL     1      -0.756  10.070  21.415  0.00  0.00    +0.000 C 
ATOM     18  C   UNL     1       0.646   9.921  20.914  0.00  0.00    +0.000 C 
ATOM     19  N   UNL     1       1.063   8.911  19.972  0.00  0.00    +0.000 N 
ATOM     20  C   UNL     1       1.861   7.816  20.321  0.00  0.00    +0.000 C 
ATOM     21  O   UNL     1       2.237   7.594  21.466  0.00  0.00    +0.000 OA
BRANCH  14  23
ATOM     22  N   UNL     1       2.766  10.794  17.460  0.00  0.00    +0.000 NA
ATOM     23  C   UNL     1       1.824  10.127  17.971  0.00  0.00    +0.000 C 
ENDBRANCH  14  23
ENDBRANCH   1  20
BRANCH   1  24
ATOM     24  N   UNL     1       3.315   7.517  18.374  0.00  0.00    +0.000 NA
ATOM     25  H   UNL     1       3.073   8.460  18.055  0.00  0.00    +0.000 HD
ATOM     26  H   UNL     1       4.151   7.625  18.941  0.00  0.00    +0.000 HD
ENDBRANCH   1  24
TORSDOF 5
ENDMDL
MODEL 7
REMARK VINA RESULT:      -6.5      2.042      5.339
REMARK  Name = 
REMARK  5 active torsions:
REMARK  status: ('A' for Active; 'I' for Inactive)
REMARK    1  A    between atoms: C_2  and  C_3
REMARK    2  A    between atoms: C_9  and  C_11
REMARK    3  A    between atoms: C_11  and  N_12
REMARK    4  A    between atoms: C_11  and  C_13
REMARK    5  A    between atoms: C_19  and  O_20
REMARK                            x       y       z     vdW  Elec       q    Type
REMARK                         _______ _______ _______ _____ _____    ______ ____
ROOT
ATOM      1  C   UNL     1       3.718   5.788  18.637  0.00  0.00    +0.000 C 
ENDROOT
BRANCH   1   2
ATOM      2  C   UNL     1       5.104   5.611  17.999  0.00  0.00    +0.000 C 
ATOM      3  C   UNL     1       5.408   4.399  17.089  0.00  0.00    +0.000 C 
ATOM      4  C   UNL     1       6.919   4.432  16.678  0.00  0.00    +0.000 C 
ATOM      5  C   UNL     1       7.264   5.741  15.938  0.00  0.00    +0.000 C 
ATOM      6  C   UNL     1       6.903   6.952  16.811  0.00  0.00    +0.000 C 
ATOM      7  C   UNL     1       7.701   6.929  18.120  0.00  0.00    +0.000 C 
ATOM      8  C   UNL     1       7.510   5.584  18.833  0.00  0.00    +0.000 C 
ATOM      9  C   UNL     1       7.823   4.390  17.924  0.00  0.00    +0.000 C 
ATOM     10  C   UNL     1       6.056   5.470  19.232  0.00  0.00    +0.000 C 
ATOM     11  C   UNL     1       5.417   6.875  17.148  0.00  0.00    +0.000 C 
BRANCH   8  12
ATOM     12  O   UNL     1       8.316   5.526  19.999  0.00  0.00    +0.000 OA
ATOM     13  H   UNL     1       8.861   4.721  19.952  0.00  0.00    +0.000 HD
ENDBRANCH   8  12
ENDBRANCH   1   2
BRANCH   1  20
ATOM     14  C   UNL     1       3.042   3.682  20.494  0.00  0.00    +0.000 C 
ATOM     15  C   UNL     1       2.053   2.896  21.401  0.00  0.00    +0.000 C 
ATOM     16  C   UNL     1       1.096   2.226  20.447  0.00  0.00    +0.000 C 
ATOM     17  C   UNL     1      -0.081   2.963  19.871  0.00  0.00    +0.000 C 
ATOM     18  C   UNL     1       1.213   2.938  19.120  0.00  0.00    +0.000 C 
ATOM     19  N   UNL     1       2.244   3.938  19.256  0.00  0.00    +0.000 N 
ATOM     20  C   UNL     1       2.542   4.877  18.263  0.00  0.00    +0.000 C 
ATOM     21  O   UNL     1       1.921   4.962  17.209  0.00  0.00    +0.000 OA
BRANCH  14  23
ATOM     22  N   UNL     1       5.177   2.004  19.896  0.00  0.00    +0.000 NA
ATOM     23  C   UNL     1       4.208   2.765  20.167  0.00  0.00    +0.000 C 
ENDBRANCH  14  23
ENDBRANCH   1  20
BRANCH   1  24
ATOM     24  N   UNL     1       3.658   6.109  20.060  0.00  0.00    +0.000 NA
ATOM     25  H   UNL     1       3.459   5.269  20.612  0.00  0.00    +0.000 HD
ATOM     26  H   UNL     1       4.540   6.469  20.414  0.00  0.00    +0.000 HD
ENDBRANCH   1  24
TORSDOF 5
ENDMDL
MODEL 8
REMARK VINA RESULT:      -6.5      1.955      3.084
REMARK  Name = 
REMARK  5 active torsions:
REMARK  status: ('A' for Active; 'I' for Inactive)
REMARK    1  A    between atoms: C_2  and  C_3
REMARK    2  A    between atoms: C_9  and  C_11
REMARK    3  A    between atoms: C_11  and  N_12
REMARK    4  A    between atoms: C_11  and  C_13
REMARK    5  A    between atoms: C_19  and  O_20
REMARK                            x       y       z     vdW  Elec       q    Type
REMARK                         _______ _______ _______ _____ _____    ______ ____
ROOT
ATOM      1  C   UNL     1       4.364   3.741  18.067  0.00  0.00    +0.000 C 
ENDROOT
BRANCH   1   2
ATOM      2  C   UNL     1       3.235   3.955  19.086  0.00  0.00    +0.000 C 
ATOM      3  C   UNL     1       3.007   5.337  19.737  0.00  0.00    +0.000 C 
ATOM      4  C   UNL     1       1.865   5.220  20.803  0.00  0.00    +0.000 C 
ATOM      5  C   UNL     1       0.555   4.722  20.160  0.00  0.00    +0.000 C 
ATOM      6  C   UNL     1       0.789   3.379  19.453  0.00  0.00    +0.000 C 
ATOM      7  C   UNL     1       1.252   2.317  20.457  0.00  0.00    +0.000 C 
ATOM      8  C   UNL     1       2.476   2.820  21.236  0.00  0.00    +0.000 C 
ATOM      9  C   UNL     1       2.235   4.188  21.884  0.00  0.00    +0.000 C 
ATOM     10  C   UNL     1       3.614   2.988  20.256  0.00  0.00    +0.000 C 
ATOM     11  C   UNL     1       1.887   3.570  18.411  0.00  0.00    +0.000 C 
BRANCH   8  12
ATOM     12  O   UNL     1       2.852   1.876  22.226  0.00  0.00    +0.000 OA
ATOM     13  H   UNL     1       2.077   1.320  22.425  0.00  0.00    +0.000 HD
ENDBRANCH   8  12
ENDBRANCH   1   2
BRANCH   1  20
ATOM     14  C   UNL     1       5.256   5.804  16.253  0.00  0.00    +0.000 C 
ATOM     15  C   UNL     1       5.832   7.212  15.926  0.00  0.00    +0.000 C 
ATOM     16  C   UNL     1       7.253   7.179  16.430  0.00  0.00    +0.000 C 
ATOM     17  C   UNL     1       7.578   7.426  17.876  0.00  0.00    +0.000 C 
ATOM     18  C   UNL     1       7.360   6.025  17.398  0.00  0.00    +0.000 C 
ATOM     19  N   UNL     1       6.081   5.357  17.416  0.00  0.00    +0.000 N 
ATOM     20  C   UNL     1       5.769   4.315  18.296  0.00  0.00    +0.000 C 
ATOM     21  O   UNL     1       6.539   3.909  19.160  0.00  0.00    +0.000 OA
BRANCH  14  23
ATOM     22  N   UNL     1       5.745   4.150  14.072  0.00  0.00    +0.000 NA
ATOM     23  C   UNL     1       5.524   4.900  15.061  0.00  0.00    +0.000 C 
ENDBRANCH  14  23
ENDBRANCH   1  20
BRANCH   1  24
ATOM     24  N   UNL     1       4.467   2.434  17.424  0.00  0.00    +0.000 NA
ATOM     25  H   UNL     1       4.976   1.776  18.021  0.00  0.00    +0.000 HD
ATOM     26  H   UNL     1       3.558   2.010  17.261  0.00  0.00    +0.000 HD
ENDBRANCH   1  24
TORSDOF 5
ENDMDL
MODEL 9
REMARK VINA RESULT:      -6.4      2.260      5.708
REMARK  Name = 
REMARK  5 active torsions:
REMARK  status: ('A' for Active; 'I' for Inactive)
REMARK    1  A    between atoms: C_2  and  C_3
REMARK    2  A    between atoms: C_9  and  C_11
REMARK    3  A    between atoms: C_11  and  N_12
REMARK    4  A    between atoms: C_11  and  C_13
REMARK    5  A    between atoms: C_19  and  O_20
REMARK                            x       y       z     vdW  Elec       q    Type
REMARK                         _______ _______ _______ _____ _____    ______ ____
ROOT
ATOM      1  C   UNL     1       3.710   6.335  18.255  0.00  0.00    +0.000 C 
ENDROOT
BRANCH   1   2
ATOM      2  C   UNL     1       5.207   6.010  18.142  0.00  0.00    +0.000 C 
ATOM      3  C   UNL     1       5.975   5.395  19.334  0.00  0.00    +0.000 C 
ATOM      4  C   UNL     1       7.492   5.277  18.960  0.00  0.00    +0.000 C 
ATOM      5  C   UNL     1       7.688   4.404  17.704  0.00  0.00    +0.000 C 
ATOM      6  C   UNL     1       6.874   4.973  16.532  0.00  0.00    +0.000 C 
ATOM      7  C   UNL     1       7.340   6.393  16.193  0.00  0.00    +0.000 C 
ATOM      8  C   UNL     1       7.304   7.277  17.447  0.00  0.00    +0.000 C 
ATOM      9  C   UNL     1       8.076   6.661  18.619  0.00  0.00    +0.000 C 
ATOM     10  C   UNL     1       5.863   7.407  17.885  0.00  0.00    +0.000 C 
ATOM     11  C   UNL     1       5.407   5.031  16.950  0.00  0.00    +0.000 C 
BRANCH   8  12
ATOM     12  O   UNL     1       7.818   8.567  17.156  0.00  0.00    +0.000 OA
ATOM     13  H   UNL     1       7.214   8.999  16.526  0.00  0.00    +0.000 HD
ENDBRANCH   8  12
ENDBRANCH   1   2
BRANCH   1  20
ATOM     14  C   UNL     1       2.559   3.714  18.639  0.00  0.00    +0.000 C 
ATOM     15  C   UNL     1       2.328   2.403  19.444  0.00  0.00    +0.000 C 
ATOM     16  C   UNL     1       1.528   2.823  20.652  0.00  0.00    +0.000 C 
ATOM     17  C   UNL     1       2.191   3.406  21.868  0.00  0.00    +0.000 C 
ATOM     18  C   UNL     1       1.682   4.318  20.796  0.00  0.00    +0.000 C 
ATOM     19  N   UNL     1       2.479   4.779  19.685  0.00  0.00    +0.000 N 
ATOM     20  C   UNL     1       2.933   6.095  19.556  0.00  0.00    +0.000 C 
ATOM     21  O   UNL     1       2.734   6.962  20.401  0.00  0.00    +0.000 OA
BRANCH  14  23
ATOM     22  N   UNL     1       0.450   4.005  16.850  0.00  0.00    +0.000 NA
ATOM     23  C   UNL     1       1.406   3.873  17.662  0.00  0.00    +0.000 C 
ENDBRANCH  14  23
ENDBRANCH   1  20
BRANCH   1  24
ATOM     24  N   UNL     1       3.224   7.552  17.611  0.00  0.00    +0.000 NA
ATOM     25  H   UNL     1       3.806   7.790  16.802  0.00  0.00    +0.000 HD
ATOM     26  H   UNL     1       2.280   7.449  17.250  0.00  0.00    +0.000 HD
ENDBRANCH   1  24
TORSDOF 5
ENDMDL
