MODEL 1
REMARK VINA RESULT:      -8.9      0.000      0.000
REMARK  Name = 
REMARK  5 active torsions:
REMARK  status: ('A' for Active; 'I' for Inactive)
REMARK    1  A    between atoms: C_1  and  C_2
REMARK    2  A    between atoms: C_2  and  N_3
REMARK    3  A    between atoms: C_5  and  C_6
REMARK    4  A    between atoms: N_8  and  N_9
REMARK    5  A    between atoms: C_26  and  C_27
REMARK                            x       y       z     vdW  Elec       q    Type
REMARK                         _______ _______ _______ _____ _____    ______ ____
ROOT
ATOM      1  C   UNL     1       1.821   6.442  20.384  0.00  0.00    +0.000 C 
ATOM      2  O   UNL     1       0.899   5.819  20.907  0.00  0.00    +0.000 OA
ATOM      3  N   UNL     1       2.244   7.712  20.753  0.00  0.00    +0.000 N 
ATOM      4  H   UNL     1       2.989   8.161  20.223  0.00  0.00    +0.000 HD
ENDROOT
BRANCH   3   5
ATOM      5  N   UNL     1       1.627   8.380  21.772  0.00  0.00    +0.000 NA
ATOM      6  C   UNL     1       0.671   9.222  21.497  0.00  0.00    +0.000 A 
ATOM      7  N   UNL     1       0.194   9.578  20.247  0.00  0.00    +0.000 N 
ATOM      8  C   UNL     1      -0.647  10.690  20.073  0.00  0.00    +0.000 A 
ATOM      9  C   UNL     1      -1.016  11.117  18.794  0.00  0.00    +0.000 A 
ATOM     10  C   UNL     1      -1.846  12.233  18.631  0.00  0.00    +0.000 A 
ATOM     11  C   UNL     1      -2.349  12.903  19.744  0.00  0.00    +0.000 A 
ATOM     12  C   UNL     1      -2.037  12.456  21.026  0.00  0.00    +0.000 A 
ATOM     13  C   UNL     1      -1.189  11.356  21.186  0.00  0.00    +0.000 A 
ATOM     14  N   UNL     1      -0.861  10.932  22.476  0.00  0.00    +0.000 N 
ATOM     15  C   UNL     1       0.026   9.912  22.743  0.00  0.00    +0.000 A 
ATOM     16  O   UNL     1       0.290   9.584  23.891  0.00  0.00    +0.000 OA
ATOM     17  H   UNL     1       0.719   9.295  19.434  0.00  0.00    +0.000 HD
ATOM     18  H   UNL     1      -1.252  11.389  23.289  0.00  0.00    +0.000 HD
ENDBRANCH   3   5
BRANCH   1  21
ATOM     19  N   UNL     1       3.465   3.839  18.174  0.00  0.00    +0.000 N 
ATOM     20  C   UNL     1       2.763   4.512  19.166  0.00  0.00    +0.000 A 
ATOM     21  C   UNL     1       2.601   5.844  19.254  0.00  0.00    +0.000 A 
ATOM     22  C   UNL     1       3.255   6.659  18.200  0.00  0.00    +0.000 A 
ATOM     23  O   UNL     1       3.133   7.883  18.174  0.00  0.00    +0.000 OA
ATOM     24  C   UNL     1       4.067   5.968  17.184  0.00  0.00    +0.000 A 
ATOM     25  C   UNL     1       4.785   6.717  16.254  0.00  0.00    +0.000 A 
ATOM     26  C   UNL     1       5.549   6.060  15.302  0.00  0.00    +0.000 A 
ATOM     27  C   UNL     1       5.553   4.670  15.304  0.00  0.00    +0.000 A 
ATOM     28  C   UNL     1       6.315   3.914  14.258  0.00  0.00    +0.000 C 
ATOM     29  N   UNL     1       4.865   3.934  16.215  0.00  0.00    +0.000 NA
ATOM     30  C   UNL     1       4.140   4.574  17.167  0.00  0.00    +0.000 A 
BRANCH  19  32
ATOM     31  C   UNL     1       2.551   1.640  18.839  0.00  0.00    +0.000 C 
ATOM     32  C   UNL     1       3.705   2.389  18.184  0.00  0.00    +0.000 C 
ENDBRANCH  19  32
ENDBRANCH   1  21
TORSDOF 3
ENDMDL
MODEL 2
REMARK VINA RESULT:      -8.6      2.644      9.115
REMARK  Name = 
REMARK  5 active torsions:
REMARK  status: ('A' for Active; 'I' for Inactive)
REMARK    1  A    between atoms: C_1  and  C_2
REMARK    2  A    between atoms: C_2  and  N_3
REMARK    3  A    between atoms: C_5  and  C_6
REMARK    4  A    between atoms: N_8  and  N_9
REMARK    5  A    between atoms: C_26  and  C_27
REMARK                            x       y       z     vdW  Elec       q    Type
REMARK                         _______ _______ _______ _____ _____    ______ ____
ROOT
ATOM      1  C   UNL     1       1.447   9.968  18.127  0.00  0.00    +0.000 C 
ATOM      2  O   UNL     1       2.334  10.814  18.035  0.00  0.00    +0.000 OA
ATOM      3  N   UNL     1       1.638   8.594  18.075  0.00  0.00    +0.000 N 
ATOM      4  H   UNL     1       0.829   7.977  18.114  0.00  0.00    +0.000 HD
ENDROOT
BRANCH   3   5
ATOM      5  N   UNL     1       2.890   8.073  17.909  0.00  0.00    +0.000 NA
ATOM      6  C   UNL     1       3.043   6.780  17.861  0.00  0.00    +0.000 A 
ATOM      7  N   UNL     1       2.064   5.810  17.999  0.00  0.00    +0.000 N 
ATOM      8  C   UNL     1       2.396   4.459  18.198  0.00  0.00    +0.000 A 
ATOM      9  C   UNL     1       1.405   3.509  18.466  0.00  0.00    +0.000 A 
ATOM     10  C   UNL     1       1.746   2.168  18.674  0.00  0.00    +0.000 A 
ATOM     11  C   UNL     1       3.073   1.757  18.573  0.00  0.00    +0.000 A 
ATOM     12  C   UNL     1       4.066   2.680  18.250  0.00  0.00    +0.000 A 
ATOM     13  C   UNL     1       3.725   4.023  18.067  0.00  0.00    +0.000 A 
ATOM     14  N   UNL     1       4.732   4.945  17.771  0.00  0.00    +0.000 N 
ATOM     15  C   UNL     1       4.516   6.301  17.649  0.00  0.00    +0.000 A 
ATOM     16  O   UNL     1       5.432   7.070  17.399  0.00  0.00    +0.000 OA
ATOM     17  H   UNL     1       1.153   6.090  18.325  0.00  0.00    +0.000 HD
ATOM     18  H   UNL     1       5.692   4.649  17.658  0.00  0.00    +0.000 HD
ENDBRANCH   3   5
BRANCH   1  21
ATOM     19  N   UNL     1      -2.279  10.290  17.513  0.00  0.00    +0.000 N 
ATOM     20  C   UNL     1      -0.927   9.974  17.450  0.00  0.00    +0.000 A 
ATOM     21  C   UNL     1       0.019  10.377  18.316  0.00  0.00    +0.000 A 
ATOM     22  C   UNL     1      -0.432  11.254  19.425  0.00  0.00    +0.000 A 
ATOM     23  O   UNL     1       0.352  11.644  20.289  0.00  0.00    +0.000 OA
ATOM     24  C   UNL     1      -1.848  11.661  19.464  0.00  0.00    +0.000 A 
ATOM     25  C   UNL     1      -2.272  12.576  20.426  0.00  0.00    +0.000 A 
ATOM     26  C   UNL     1      -3.605  12.956  20.455  0.00  0.00    +0.000 A 
ATOM     27  C   UNL     1      -4.473  12.390  19.528  0.00  0.00    +0.000 A 
ATOM     28  C   UNL     1      -5.934  12.722  19.559  0.00  0.00    +0.000 C 
ATOM     29  N   UNL     1      -4.063  11.507  18.582  0.00  0.00    +0.000 NA
ATOM     30  C   UNL     1      -2.753  11.156  18.530  0.00  0.00    +0.000 A 
BRANCH  19  32
ATOM     31  C   UNL     1      -3.042  10.715  15.199  0.00  0.00    +0.000 C 
ATOM     32  C   UNL     1      -3.254   9.915  16.479  0.00  0.00    +0.000 C 
ENDBRANCH  19  32
ENDBRANCH   1  21
TORSDOF 3
ENDMDL
MODEL 3
REMARK VINA RESULT:      -8.5      1.940      2.414
REMARK  Name = 
REMARK  5 active torsions:
REMARK  status: ('A' for Active; 'I' for Inactive)
REMARK    1  A    between atoms: C_1  and  C_2
REMARK    2  A    between atoms: C_2  and  N_3
REMARK    3  A    between atoms: C_5  and  C_6
REMARK    4  A    between atoms: N_8  and  N_9
REMARK    5  A    between atoms: C_26  and  C_27
REMARK                            x       y       z     vdW  Elec       q    Type
REMARK                         _______ _______ _______ _____ _____    ______ ____
ROOT
ATOM      1  C   UNL     1       1.502   8.252  20.270  0.00  0.00    +0.000 C 
ATOM      2  O   UNL     1       1.260   8.033  21.455  0.00  0.00    +0.000 OA
ATOM      3  N   UNL     1       1.100   9.377  19.562  0.00  0.00    +0.000 N 
ATOM      4  H   UNL     1       1.313   9.441  18.568  0.00  0.00    +0.000 HD
ENDROOT
BRANCH   3   5
ATOM      5  N   UNL     1       0.373  10.358  20.173  0.00  0.00    +0.000 NA
ATOM      6  C   UNL     1      -0.817  10.644  19.725  0.00  0.00    +0.000 A 
ATOM      7  N   UNL     1      -1.464  10.086  18.635  0.00  0.00    +0.000 N 
ATOM      8  C   UNL     1      -2.624  10.669  18.096  0.00  0.00    +0.000 A 
ATOM      9  C   UNL     1      -3.194  10.174  16.919  0.00  0.00    +0.000 A 
ATOM     10  C   UNL     1      -4.343  10.767  16.383  0.00  0.00    +0.000 A 
ATOM     11  C   UNL     1      -4.957  11.830  17.043  0.00  0.00    +0.000 A 
ATOM     12  C   UNL     1      -4.434  12.298  18.246  0.00  0.00    +0.000 A 
ATOM     13  C   UNL     1      -3.273  11.720  18.766  0.00  0.00    +0.000 A 
ATOM     14  N   UNL     1      -2.742  12.214  19.959  0.00  0.00    +0.000 N 
ATOM     15  C   UNL     1      -1.562  11.769  20.515  0.00  0.00    +0.000 A 
ATOM     16  O   UNL     1      -1.132  12.242  21.557  0.00  0.00    +0.000 OA
ATOM     17  H   UNL     1      -0.931   9.507  18.006  0.00  0.00    +0.000 HD
ATOM     18  H   UNL     1      -3.202  12.960  20.464  0.00  0.00    +0.000 HD
ENDBRANCH   3   5
BRANCH   1  21
ATOM     19  N   UNL     1       3.138   5.001  19.211  0.00  0.00    +0.000 N 
ATOM     20  C   UNL     1       2.428   5.999  19.868  0.00  0.00    +0.000 A 
ATOM     21  C   UNL     1       2.294   7.273  19.459  0.00  0.00    +0.000 A 
ATOM     22  C   UNL     1       2.990   7.638  18.200  0.00  0.00    +0.000 A 
ATOM     23  O   UNL     1       2.897   8.769  17.726  0.00  0.00    +0.000 OA
ATOM     24  C   UNL     1       3.809   6.613  17.531  0.00  0.00    +0.000 A 
ATOM     25  C   UNL     1       4.565   6.961  16.413  0.00  0.00    +0.000 A 
ATOM     26  C   UNL     1       5.336   5.992  15.790  0.00  0.00    +0.000 A 
ATOM     27  C   UNL     1       5.308   4.699  16.299  0.00  0.00    +0.000 A 
ATOM     28  C   UNL     1       6.077   3.604  15.624  0.00  0.00    +0.000 C 
ATOM     29  N   UNL     1       4.583   4.356  17.395  0.00  0.00    +0.000 NA
ATOM     30  C   UNL     1       3.852   5.309  18.026  0.00  0.00    +0.000 A 
BRANCH  19  32
ATOM     31  C   UNL     1       2.246   3.278  20.745  0.00  0.00    +0.000 C 
ATOM     32  C   UNL     1       3.345   3.652  19.757  0.00  0.00    +0.000 C 
ENDBRANCH  19  32
ENDBRANCH   1  21
TORSDOF 3
ENDMDL
MODEL 4
REMARK VINA RESULT:      -8.4      2.677      9.093
REMARK  Name = 
REMARK  5 active torsions:
REMARK  status: ('A' for Active; 'I' for Inactive)
REMARK    1  A    between atoms: C_1  and  C_2
REMARK    2  A    between atoms: C_2  and  N_3
REMARK    3  A    between atoms: C_5  and  C_6
REMARK    4  A    between atoms: N_8  and  N_9
REMARK    5  A    between atoms: C_26  and  C_27
REMARK                            x       y       z     vdW  Elec       q    Type
REMARK                         _______ _______ _______ _____ _____    ______ ____
ROOT
ATOM      1  C   UNL     1       1.371  10.230  18.258  0.00  0.00    +0.000 C 
ATOM      2  O   UNL     1       2.351  10.948  18.067  0.00  0.00    +0.000 OA
ATOM      3  N   UNL     1       1.364   8.844  18.180  0.00  0.00    +0.000 N 
ATOM      4  H   UNL     1       0.487   8.344  18.311  0.00  0.00    +0.000 HD
ENDROOT
BRANCH   3   5
ATOM      5  N   UNL     1       2.504   8.160  17.868  0.00  0.00    +0.000 NA
ATOM      6  C   UNL     1       2.653   6.938  18.297  0.00  0.00    +0.000 A 
ATOM      7  N   UNL     1       1.786   6.214  19.097  0.00  0.00    +0.000 N 
ATOM      8  C   UNL     1       2.186   5.014  19.710  0.00  0.00    +0.000 A 
ATOM      9  C   UNL     1       1.348   4.359  20.619  0.00  0.00    +0.000 A 
ATOM     10  C   UNL     1       1.759   3.170  21.232  0.00  0.00    +0.000 A 
ATOM     11  C   UNL     1       2.990   2.602  20.910  0.00  0.00    +0.000 A 
ATOM     12  C   UNL     1       3.811   3.212  19.964  0.00  0.00    +0.000 A 
ATOM     13  C   UNL     1       3.409   4.412  19.371  0.00  0.00    +0.000 A 
ATOM     14  N   UNL     1       4.253   5.028  18.444  0.00  0.00    +0.000 N 
ATOM     15  C   UNL     1       3.987   6.249  17.862  0.00  0.00    +0.000 A 
ATOM     16  O   UNL     1       4.763   6.754  17.064  0.00  0.00    +0.000 OA
ATOM     17  H   UNL     1       1.024   6.700  19.542  0.00  0.00    +0.000 HD
ATOM     18  H   UNL     1       5.130   4.604  18.176  0.00  0.00    +0.000 HD
ENDBRANCH   3   5
BRANCH   1  21
ATOM     19  N   UNL     1      -1.226  12.328  20.051  0.00  0.00    +0.000 N 
ATOM     20  C   UNL     1      -0.057  11.711  19.623  0.00  0.00    +0.000 A 
ATOM     21  C   UNL     1       0.045  10.827  18.614  0.00  0.00    +0.000 A 
ATOM     22  C   UNL     1      -1.216  10.474  17.916  0.00  0.00    +0.000 A 
ATOM     23  O   UNL     1      -1.219   9.704  16.957  0.00  0.00    +0.000 OA
ATOM     24  C   UNL     1      -2.475  11.062  18.406  0.00  0.00    +0.000 A 
ATOM     25  C   UNL     1      -3.685  10.657  17.844  0.00  0.00    +0.000 A 
ATOM     26  C   UNL     1      -4.866  11.212  18.312  0.00  0.00    +0.000 A 
ATOM     27  C   UNL     1      -4.792  12.170  19.317  0.00  0.00    +0.000 A 
ATOM     28  C   UNL     1      -6.036  12.842  19.814  0.00  0.00    +0.000 C 
ATOM     29  N   UNL     1      -3.618  12.559  19.877  0.00  0.00    +0.000 NA
ATOM     30  C   UNL     1      -2.462  11.996  19.443  0.00  0.00    +0.000 A 
BRANCH  19  32
ATOM     31  C   UNL     1      -0.924  12.454  22.503  0.00  0.00    +0.000 C 
ATOM     32  C   UNL     1      -1.302  13.203  21.230  0.00  0.00    +0.000 C 
ENDBRANCH  19  32
ENDBRANCH   1  21
TORSDOF 3
ENDMDL
MODEL 5
REMARK VINA RESULT:      -8.4      2.183      9.170
REMARK  Name = 
REMARK  5 active torsions:
REMARK  status: ('A' for Active; 'I' for Inactive)
REMARK    1  A    between atoms: C_1  and  C_2
REMARK    2  A    between atoms: C_2  and  N_3
REMARK    3  A    between atoms: C_5  and  C_6
REMARK    4  A    between atoms: N_8  and  N_9
REMARK    5  A    between atoms: C_26  and  C_27
REMARK                            x       y       z     vdW  Elec       q    Type
REMARK                         _______ _______ _______ _____ _____    ______ ____
ROOT
ATOM      1  C   UNL     1       1.643  10.016  18.333  0.00  0.00    +0.000 C 
ATOM      2  O   UNL     1       2.266  10.722  17.542  0.00  0.00    +0.000 OA
ATOM      3  N   UNL     1       1.952   8.702  18.654  0.00  0.00    +0.000 N 
ATOM      4  H   UNL     1       1.344   8.189  19.289  0.00  0.00    +0.000 HD
ENDROOT
BRANCH   3   5
ATOM      5  N   UNL     1       3.024   8.080  18.078  0.00  0.00    +0.000 NA
ATOM      6  C   UNL     1       3.007   6.786  17.929  0.00  0.00    +0.000 A 
ATOM      7  N   UNL     1       2.018   5.904  18.331  0.00  0.00    +0.000 N 
ATOM      8  C   UNL     1       2.241   4.516  18.358  0.00  0.00    +0.000 A 
ATOM      9  C   UNL     1       1.283   3.646  18.887  0.00  0.00    +0.000 A 
ATOM     10  C   UNL     1       1.519   2.267  18.921  0.00  0.00    +0.000 A 
ATOM     11  C   UNL     1       2.694   1.742  18.385  0.00  0.00    +0.000 A 
ATOM     12  C   UNL     1       3.633   2.590  17.803  0.00  0.00    +0.000 A 
ATOM     13  C   UNL     1       3.406   3.970  17.793  0.00  0.00    +0.000 A 
ATOM     14  N   UNL     1       4.367   4.813  17.232  0.00  0.00    +0.000 N 
ATOM     15  C   UNL     1       4.277   6.188  17.241  0.00  0.00    +0.000 A 
ATOM     16  O   UNL     1       5.150   6.885  16.745  0.00  0.00    +0.000 OA
ATOM     17  H   UNL     1       1.291   6.243  18.941  0.00  0.00    +0.000 HD
ATOM     18  H   UNL     1       5.204   4.438  16.807  0.00  0.00    +0.000 HD
ENDBRANCH   3   5
BRANCH   1  21
ATOM     19  N   UNL     1      -1.878  11.280  18.940  0.00  0.00    +0.000 N 
ATOM     20  C   UNL     1      -0.704  10.781  18.390  0.00  0.00    +0.000 A 
ATOM     21  C   UNL     1       0.444  10.553  19.052  0.00  0.00    +0.000 A 
ATOM     22  C   UNL     1       0.449  10.888  20.498  0.00  0.00    +0.000 A 
ATOM     23  O   UNL     1       1.439  10.681  21.197  0.00  0.00    +0.000 OA
ATOM     24  C   UNL     1      -0.764  11.489  21.081  0.00  0.00    +0.000 A 
ATOM     25  C   UNL     1      -0.746  11.920  22.406  0.00  0.00    +0.000 A 
ATOM     26  C   UNL     1      -1.890  12.486  22.948  0.00  0.00    +0.000 A 
ATOM     27  C   UNL     1      -3.020  12.586  22.145  0.00  0.00    +0.000 A 
ATOM     28  C   UNL     1      -4.298  13.135  22.703  0.00  0.00    +0.000 C 
ATOM     29  N   UNL     1      -3.040  12.179  20.850  0.00  0.00    +0.000 NA
ATOM     30  C   UNL     1      -1.913  11.652  20.306  0.00  0.00    +0.000 A 
BRANCH  19  32
ATOM     31  C   UNL     1      -3.553  10.417  17.337  0.00  0.00    +0.000 C 
ATOM     32  C   UNL     1      -3.072  11.614  18.150  0.00  0.00    +0.000 C 
ENDBRANCH  19  32
ENDBRANCH   1  21
TORSDOF 3
ENDMDL
MODEL 6
REMARK VINA RESULT:      -8.3      2.500      9.080
REMARK  Name = 
REMARK  5 active torsions:
REMARK  status: ('A' for Active; 'I' for Inactive)
REMARK    1  A    between atoms: C_1  and  C_2
REMARK    2  A    between atoms: C_2  and  N_3
REMARK    3  A    between atoms: C_5  and  C_6
REMARK    4  A    between atoms: N_8  and  N_9
REMARK    5  A    between atoms: C_26  and  C_27
REMARK                            x       y       z     vdW  Elec       q    Type
REMARK                         _______ _______ _______ _____ _____    ______ ____
ROOT
ATOM      1  C   UNL     1       1.483   9.808  18.182  0.00  0.00    +0.000 C 
ATOM      2  O   UNL     1       2.252  10.418  17.442  0.00  0.00    +0.000 OA
ATOM      3  N   UNL     1       1.672   8.515  18.649  0.00  0.00    +0.000 N 
ATOM      4  H   UNL     1       0.949   8.083  19.222  0.00  0.00    +0.000 HD
ENDROOT
BRANCH   3   5
ATOM      5  N   UNL     1       2.782   7.804  18.294  0.00  0.00    +0.000 NA
ATOM      6  C   UNL     1       2.903   6.568  18.687  0.00  0.00    +0.000 A 
ATOM      7  N   UNL     1       2.031   5.850  19.489  0.00  0.00    +0.000 N 
ATOM      8  C   UNL     1       2.406   4.622  20.063  0.00  0.00    +0.000 A 
ATOM      9  C   UNL     1       1.569   3.971  20.974  0.00  0.00    +0.000 A 
ATOM     10  C   UNL     1       1.956   2.755  21.547  0.00  0.00    +0.000 A 
ATOM     11  C   UNL     1       3.161   2.157  21.182  0.00  0.00    +0.000 A 
ATOM     12  C   UNL     1       3.980   2.765  20.233  0.00  0.00    +0.000 A 
ATOM     13  C   UNL     1       3.603   3.992  19.680  0.00  0.00    +0.000 A 
ATOM     14  N   UNL     1       4.444   4.606  18.749  0.00  0.00    +0.000 N 
ATOM     15  C   UNL     1       4.204   5.849  18.204  0.00  0.00    +0.000 A 
ATOM     16  O   UNL     1       4.977   6.350  17.401  0.00  0.00    +0.000 OA
ATOM     17  H   UNL     1       1.295   6.348  19.964  0.00  0.00    +0.000 HD
ATOM     18  H   UNL     1       5.301   4.161  18.450  0.00  0.00    +0.000 HD
ENDBRANCH   3   5
BRANCH   1  21
ATOM     19  N   UNL     1      -2.077  11.110  18.189  0.00  0.00    +0.000 N 
ATOM     20  C   UNL     1      -0.855  10.534  17.862  0.00  0.00    +0.000 A 
ATOM     21  C   UNL     1       0.220  10.452  18.665  0.00  0.00    +0.000 A 
ATOM     22  C   UNL     1       0.081  11.052  20.015  0.00  0.00    +0.000 A 
ATOM     23  O   UNL     1       0.996  10.995  20.836  0.00  0.00    +0.000 OA
ATOM     24  C   UNL     1      -1.181  11.733  20.353  0.00  0.00    +0.000 A 
ATOM     25  C   UNL     1      -1.295  12.405  21.569  0.00  0.00    +0.000 A 
ATOM     26  C   UNL     1      -2.485  13.045  21.878  0.00  0.00    +0.000 A 
ATOM     27  C   UNL     1      -3.529  12.975  20.963  0.00  0.00    +0.000 A 
ATOM     28  C   UNL     1      -4.854  13.600  21.278  0.00  0.00    +0.000 C 
ATOM     29  N   UNL     1      -3.420  12.333  19.772  0.00  0.00    +0.000 NA
ATOM     30  C   UNL     1      -2.247  11.730  19.451  0.00  0.00    +0.000 A 
BRANCH  19  32
ATOM     31  C   UNL     1      -2.753  10.919  15.817  0.00  0.00    +0.000 C 
ATOM     32  C   UNL     1      -3.185  11.272  17.237  0.00  0.00    +0.000 C 
ENDBRANCH  19  32
ENDBRANCH   1  21
TORSDOF 3
ENDMDL
MODEL 7
REMARK VINA RESULT:      -8.3      1.113      1.113
REMARK  Name = 
REMARK  5 active torsions:
REMARK  status: ('A' for Active; 'I' for Inactive)
REMARK    1  A    between atoms: C_1  and  C_2
REMARK    2  A    between atoms: C_2  and  N_3
REMARK    3  A    between atoms: C_5  and  C_6
REMARK    4  A    between atoms: N_8  and  N_9
REMARK    5  A    between atoms: C_26  and  C_27
REMARK                            x       y       z     vdW  Elec       q    Type
REMARK                         _______ _______ _______ _____ _____    ______ ____
ROOT
ATOM      1  C   UNL     1       1.753   6.744  20.538  0.00  0.00    +0.000 C 
ATOM      2  O   UNL     1       0.873   6.064  21.064  0.00  0.00    +0.000 OA
ATOM      3  N   UNL     1       2.010   8.080  20.815  0.00  0.00    +0.000 N 
ATOM      4  H   UNL     1       2.733   8.566  20.288  0.00  0.00    +0.000 HD
ENDROOT
BRANCH   3   5
ATOM      5  N   UNL     1       1.262   8.754  21.737  0.00  0.00    +0.000 NA
ATOM      6  C   UNL     1       0.658   9.854  21.388  0.00  0.00    +0.000 A 
ATOM      7  N   UNL     1       0.704  10.487  20.157  0.00  0.00    +0.000 N 
ATOM      8  C   UNL     1       0.233  11.801  19.991  0.00  0.00    +0.000 A 
ATOM      9  C   UNL     1       0.403  12.476  18.778  0.00  0.00    +0.000 A 
ATOM     10  C   UNL     1      -0.059  13.788  18.626  0.00  0.00    +0.000 A 
ATOM     11  C   UNL     1      -0.733  14.421  19.669  0.00  0.00    +0.000 A 
ATOM     12  C   UNL     1      -0.961  13.742  20.864  0.00  0.00    +0.000 A 
ATOM     13  C   UNL     1      -0.477  12.440  21.022  0.00  0.00    +0.000 A 
ATOM     14  N   UNL     1      -0.687  11.779  22.234  0.00  0.00    +0.000 N 
ATOM     15  C   UNL     1      -0.185  10.528  22.519  0.00  0.00    +0.000 A 
ATOM     16  O   UNL     1      -0.387   9.995  23.600  0.00  0.00    +0.000 OA
ATOM     17  H   UNL     1       1.387  10.178  19.483  0.00  0.00    +0.000 HD
ATOM     18  H   UNL     1      -1.208  12.217  22.982  0.00  0.00    +0.000 HD
ENDBRANCH   3   5
BRANCH   1  21
ATOM     19  N   UNL     1       4.028   4.259  18.803  0.00  0.00    +0.000 N 
ATOM     20  C   UNL     1       3.172   4.916  19.679  0.00  0.00    +0.000 A 
ATOM     21  C   UNL     1       2.663   6.149  19.508  0.00  0.00    +0.000 A 
ATOM     22  C   UNL     1       3.076   6.869  18.278  0.00  0.00    +0.000 A 
ATOM     23  O   UNL     1       2.634   7.987  18.016  0.00  0.00    +0.000 OA
ATOM     24  C   UNL     1       4.041   6.217  17.377  0.00  0.00    +0.000 A 
ATOM     25  C   UNL     1       4.534   6.919  16.277  0.00  0.00    +0.000 A 
ATOM     26  C   UNL     1       5.444   6.300  15.434  0.00  0.00    +0.000 A 
ATOM     27  C   UNL     1       5.817   4.990  15.713  0.00  0.00    +0.000 A 
ATOM     28  C   UNL     1       6.752   4.259  14.798  0.00  0.00    +0.000 C 
ATOM     29  N   UNL     1       5.350   4.306  16.789  0.00  0.00    +0.000 NA
ATOM     30  C   UNL     1       4.482   4.918  17.634  0.00  0.00    +0.000 A 
BRANCH  19  32
ATOM     31  C   UNL     1       3.960   2.261  20.260  0.00  0.00    +0.000 C 
ATOM     32  C   UNL     1       4.644   2.955  19.088  0.00  0.00    +0.000 C 
ENDBRANCH  19  32
ENDBRANCH   1  21
TORSDOF 3
ENDMDL
MODEL 8
REMARK VINA RESULT:      -8.2      2.143      8.653
REMARK  Name = 
REMARK  5 active torsions:
REMARK  status: ('A' for Active; 'I' for Inactive)
REMARK    1  A    between atoms: C_1  and  C_2
REMARK    2  A    between atoms: C_2  and  N_3
REMARK    3  A    between atoms: C_5  and  C_6
REMARK    4  A    between atoms: N_8  and  N_9
REMARK    5  A    between atoms: C_26  and  C_27
REMARK                            x       y       z     vdW  Elec       q    Type
REMARK                         _______ _______ _______ _____ _____    ______ ____
ROOT
ATOM      1  C   UNL     1       0.176   8.680  21.237  0.00  0.00    +0.000 C 
ATOM      2  O   UNL     1      -0.792   8.110  21.737  0.00  0.00    +0.000 OA
ATOM      3  N   UNL     1       1.326   8.056  20.774  0.00  0.00    +0.000 N 
ATOM      4  H   UNL     1       2.092   8.625  20.418  0.00  0.00    +0.000 HD
ENDROOT
BRANCH   3   5
ATOM      5  N   UNL     1       1.459   6.699  20.853  0.00  0.00    +0.000 NA
ATOM      6  C   UNL     1       2.304   6.093  20.069  0.00  0.00    +0.000 A 
ATOM      7  N   UNL     1       3.102   6.662  19.089  0.00  0.00    +0.000 N 
ATOM      8  C   UNL     1       3.764   5.871  18.134  0.00  0.00    +0.000 A 
ATOM      9  C   UNL     1       4.459   6.461  17.073  0.00  0.00    +0.000 A 
ATOM     10  C   UNL     1       5.106   5.665  16.121  0.00  0.00    +0.000 A 
ATOM     11  C   UNL     1       5.102   4.277  16.245  0.00  0.00    +0.000 A 
ATOM     12  C   UNL     1       4.462   3.677  17.327  0.00  0.00    +0.000 A 
ATOM     13  C   UNL     1       3.796   4.472  18.263  0.00  0.00    +0.000 A 
ATOM     14  N   UNL     1       3.135   3.859  19.329  0.00  0.00    +0.000 N 
ATOM     15  C   UNL     1       2.385   4.544  20.261  0.00  0.00    +0.000 A 
ATOM     16  O   UNL     1       1.815   3.960  21.171  0.00  0.00    +0.000 OA
ATOM     17  H   UNL     1       2.925   7.617  18.821  0.00  0.00    +0.000 HD
ATOM     18  H   UNL     1       3.159   2.855  19.448  0.00  0.00    +0.000 HD
ENDBRANCH   3   5
BRANCH   1  21
ATOM     19  N   UNL     1      -0.442  12.347  21.969  0.00  0.00    +0.000 N 
ATOM     20  C   UNL     1      -0.380  10.959  22.006  0.00  0.00    +0.000 A 
ATOM     21  C   UNL     1       0.184  10.169  21.076  0.00  0.00    +0.000 A 
ATOM     22  C   UNL     1       0.771  10.854  19.898  0.00  0.00    +0.000 A 
ATOM     23  O   UNL     1       1.342  10.219  19.011  0.00  0.00    +0.000 OA
ATOM     24  C   UNL     1       0.648  12.319  19.805  0.00  0.00    +0.000 A 
ATOM     25  C   UNL     1       1.087  12.973  18.656  0.00  0.00    +0.000 A 
ATOM     26  C   UNL     1       0.965  14.352  18.575  0.00  0.00    +0.000 A 
ATOM     27  C   UNL     1       0.421  15.030  19.660  0.00  0.00    +0.000 A 
ATOM     28  C   UNL     1       0.324  16.526  19.644  0.00  0.00    +0.000 C 
ATOM     29  N   UNL     1      -0.019  14.397  20.777  0.00  0.00    +0.000 NA
ATOM     30  C   UNL     1       0.070  13.045  20.848  0.00  0.00    +0.000 A 
BRANCH  19  32
ATOM     31  C   UNL     1      -2.572  12.619  23.197  0.00  0.00    +0.000 C 
ATOM     32  C   UNL     1      -1.166  13.158  22.958  0.00  0.00    +0.000 C 
ENDBRANCH  19  32
ENDBRANCH   1  21
TORSDOF 3
ENDMDL
MODEL 9
REMARK VINA RESULT:      -8.1      2.714      3.071
REMARK  Name = 
REMARK  5 active torsions:
REMARK  status: ('A' for Active; 'I' for Inactive)
REMARK    1  A    between atoms: C_1  and  C_2
REMARK    2  A    between atoms: C_2  and  N_3
REMARK    3  A    between atoms: C_5  and  C_6
REMARK    4  A    between atoms: N_8  and  N_9
REMARK    5  A    between atoms: C_26  and  C_27
REMARK                            x       y       z     vdW  Elec       q    Type
REMARK                         _______ _______ _______ _____ _____    ______ ____
ROOT
ATOM      1  C   UNL     1       1.429   8.495  20.117  0.00  0.00    +0.000 C 
ATOM      2  O   UNL     1       1.442   8.512  21.346  0.00  0.00    +0.000 OA
ATOM      3  N   UNL     1       0.718   9.371  19.308  0.00  0.00    +0.000 N 
ATOM      4  H   UNL     1       0.738   9.243  18.298  0.00  0.00    +0.000 HD
ENDROOT
BRANCH   3   5
ATOM      5  N   UNL     1      -0.051  10.356  19.860  0.00  0.00    +0.000 NA
ATOM      6  C   UNL     1       0.203  11.601  19.571  0.00  0.00    +0.000 A 
ATOM      7  N   UNL     1       1.221  12.090  18.770  0.00  0.00    +0.000 N 
ATOM      8  C   UNL     1       1.551  13.457  18.758  0.00  0.00    +0.000 A 
ATOM      9  C   UNL     1       2.662  13.920  18.046  0.00  0.00    +0.000 A 
ATOM     10  C   UNL     1       2.988  15.281  18.049  0.00  0.00    +0.000 A 
ATOM     11  C   UNL     1       2.183  16.195  18.725  0.00  0.00    +0.000 A 
ATOM     12  C   UNL     1       1.041  15.758  19.392  0.00  0.00    +0.000 A 
ATOM     13  C   UNL     1       0.731  14.395  19.408  0.00  0.00    +0.000 A 
ATOM     14  N   UNL     1      -0.402  13.964  20.102  0.00  0.00    +0.000 N 
ATOM     15  C   UNL     1      -0.753  12.639  20.245  0.00  0.00    +0.000 A 
ATOM     16  O   UNL     1      -1.750  12.310  20.872  0.00  0.00    +0.000 OA
ATOM     17  H   UNL     1       1.955  11.460  18.488  0.00  0.00    +0.000 HD
ATOM     18  H   UNL     1      -1.013  14.625  20.563  0.00  0.00    +0.000 HD
ENDBRANCH   3   5
BRANCH   1  21
ATOM     19  N   UNL     1       3.064   5.195  19.225  0.00  0.00    +0.000 N 
ATOM     20  C   UNL     1       2.352   6.223  19.828  0.00  0.00    +0.000 A 
ATOM     21  C   UNL     1       2.225   7.477  19.360  0.00  0.00    +0.000 A 
ATOM     22  C   UNL     1       2.934   7.782  18.092  0.00  0.00    +0.000 A 
ATOM     23  O   UNL     1       2.848   8.890  17.564  0.00  0.00    +0.000 OA
ATOM     24  C   UNL     1       3.756   6.725  17.478  0.00  0.00    +0.000 A 
ATOM     25  C   UNL     1       4.523   7.019  16.352  0.00  0.00    +0.000 A 
ATOM     26  C   UNL     1       5.296   6.020  15.781  0.00  0.00    +0.000 A 
ATOM     27  C   UNL     1       5.260   4.752  16.350  0.00  0.00    +0.000 A 
ATOM     28  C   UNL     1       6.031   3.625  15.733  0.00  0.00    +0.000 C 
ATOM     29  N   UNL     1       4.524   4.462  17.453  0.00  0.00    +0.000 NA
ATOM     30  C   UNL     1       3.790   5.445  18.033  0.00  0.00    +0.000 A 
BRANCH  19  32
ATOM     31  C   UNL     1       2.228   3.600  20.921  0.00  0.00    +0.000 C 
ATOM     32  C   UNL     1       3.262   3.871  19.834  0.00  0.00    +0.000 C 
ENDBRANCH  19  32
ENDBRANCH   1  21
TORSDOF 3
ENDMDL
