MODEL 1
REMARK VINA RESULT:      -7.6      0.000      0.000
REMARK  Name = 
REMARK  6 active torsions:
REMARK  status: ('A' for Active; 'I' for Inactive)
REMARK    1  A    between atoms: C_1  and  O_2
REMARK    2  A    between atoms: O_2  and  C_3
REMARK    3  A    between atoms: C_4  and  C_5
REMARK    4  A    between atoms: C_10  and  C_12
REMARK    5  A    between atoms: C_18  and  C_19
REMARK    6  A    between atoms: N_21  and  C_22
REMARK                            x       y       z     vdW  Elec       q    Type
REMARK                         _______ _______ _______ _____ _____    ______ ____
ROOT
ATOM      1  C   UNL     1       5.488   4.564  18.494  0.00  0.00    +0.000 C 
ATOM      2  C   UNL     1       6.366   5.457  19.376  0.00  0.00    +0.000 C 
ATOM      3  C   UNL     1       7.656   5.564  18.590  0.00  0.00    +0.000 C 
ATOM      4  C   UNL     1       7.200   5.521  17.138  0.00  0.00    +0.000 C 
ATOM      5  N   UNL     1       5.830   5.004  17.142  0.00  0.00    +0.000 N 
ATOM      6  C   UNL     1       5.223   4.441  16.011  0.00  0.00    +0.000 C 
ATOM      7  O   UNL     1       4.153   3.834  16.101  0.00  0.00    +0.000 OA
ENDROOT
BRANCH   1   9
ATOM      8  C   UNL     1       3.359   3.515  19.492  0.00  0.00    +0.000 A 
ATOM      9  C   UNL     1       4.063   4.585  18.938  0.00  0.00    +0.000 A 
ATOM     10  C   UNL     1       3.110   5.656  18.926  0.00  0.00    +0.000 A 
ATOM     11  C   UNL     1       3.257   7.057  18.461  0.00  0.00    +0.000 C 
ATOM     12  N   UNL     1       1.925   5.280  19.419  0.00  0.00    +0.000 NA
ATOM     13  N   UNL     1       2.079   3.971  19.667  0.00  0.00    +0.000 N 
ATOM     14  C   UNL     1       0.948   3.191  20.115  0.00  0.00    +0.000 C 
BRANCH   8  16
ATOM     15  C   UNL     1       3.707   1.297  18.751  0.00  0.00    +0.000 C 
ATOM     16  O   UNL     1       3.632   2.239  19.807  0.00  0.00    +0.000 OA
ENDBRANCH   8  16
ENDBRANCH   1   9
BRANCH   6  17
ATOM     17  C   UNL     1       5.921   4.503  14.735  0.00  0.00    +0.000 A 
ATOM     18  C   UNL     1       5.803   3.679  13.628  0.00  0.00    +0.000 A 
ATOM     19  C   UNL     1       6.827   4.054  12.727  0.00  0.00    +0.000 A 
ATOM     20  C   UNL     1       7.467   5.132  13.292  0.00  0.00    +0.000 A 
ATOM     21 CL   UNL     1       8.819   5.980  12.658  0.00  0.00    +0.000 Cl
ATOM     22  O   UNL     1       6.895   5.433  14.488  0.00  0.00    +0.000 OA
ENDBRANCH   6  17
TORSDOF 3
ENDMDL
MODEL 2
REMARK VINA RESULT:      -7.3      1.160      2.211
REMARK  Name = 
REMARK  6 active torsions:
REMARK  status: ('A' for Active; 'I' for Inactive)
REMARK    1  A    between atoms: C_1  and  O_2
REMARK    2  A    between atoms: O_2  and  C_3
REMARK    3  A    between atoms: C_4  and  C_5
REMARK    4  A    between atoms: C_10  and  C_12
REMARK    5  A    between atoms: C_18  and  C_19
REMARK    6  A    between atoms: N_21  and  C_22
REMARK                            x       y       z     vdW  Elec       q    Type
REMARK                         _______ _______ _______ _____ _____    ______ ____
ROOT
ATOM      1  C   UNL     1       5.908   4.498  18.721  0.00  0.00    +0.000 C 
ATOM      2  C   UNL     1       6.666   5.582  19.495  0.00  0.00    +0.000 C 
ATOM      3  C   UNL     1       7.827   5.915  18.581  0.00  0.00    +0.000 C 
ATOM      4  C   UNL     1       7.255   5.725  17.184  0.00  0.00    +0.000 C 
ATOM      5  N   UNL     1       6.025   4.945  17.334  0.00  0.00    +0.000 N 
ATOM      6  C   UNL     1       5.441   4.229  16.280  0.00  0.00    +0.000 C 
ATOM      7  O   UNL     1       4.530   3.424  16.488  0.00  0.00    +0.000 OA
ENDROOT
BRANCH   1   9
ATOM      8  C   UNL     1       3.554   5.202  19.490  0.00  0.00    +0.000 A 
ATOM      9  C   UNL     1       4.558   4.250  19.305  0.00  0.00    +0.000 A 
ATOM     10  C   UNL     1       3.972   3.033  19.786  0.00  0.00    +0.000 A 
ATOM     11  C   UNL     1       4.537   1.663  19.851  0.00  0.00    +0.000 C 
ATOM     12  N   UNL     1       2.724   3.217  20.233  0.00  0.00    +0.000 NA
ATOM     13  N   UNL     1       2.535   4.541  20.124  0.00  0.00    +0.000 N 
ATOM     14  C   UNL     1       1.315   5.131  20.624  0.00  0.00    +0.000 C 
BRANCH   8  16
ATOM     15  C   UNL     1       3.112   6.916  17.924  0.00  0.00    +0.000 C 
ATOM     16  O   UNL     1       3.412   6.514  19.249  0.00  0.00    +0.000 OA
ENDBRANCH   8  16
ENDBRANCH   1   9
BRANCH   6  17
ATOM     17  C   UNL     1       5.988   4.381  14.940  0.00  0.00    +0.000 A 
ATOM     18  C   UNL     1       5.716   3.654  13.792  0.00  0.00    +0.000 A 
ATOM     19  C   UNL     1       6.641   4.079  12.810  0.00  0.00    +0.000 A 
ATOM     20  C   UNL     1       7.376   5.092  13.379  0.00  0.00    +0.000 A 
ATOM     21 CL   UNL     1       8.672   5.959  12.659  0.00  0.00    +0.000 Cl
ATOM     22  O   UNL     1       6.957   5.306  14.655  0.00  0.00    +0.000 OA
ENDBRANCH   6  17
TORSDOF 3
ENDMDL
MODEL 3
REMARK VINA RESULT:      -7.2      1.090      1.217
REMARK  Name = 
REMARK  6 active torsions:
REMARK  status: ('A' for Active; 'I' for Inactive)
REMARK    1  A    between atoms: C_1  and  O_2
REMARK    2  A    between atoms: O_2  and  C_3
REMARK    3  A    between atoms: C_4  and  C_5
REMARK    4  A    between atoms: C_10  and  C_12
REMARK    5  A    between atoms: C_18  and  C_19
REMARK    6  A    between atoms: N_21  and  C_22
REMARK                            x       y       z     vdW  Elec       q    Type
REMARK                         _______ _______ _______ _____ _____    ______ ____
ROOT
ATOM      1  C   UNL     1       5.548   4.621  18.537  0.00  0.00    +0.000 C 
ATOM      2  C   UNL     1       6.438   5.515  19.406  0.00  0.00    +0.000 C 
ATOM      3  C   UNL     1       7.761   5.510  18.670  0.00  0.00    +0.000 C 
ATOM      4  C   UNL     1       7.360   5.410  17.205  0.00  0.00    +0.000 C 
ATOM      5  N   UNL     1       5.965   4.966  17.179  0.00  0.00    +0.000 N 
ATOM      6  C   UNL     1       5.373   4.373  16.056  0.00  0.00    +0.000 C 
ATOM      7  O   UNL     1       4.268   3.829  16.134  0.00  0.00    +0.000 OA
ENDROOT
BRANCH   1   9
ATOM      8  C   UNL     1       3.339   3.754  19.536  0.00  0.00    +0.000 A 
ATOM      9  C   UNL     1       4.110   4.741  18.920  0.00  0.00    +0.000 A 
ATOM     10  C   UNL     1       3.208   5.846  18.777  0.00  0.00    +0.000 A 
ATOM     11  C   UNL     1       3.435   7.193  18.199  0.00  0.00    +0.000 C 
ATOM     12  N   UNL     1       1.990   5.565  19.252  0.00  0.00    +0.000 NA
ATOM     13  N   UNL     1       2.075   4.277  19.619  0.00  0.00    +0.000 N 
ATOM     14  C   UNL     1       0.894   3.588  20.087  0.00  0.00    +0.000 C 
BRANCH   8  16
ATOM     15  C   UNL     1       3.690   1.479  19.001  0.00  0.00    +0.000 C 
ATOM     16  O   UNL     1       3.541   2.501  19.971  0.00  0.00    +0.000 OA
ENDBRANCH   8  16
ENDBRANCH   1   9
BRANCH   6  17
ATOM     17  C   UNL     1       6.121   4.327  14.809  0.00  0.00    +0.000 A 
ATOM     18  C   UNL     1       6.984   5.267  14.267  0.00  0.00    +0.000 A 
ATOM     19  C   UNL     1       7.304   4.824  12.962  0.00  0.00    +0.000 A 
ATOM     20  C   UNL     1       6.685   3.606  12.801  0.00  0.00    +0.000 A 
ATOM     21 CL   UNL     1       6.694   2.620  11.395  0.00  0.00    +0.000 Cl
ATOM     22  O   UNL     1       6.002   3.283  13.931  0.00  0.00    +0.000 OA
ENDBRANCH   6  17
TORSDOF 3
ENDMDL
MODEL 4
REMARK VINA RESULT:      -7.1      3.934      6.612
REMARK  Name = 
REMARK  6 active torsions:
REMARK  status: ('A' for Active; 'I' for Inactive)
REMARK    1  A    between atoms: C_1  and  O_2
REMARK    2  A    between atoms: O_2  and  C_3
REMARK    3  A    between atoms: C_4  and  C_5
REMARK    4  A    between atoms: C_10  and  C_12
REMARK    5  A    between atoms: C_18  and  C_19
REMARK    6  A    between atoms: N_21  and  C_22
REMARK                            x       y       z     vdW  Elec       q    Type
REMARK                         _______ _______ _______ _____ _____    ______ ____
ROOT
ATOM      1  C   UNL     1       3.718   5.356  19.377  0.00  0.00    +0.000 C 
ATOM      2  C   UNL     1       3.138   4.191  20.184  0.00  0.00    +0.000 C 
ATOM      3  C   UNL     1       2.195   4.873  21.153  0.00  0.00    +0.000 C 
ATOM      4  C   UNL     1       1.670   6.067  20.369  0.00  0.00    +0.000 C 
ATOM      5  N   UNL     1       2.573   6.255  19.232  0.00  0.00    +0.000 N 
ATOM      6  C   UNL     1       2.672   7.462  18.527  0.00  0.00    +0.000 C 
ATOM      7  O   UNL     1       3.582   7.650  17.715  0.00  0.00    +0.000 OA
ENDROOT
BRANCH   1   9
ATOM      8  C   UNL     1       5.713   5.270  17.751  0.00  0.00    +0.000 A 
ATOM      9  C   UNL     1       4.438   4.877  18.161  0.00  0.00    +0.000 A 
ATOM     10  C   UNL     1       4.032   3.929  17.164  0.00  0.00    +0.000 A 
ATOM     11  C   UNL     1       2.774   3.152  17.044  0.00  0.00    +0.000 C 
ATOM     12  N   UNL     1       4.967   3.758  16.223  0.00  0.00    +0.000 NA
ATOM     13  N   UNL     1       5.923   4.639  16.553  0.00  0.00    +0.000 N 
ATOM     14  C   UNL     1       7.063   4.815  15.683  0.00  0.00    +0.000 C 
BRANCH   8  16
ATOM     15  C   UNL     1       7.469   5.648  19.287  0.00  0.00    +0.000 C 
ATOM     16  O   UNL     1       6.662   6.098  18.212  0.00  0.00    +0.000 OA
ENDBRANCH   8  16
ENDBRANCH   1   9
BRANCH   6  17
ATOM     17  C   UNL     1       1.735   8.533  18.832  0.00  0.00    +0.000 A 
ATOM     18  C   UNL     1       1.043   9.368  17.969  0.00  0.00    +0.000 A 
ATOM     19  C   UNL     1       0.411  10.349  18.768  0.00  0.00    +0.000 A 
ATOM     20  C   UNL     1       0.685  10.022  20.076  0.00  0.00    +0.000 A 
ATOM     21 CL   UNL     1       0.203  10.886  21.480  0.00  0.00    +0.000 Cl
ATOM     22  O   UNL     1       1.451   8.900  20.120  0.00  0.00    +0.000 OA
ENDBRANCH   6  17
TORSDOF 3
ENDMDL
MODEL 5
REMARK VINA RESULT:      -7.0      3.978      6.803
REMARK  Name = 
REMARK  6 active torsions:
REMARK  status: ('A' for Active; 'I' for Inactive)
REMARK    1  A    between atoms: C_1  and  O_2
REMARK    2  A    between atoms: O_2  and  C_3
REMARK    3  A    between atoms: C_4  and  C_5
REMARK    4  A    between atoms: C_10  and  C_12
REMARK    5  A    between atoms: C_18  and  C_19
REMARK    6  A    between atoms: N_21  and  C_22
REMARK                            x       y       z     vdW  Elec       q    Type
REMARK                         _______ _______ _______ _____ _____    ______ ____
ROOT
ATOM      1  C   UNL     1       3.683   4.524  19.781  0.00  0.00    +0.000 C 
ATOM      2  C   UNL     1       3.074   3.230  20.331  0.00  0.00    +0.000 C 
ATOM      3  C   UNL     1       2.177   3.716  21.451  0.00  0.00    +0.000 C 
ATOM      4  C   UNL     1       1.683   5.069  20.959  0.00  0.00    +0.000 C 
ATOM      5  N   UNL     1       2.571   5.471  19.866  0.00  0.00    +0.000 N 
ATOM      6  C   UNL     1       2.703   6.798  19.437  0.00  0.00    +0.000 C 
ATOM      7  O   UNL     1       3.603   7.128  18.661  0.00  0.00    +0.000 OA
ENDROOT
BRANCH   1   9
ATOM      8  C   UNL     1       5.730   4.409  18.224  0.00  0.00    +0.000 A 
ATOM      9  C   UNL     1       4.361   4.298  18.471  0.00  0.00    +0.000 A 
ATOM     10  C   UNL     1       3.811   3.914  17.204  0.00  0.00    +0.000 A 
ATOM     11  C   UNL     1       2.405   3.635  16.820  0.00  0.00    +0.000 C 
ATOM     12  N   UNL     1       4.752   3.805  16.260  0.00  0.00    +0.000 NA
ATOM     13  N   UNL     1       5.877   4.193  16.879  0.00  0.00    +0.000 N 
ATOM     14  C   UNL     1       7.103   4.308  16.123  0.00  0.00    +0.000 C 
BRANCH   8  16
ATOM     15  C   UNL     1       7.317   6.033  18.878  0.00  0.00    +0.000 C 
ATOM     16  O   UNL     1       6.820   4.708  18.946  0.00  0.00    +0.000 OA
ENDBRANCH   8  16
ENDBRANCH   1   9
BRANCH   6  17
ATOM     17  C   UNL     1       1.813   7.807  19.993  0.00  0.00    +0.000 A 
ATOM     18  C   UNL     1       1.234   8.905  19.376  0.00  0.00    +0.000 A 
ATOM     19  C   UNL     1       0.609   9.664  20.393  0.00  0.00    +0.000 A 
ATOM     20  C   UNL     1       0.771   8.957  21.561  0.00  0.00    +0.000 A 
ATOM     21 CL   UNL     1       0.246   9.419  23.130  0.00  0.00    +0.000 Cl
ATOM     22  O   UNL     1       1.463   7.813  21.317  0.00  0.00    +0.000 OA
ENDBRANCH   6  17
TORSDOF 3
ENDMDL
MODEL 6
REMARK VINA RESULT:      -6.9      3.730      6.327
REMARK  Name = 
REMARK  6 active torsions:
REMARK  status: ('A' for Active; 'I' for Inactive)
REMARK    1  A    between atoms: C_1  and  O_2
REMARK    2  A    between atoms: O_2  and  C_3
REMARK    3  A    between atoms: C_4  and  C_5
REMARK    4  A    between atoms: C_10  and  C_12
REMARK    5  A    between atoms: C_18  and  C_19
REMARK    6  A    between atoms: N_21  and  C_22
REMARK                            x       y       z     vdW  Elec       q    Type
REMARK                         _______ _______ _______ _____ _____    ______ ____
ROOT
ATOM      1  C   UNL     1       4.112   5.361  19.471  0.00  0.00    +0.000 C 
ATOM      2  C   UNL     1       3.536   4.112  20.145  0.00  0.00    +0.000 C 
ATOM      3  C   UNL     1       2.386   4.658  20.966  0.00  0.00    +0.000 C 
ATOM      4  C   UNL     1       1.870   5.825  20.136  0.00  0.00    +0.000 C 
ATOM      5  N   UNL     1       2.917   6.148  19.165  0.00  0.00    +0.000 N 
ATOM      6  C   UNL     1       3.001   7.386  18.515  0.00  0.00    +0.000 C 
ATOM      7  O   UNL     1       4.003   7.696  17.865  0.00  0.00    +0.000 OA
ENDROOT
BRANCH   1   9
ATOM      8  C   UNL     1       4.720   4.452  17.140  0.00  0.00    +0.000 A 
ATOM      9  C   UNL     1       5.061   5.005  18.375  0.00  0.00    +0.000 A 
ATOM     10  C   UNL     1       6.486   5.147  18.309  0.00  0.00    +0.000 A 
ATOM     11  C   UNL     1       7.438   5.684  19.312  0.00  0.00    +0.000 C 
ATOM     12  N   UNL     1       6.981   4.715  17.144  0.00  0.00    +0.000 NA
ATOM     13  N   UNL     1       5.911   4.223  16.501  0.00  0.00    +0.000 N 
ATOM     14  C   UNL     1       6.085   3.560  15.229  0.00  0.00    +0.000 C 
BRANCH   8  16
ATOM     15  C   UNL     1       2.858   2.998  17.081  0.00  0.00    +0.000 C 
ATOM     16  O   UNL     1       3.585   4.081  16.528  0.00  0.00    +0.000 OA
ENDBRANCH   8  16
ENDBRANCH   1   9
BRANCH   6  17
ATOM     17  C   UNL     1       1.921   8.346  18.691  0.00  0.00    +0.000 A 
ATOM     18  C   UNL     1       1.217   9.063  17.736  0.00  0.00    +0.000 A 
ATOM     19  C   UNL     1       0.405   9.987  18.433  0.00  0.00    +0.000 A 
ATOM     20  C   UNL     1       0.595   9.738  19.773  0.00  0.00    +0.000 A 
ATOM     21 CL   UNL     1      -0.111  10.584  21.091  0.00  0.00    +0.000 Cl
ATOM     22  O   UNL     1       1.480   8.719  19.932  0.00  0.00    +0.000 OA
ENDBRANCH   6  17
TORSDOF 3
ENDMDL
MODEL 7
REMARK VINA RESULT:      -6.9      3.806      6.623
REMARK  Name = 
REMARK  6 active torsions:
REMARK  status: ('A' for Active; 'I' for Inactive)
REMARK    1  A    between atoms: C_1  and  O_2
REMARK    2  A    between atoms: O_2  and  C_3
REMARK    3  A    between atoms: C_4  and  C_5
REMARK    4  A    between atoms: C_10  and  C_12
REMARK    5  A    between atoms: C_18  and  C_19
REMARK    6  A    between atoms: N_21  and  C_22
REMARK                            x       y       z     vdW  Elec       q    Type
REMARK                         _______ _______ _______ _____ _____    ______ ____
ROOT
ATOM      1  C   UNL     1       3.680   5.390  19.390  0.00  0.00    +0.000 C 
ATOM      2  C   UNL     1       3.142   4.181  20.161  0.00  0.00    +0.000 C 
ATOM      3  C   UNL     1       2.217   4.804  21.185  0.00  0.00    +0.000 C 
ATOM      4  C   UNL     1       1.651   6.022  20.468  0.00  0.00    +0.000 C 
ATOM      5  N   UNL     1       2.518   6.274  19.316  0.00  0.00    +0.000 N 
ATOM      6  C   UNL     1       2.577   7.512  18.661  0.00  0.00    +0.000 C 
ATOM      7  O   UNL     1       3.460   7.750  17.834  0.00  0.00    +0.000 OA
ENDROOT
BRANCH   1   9
ATOM      8  C   UNL     1       5.639   5.390  17.719  0.00  0.00    +0.000 A 
ATOM      9  C   UNL     1       4.373   4.976  18.135  0.00  0.00    +0.000 A 
ATOM     10  C   UNL     1       3.945   4.082  17.098  0.00  0.00    +0.000 A 
ATOM     11  C   UNL     1       2.684   3.313  16.965  0.00  0.00    +0.000 C 
ATOM     12  N   UNL     1       4.858   3.962  16.129  0.00  0.00    +0.000 NA
ATOM     13  N   UNL     1       5.823   4.824  16.485  0.00  0.00    +0.000 N 
ATOM     14  C   UNL     1       6.943   5.046  15.601  0.00  0.00    +0.000 C 
BRANCH   8  16
ATOM     15  C   UNL     1       7.417   5.693  19.247  0.00  0.00    +0.000 C 
ATOM     16  O   UNL     1       6.600   6.193  18.203  0.00  0.00    +0.000 OA
ENDBRANCH   8  16
ENDBRANCH   1   9
BRANCH   6  17
ATOM     17  C   UNL     1       1.632   8.552  19.039  0.00  0.00    +0.000 A 
ATOM     18  C   UNL     1       1.294   9.018  20.300  0.00  0.00    +0.000 A 
ATOM     19  C   UNL     1       0.200   9.898  20.132  0.00  0.00    +0.000 A 
ATOM     20  C   UNL     1      -0.026   9.984  18.778  0.00  0.00    +0.000 A 
ATOM     21 CL   UNL     1      -1.260  10.884  17.992  0.00  0.00    +0.000 Cl
ATOM     22  O   UNL     1       0.864   9.203  18.111  0.00  0.00    +0.000 OA
ENDBRANCH   6  17
TORSDOF 3
ENDMDL
MODEL 8
REMARK VINA RESULT:      -6.8      3.772      6.614
REMARK  Name = 
REMARK  6 active torsions:
REMARK  status: ('A' for Active; 'I' for Inactive)
REMARK    1  A    between atoms: C_1  and  O_2
REMARK    2  A    between atoms: O_2  and  C_3
REMARK    3  A    between atoms: C_4  and  C_5
REMARK    4  A    between atoms: C_10  and  C_12
REMARK    5  A    between atoms: C_18  and  C_19
REMARK    6  A    between atoms: N_21  and  C_22
REMARK                            x       y       z     vdW  Elec       q    Type
REMARK                         _______ _______ _______ _____ _____    ______ ____
ROOT
ATOM      1  C   UNL     1       3.711   4.563  19.729  0.00  0.00    +0.000 C 
ATOM      2  C   UNL     1       3.104   3.283  20.314  0.00  0.00    +0.000 C 
ATOM      3  C   UNL     1       2.225   3.796  21.436  0.00  0.00    +0.000 C 
ATOM      4  C   UNL     1       1.731   5.141  20.923  0.00  0.00    +0.000 C 
ATOM      5  N   UNL     1       2.605   5.516  19.810  0.00  0.00    +0.000 N 
ATOM      6  C   UNL     1       2.737   6.834  19.353  0.00  0.00    +0.000 C 
ATOM      7  O   UNL     1       3.628   7.143  18.557  0.00  0.00    +0.000 OA
ENDROOT
BRANCH   1   9
ATOM      8  C   UNL     1       5.734   4.413  18.143  0.00  0.00    +0.000 A 
ATOM      9  C   UNL     1       4.369   4.306  18.414  0.00  0.00    +0.000 A 
ATOM     10  C   UNL     1       3.800   3.891  17.165  0.00  0.00    +0.000 A 
ATOM     11  C   UNL     1       2.390   3.602  16.810  0.00  0.00    +0.000 C 
ATOM     12  N   UNL     1       4.727   3.761  16.209  0.00  0.00    +0.000 NA
ATOM     13  N   UNL     1       5.861   4.166  16.802  0.00  0.00    +0.000 N 
ATOM     14  C   UNL     1       7.075   4.265  16.025  0.00  0.00    +0.000 C 
BRANCH   8  16
ATOM     15  C   UNL     1       7.270   6.079  18.816  0.00  0.00    +0.000 C 
ATOM     16  O   UNL     1       6.835   4.730  18.841  0.00  0.00    +0.000 OA
ENDBRANCH   8  16
ENDBRANCH   1   9
BRANCH   6  17
ATOM     17  C   UNL     1       1.860   7.858  19.900  0.00  0.00    +0.000 A 
ATOM     18  C   UNL     1       1.328   7.970  21.175  0.00  0.00    +0.000 A 
ATOM     19  C   UNL     1       0.399   9.036  21.139  0.00  0.00    +0.000 A 
ATOM     20  C   UNL     1       0.466   9.568  19.872  0.00  0.00    +0.000 A 
ATOM     21 CL   UNL     1      -0.470  10.864  19.245  0.00  0.00    +0.000 Cl
ATOM     22  O   UNL     1       1.378   8.884  19.132  0.00  0.00    +0.000 OA
ENDBRANCH   6  17
TORSDOF 3
ENDMDL
MODEL 9
REMARK VINA RESULT:      -6.7      1.648      2.552
REMARK  Name = 
REMARK  6 active torsions:
REMARK  status: ('A' for Active; 'I' for Inactive)
REMARK    1  A    between atoms: C_1  and  O_2
REMARK    2  A    between atoms: O_2  and  C_3
REMARK    3  A    between atoms: C_4  and  C_5
REMARK    4  A    between atoms: C_10  and  C_12
REMARK    5  A    between atoms: C_18  and  C_19
REMARK    6  A    between atoms: N_21  and  C_22
REMARK                            x       y       z     vdW  Elec       q    Type
REMARK                         _______ _______ _______ _____ _____    ______ ____
ROOT
ATOM      1  C   UNL     1       5.940   4.499  18.841  0.00  0.00    +0.000 C 
ATOM      2  C   UNL     1       6.700   5.619  19.559  0.00  0.00    +0.000 C 
ATOM      3  C   UNL     1       7.879   5.881  18.646  0.00  0.00    +0.000 C 
ATOM      4  C   UNL     1       7.327   5.612  17.253  0.00  0.00    +0.000 C 
ATOM      5  N   UNL     1       6.084   4.858  17.431  0.00  0.00    +0.000 N 
ATOM      6  C   UNL     1       5.508   4.085  16.414  0.00  0.00    +0.000 C 
ATOM      7  O   UNL     1       4.583   3.305  16.656  0.00  0.00    +0.000 OA
ENDROOT
BRANCH   1   9
ATOM      8  C   UNL     1       3.589   5.281  19.540  0.00  0.00    +0.000 A 
ATOM      9  C   UNL     1       4.578   4.304  19.417  0.00  0.00    +0.000 A 
ATOM     10  C   UNL     1       3.963   3.123  19.949  0.00  0.00    +0.000 A 
ATOM     11  C   UNL     1       4.502   1.748  20.089  0.00  0.00    +0.000 C 
ATOM     12  N   UNL     1       2.713   3.351  20.368  0.00  0.00    +0.000 NA
ATOM     13  N   UNL     1       2.550   4.671  20.191  0.00  0.00    +0.000 N 
ATOM     14  C   UNL     1       1.333   5.306  20.644  0.00  0.00    +0.000 C 
BRANCH   8  16
ATOM     15  C   UNL     1       3.242   6.926  17.878  0.00  0.00    +0.000 C 
ATOM     16  O   UNL     1       3.475   6.583  19.233  0.00  0.00    +0.000 OA
ENDBRANCH   8  16
ENDBRANCH   1   9
BRANCH   6  17
ATOM     17  C   UNL     1       6.078   4.147  15.076  0.00  0.00    +0.000 A 
ATOM     18  C   UNL     1       6.837   5.147  14.490  0.00  0.00    +0.000 A 
ATOM     19  C   UNL     1       6.983   4.804  13.125  0.00  0.00    +0.000 A 
ATOM     20  C   UNL     1       6.374   3.581  12.964  0.00  0.00    +0.000 A 
ATOM     21 CL   UNL     1       6.210   2.693  11.503  0.00  0.00    +0.000 Cl
ATOM     22  O   UNL     1       5.861   3.161  14.151  0.00  0.00    +0.000 OA
ENDBRANCH   6  17
TORSDOF 3
ENDMDL
