MODEL 1
REMARK VINA RESULT:      -8.0      0.000      0.000
REMARK  Name = 
REMARK  5 active torsions:
REMARK  status: ('A' for Active; 'I' for Inactive)
REMARK    1  A    between atoms: C_1  and  C_2
REMARK    2  A    between atoms: C_3  and  C_4
REMARK    3  A    between atoms: N_6  and  C_7
REMARK    4  A    between atoms: N_14  and  C_15
REMARK    5  A    between atoms: C_23  and  N_24
REMARK                            x       y       z     vdW  Elec       q    Type
REMARK                         _______ _______ _______ _____ _____    ______ ____
ROOT
ATOM      1  C   UNL     1       1.224   4.961  20.397  0.00  0.00    +0.000 C 
ATOM      2  C   UNL     1       2.306   5.487  19.520  0.00  0.00    +0.000 A 
ATOM      3  C   UNL     1       2.598   6.864  19.212  0.00  0.00    +0.000 A 
ATOM      4  N   UNL     1       3.742   6.965  18.502  0.00  0.00    +0.000 NA
ATOM      5  N   UNL     1       4.077   5.677  18.186  0.00  0.00    +0.000 N 
ATOM      6  C   UNL     1       3.327   4.770  18.913  0.00  0.00    +0.000 A 
ENDROOT
BRANCH   5   7
ATOM      7  C   UNL     1       5.013   5.453  17.140  0.00  0.00    +0.000 A 
ATOM      8  C   UNL     1       4.594   4.807  15.967  0.00  0.00    +0.000 A 
ATOM      9  C   UNL     1       5.504   4.601  14.925  0.00  0.00    +0.000 A 
ATOM     10  C   UNL     1       6.823   5.023  15.063  0.00  0.00    +0.000 A 
ATOM     11  F   UNL     1       7.691   4.818  14.064  0.00  0.00    +0.000 F 
ATOM     12  C   UNL     1       7.260   5.634  16.228  0.00  0.00    +0.000 A 
ATOM     13  C   UNL     1       6.357   5.830  17.267  0.00  0.00    +0.000 A 
ATOM     14  F   UNL     1       6.839   6.319  18.417  0.00  0.00    +0.000 F 
ENDBRANCH   5   7
BRANCH   6  15
ATOM     15  N   UNL     1       3.609   3.401  19.026  0.00  0.00    +0.000 N 
ATOM     16  C   UNL     1       4.437   2.802  19.962  0.00  0.00    +0.000 A 
ATOM     17  C   UNL     1       4.501   1.446  19.723  0.00  0.00    +0.000 A 
ATOM     18  C   UNL     1       3.657   1.179  18.629  0.00  0.00    +0.000 A 
ATOM     19  C   UNL     1       3.103   2.380  18.243  0.00  0.00    +0.000 A 
ENDBRANCH   6  15
BRANCH   3  20
ATOM     20  C   UNL     1       1.812   8.057  19.618  0.00  0.00    +0.000 C 
ATOM     21  O   UNL     1       1.460   8.240  20.781  0.00  0.00    +0.000 OA
ATOM     22  N   UNL     1       1.469   8.956  18.609  0.00  0.00    +0.000 N 
ATOM     23  H   UNL     1       1.866   8.793  17.691  0.00  0.00    +0.000 HD
BRANCH  22  24
ATOM     24  C   UNL     1       0.697  10.151  18.933  0.00  0.00    +0.000 C 
ATOM     25  C   UNL     1      -0.665  10.239  18.232  0.00  0.00    +0.000 C 
ATOM     26  C   UNL     1      -1.467  11.418  18.802  0.00  0.00    +0.000 C 
ATOM     27  C   UNL     1      -0.707  12.745  18.721  0.00  0.00    +0.000 C 
ATOM     28  C   UNL     1       0.729  12.645  19.237  0.00  0.00    +0.000 C 
ATOM     29  C   UNL     1       1.476  11.444  18.655  0.00  0.00    +0.000 C 
ENDBRANCH  22  24
ENDBRANCH   3  20
TORSDOF 4
ENDMDL
MODEL 2
REMARK VINA RESULT:      -7.6      1.624      1.861
REMARK  Name = 
REMARK  5 active torsions:
REMARK  status: ('A' for Active; 'I' for Inactive)
REMARK    1  A    between atoms: C_1  and  C_2
REMARK    2  A    between atoms: C_3  and  C_4
REMARK    3  A    between atoms: N_6  and  C_7
REMARK    4  A    between atoms: N_14  and  C_15
REMARK    5  A    between atoms: C_23  and  N_24
REMARK                            x       y       z     vdW  Elec       q    Type
REMARK                         _______ _______ _______ _____ _____    ______ ____
ROOT
ATOM      1  C   UNL     1       1.098   4.991  20.322  0.00  0.00    +0.000 C 
ATOM      2  C   UNL     1       2.190   5.532  19.465  0.00  0.00    +0.000 A 
ATOM      3  C   UNL     1       2.444   6.909  19.128  0.00  0.00    +0.000 A 
ATOM      4  N   UNL     1       3.607   7.032  18.453  0.00  0.00    +0.000 NA
ATOM      5  N   UNL     1       3.997   5.749  18.185  0.00  0.00    +0.000 N 
ATOM      6  C   UNL     1       3.256   4.836  18.913  0.00  0.00    +0.000 A 
ENDROOT
BRANCH   5   7
ATOM      7  C   UNL     1       4.975   5.530  17.176  0.00  0.00    +0.000 A 
ATOM      8  C   UNL     1       4.604   4.891  15.983  0.00  0.00    +0.000 A 
ATOM      9  C   UNL     1       5.556   4.691  14.978  0.00  0.00    +0.000 A 
ATOM     10  C   UNL     1       6.868   5.110  15.173  0.00  0.00    +0.000 A 
ATOM     11  F   UNL     1       7.776   4.910  14.209  0.00  0.00    +0.000 F 
ATOM     12  C   UNL     1       7.258   5.714  16.359  0.00  0.00    +0.000 A 
ATOM     13  C   UNL     1       6.313   5.904  17.361  0.00  0.00    +0.000 A 
ATOM     14  F   UNL     1       6.748   6.386  18.532  0.00  0.00    +0.000 F 
ENDBRANCH   5   7
BRANCH   6  15
ATOM     15  N   UNL     1       3.582   3.482  19.074  0.00  0.00    +0.000 N 
ATOM     16  C   UNL     1       4.408   2.940  20.047  0.00  0.00    +0.000 A 
ATOM     17  C   UNL     1       4.524   1.581  19.851  0.00  0.00    +0.000 A 
ATOM     18  C   UNL     1       3.715   1.252  18.748  0.00  0.00    +0.000 A 
ATOM     19  C   UNL     1       3.129   2.420  18.312  0.00  0.00    +0.000 A 
ENDBRANCH   6  15
BRANCH   3  20
ATOM     20  C   UNL     1       1.603   8.084  19.473  0.00  0.00    +0.000 C 
ATOM     21  O   UNL     1       1.251   8.904  18.627  0.00  0.00    +0.000 OA
ATOM     22  N   UNL     1       1.245   8.229  20.813  0.00  0.00    +0.000 N 
ATOM     23  H   UNL     1       1.491   7.472  21.440  0.00  0.00    +0.000 HD
BRANCH  22  24
ATOM     24  C   UNL     1       0.419   9.359  21.226  0.00  0.00    +0.000 C 
ATOM     25  C   UNL     1       1.016  10.735  20.902  0.00  0.00    +0.000 C 
ATOM     26  C   UNL     1      -0.022  11.830  21.190  0.00  0.00    +0.000 C 
ATOM     27  C   UNL     1      -0.560  11.774  22.623  0.00  0.00    +0.000 C 
ATOM     28  C   UNL     1      -0.986  10.367  23.048  0.00  0.00    +0.000 C 
ATOM     29  C   UNL     1       0.072   9.313  22.721  0.00  0.00    +0.000 C 
ENDBRANCH  22  24
ENDBRANCH   3  20
TORSDOF 4
ENDMDL
MODEL 3
REMARK VINA RESULT:      -7.6      1.624      1.762
REMARK  Name = 
REMARK  5 active torsions:
REMARK  status: ('A' for Active; 'I' for Inactive)
REMARK    1  A    between atoms: C_1  and  C_2
REMARK    2  A    between atoms: C_3  and  C_4
REMARK    3  A    between atoms: N_6  and  C_7
REMARK    4  A    between atoms: N_14  and  C_15
REMARK    5  A    between atoms: C_23  and  N_24
REMARK                            x       y       z     vdW  Elec       q    Type
REMARK                         _______ _______ _______ _____ _____    ______ ____
ROOT
ATOM      1  C   UNL     1       1.195   4.830  20.533  0.00  0.00    +0.000 C 
ATOM      2  C   UNL     1       2.284   5.394  19.688  0.00  0.00    +0.000 A 
ATOM      3  C   UNL     1       2.587   6.784  19.455  0.00  0.00    +0.000 A 
ATOM      4  N   UNL     1       3.734   6.915  18.755  0.00  0.00    +0.000 NA
ATOM      5  N   UNL     1       4.060   5.643  18.371  0.00  0.00    +0.000 N 
ATOM      6  C   UNL     1       3.302   4.704  19.046  0.00  0.00    +0.000 A 
ENDROOT
BRANCH   5   7
ATOM      7  C   UNL     1       4.998   5.469  17.316  0.00  0.00    +0.000 A 
ATOM      8  C   UNL     1       4.576   4.896  16.106  0.00  0.00    +0.000 A 
ATOM      9  C   UNL     1       5.487   4.741  15.057  0.00  0.00    +0.000 A 
ATOM     10  C   UNL     1       6.811   5.137  15.224  0.00  0.00    +0.000 A 
ATOM     11  F   UNL     1       7.679   4.981  14.217  0.00  0.00    +0.000 F 
ATOM     12  C   UNL     1       7.250   5.675  16.424  0.00  0.00    +0.000 A 
ATOM     13  C   UNL     1       6.345   5.821  17.469  0.00  0.00    +0.000 A 
ATOM     14  F   UNL     1       6.829   6.237  18.647  0.00  0.00    +0.000 F 
ENDBRANCH   5   7
BRANCH   6  15
ATOM     15  N   UNL     1       3.574   3.329  19.086  0.00  0.00    +0.000 N 
ATOM     16  C   UNL     1       4.372   2.670  20.008  0.00  0.00    +0.000 A 
ATOM     17  C   UNL     1       4.436   1.330  19.691  0.00  0.00    +0.000 A 
ATOM     18  C   UNL     1       3.621   1.134  18.561  0.00  0.00    +0.000 A 
ATOM     19  C   UNL     1       3.084   2.359  18.230  0.00  0.00    +0.000 A 
ENDBRANCH   6  15
BRANCH   3  20
ATOM     20  C   UNL     1       1.808   7.959  19.922  0.00  0.00    +0.000 C 
ATOM     21  O   UNL     1       1.223   8.705  19.140  0.00  0.00    +0.000 OA
ATOM     22  N   UNL     1       1.788   8.194  21.297  0.00  0.00    +0.000 N 
ATOM     23  H   UNL     1       2.214   7.492  21.891  0.00  0.00    +0.000 HD
BRANCH  22  24
ATOM     24  C   UNL     1       1.043   9.330  21.829  0.00  0.00    +0.000 C 
ATOM     25  C   UNL     1      -0.320   8.970  22.434  0.00  0.00    +0.000 C 
ATOM     26  C   UNL     1      -0.914  10.198  23.141  0.00  0.00    +0.000 C 
ATOM     27  C   UNL     1      -1.011  11.420  22.224  0.00  0.00    +0.000 C 
ATOM     28  C   UNL     1       0.280  11.694  21.452  0.00  0.00    +0.000 C 
ATOM     29  C   UNL     1       0.840  10.437  20.785  0.00  0.00    +0.000 C 
ENDBRANCH  22  24
ENDBRANCH   3  20
TORSDOF 4
ENDMDL
MODEL 4
REMARK VINA RESULT:      -7.6      0.908      1.277
REMARK  Name = 
REMARK  5 active torsions:
REMARK  status: ('A' for Active; 'I' for Inactive)
REMARK    1  A    between atoms: C_1  and  C_2
REMARK    2  A    between atoms: C_3  and  C_4
REMARK    3  A    between atoms: N_6  and  C_7
REMARK    4  A    between atoms: N_14  and  C_15
REMARK    5  A    between atoms: C_23  and  N_24
REMARK                            x       y       z     vdW  Elec       q    Type
REMARK                         _______ _______ _______ _____ _____    ______ ____
ROOT
ATOM      1  C   UNL     1       1.185   4.950  20.490  0.00  0.00    +0.000 C 
ATOM      2  C   UNL     1       2.267   5.473  19.611  0.00  0.00    +0.000 A 
ATOM      3  C   UNL     1       2.553   6.849  19.290  0.00  0.00    +0.000 A 
ATOM      4  N   UNL     1       3.699   6.949  18.584  0.00  0.00    +0.000 NA
ATOM      5  N   UNL     1       4.042   5.659  18.282  0.00  0.00    +0.000 N 
ATOM      6  C   UNL     1       3.295   4.756  19.016  0.00  0.00    +0.000 A 
ENDROOT
BRANCH   5   7
ATOM      7  C   UNL     1       4.983   5.430  17.241  0.00  0.00    +0.000 A 
ATOM      8  C   UNL     1       6.205   6.120  17.251  0.00  0.00    +0.000 A 
ATOM      9  C   UNL     1       7.143   5.884  16.242  0.00  0.00    +0.000 A 
ATOM     10  C   UNL     1       6.855   4.980  15.225  0.00  0.00    +0.000 A 
ATOM     11  F   UNL     1       7.757   4.763  14.259  0.00  0.00    +0.000 F 
ATOM     12  C   UNL     1       5.640   4.313  15.183  0.00  0.00    +0.000 A 
ATOM     13  C   UNL     1       4.704   4.556  16.182  0.00  0.00    +0.000 A 
ATOM     14  F   UNL     1       3.501   3.982  16.049  0.00  0.00    +0.000 F 
ENDBRANCH   5   7
BRANCH   6  15
ATOM     15  N   UNL     1       3.584   3.390  19.144  0.00  0.00    +0.000 N 
ATOM     16  C   UNL     1       4.575   2.825  19.932  0.00  0.00    +0.000 A 
ATOM     17  C   UNL     1       4.581   1.457  19.757  0.00  0.00    +0.000 A 
ATOM     18  C   UNL     1       3.539   1.150  18.864  0.00  0.00    +0.000 A 
ATOM     19  C   UNL     1       2.928   2.339  18.529  0.00  0.00    +0.000 A 
ENDBRANCH   6  15
BRANCH   3  20
ATOM     20  C   UNL     1       1.758   8.041  19.680  0.00  0.00    +0.000 C 
ATOM     21  O   UNL     1       1.352   8.206  20.829  0.00  0.00    +0.000 OA
ATOM     22  N   UNL     1       1.472   8.962  18.674  0.00  0.00    +0.000 N 
ATOM     23  H   UNL     1       1.911   8.813  17.773  0.00  0.00    +0.000 HD
BRANCH  22  24
ATOM     24  C   UNL     1       0.696  10.159  18.983  0.00  0.00    +0.000 C 
ATOM     25  C   UNL     1      -0.668  10.232  18.283  0.00  0.00    +0.000 C 
ATOM     26  C   UNL     1      -1.473  11.415  18.839  0.00  0.00    +0.000 C 
ATOM     27  C   UNL     1      -0.719  12.744  18.739  0.00  0.00    +0.000 C 
ATOM     28  C   UNL     1       0.719  12.656  19.254  0.00  0.00    +0.000 C 
ATOM     29  C   UNL     1       1.469  11.451  18.687  0.00  0.00    +0.000 C 
ENDBRANCH  22  24
ENDBRANCH   3  20
TORSDOF 4
ENDMDL
MODEL 5
REMARK VINA RESULT:      -7.5      1.305      1.735
REMARK  Name = 
REMARK  5 active torsions:
REMARK  status: ('A' for Active; 'I' for Inactive)
REMARK    1  A    between atoms: C_1  and  C_2
REMARK    2  A    between atoms: C_3  and  C_4
REMARK    3  A    between atoms: N_6  and  C_7
REMARK    4  A    between atoms: N_14  and  C_15
REMARK    5  A    between atoms: C_23  and  N_24
REMARK                            x       y       z     vdW  Elec       q    Type
REMARK                         _______ _______ _______ _____ _____    ______ ____
ROOT
ATOM      1  C   UNL     1       1.483   5.694  19.735  0.00  0.00    +0.000 C 
ATOM      2  C   UNL     1       2.539   5.989  18.727  0.00  0.00    +0.000 A 
ATOM      3  C   UNL     1       2.870   7.267  18.148  0.00  0.00    +0.000 A 
ATOM      4  N   UNL     1       3.979   7.175  17.384  0.00  0.00    +0.000 NA
ATOM      5  N   UNL     1       4.246   5.836  17.308  0.00  0.00    +0.000 N 
ATOM      6  C   UNL     1       3.499   5.121  18.227  0.00  0.00    +0.000 A 
ENDROOT
BRANCH   5   7
ATOM      7  C   UNL     1       5.118   5.371  16.285  0.00  0.00    +0.000 A 
ATOM      8  C   UNL     1       4.596   4.612  15.226  0.00  0.00    +0.000 A 
ATOM      9  C   UNL     1       5.444   4.169  14.207  0.00  0.00    +0.000 A 
ATOM     10  C   UNL     1       6.802   4.468  14.255  0.00  0.00    +0.000 A 
ATOM     11  F   UNL     1       7.609   4.037  13.278  0.00  0.00    +0.000 F 
ATOM     12  C   UNL     1       7.339   5.190  15.310  0.00  0.00    +0.000 A 
ATOM     13  C   UNL     1       6.496   5.622  16.329  0.00  0.00    +0.000 A 
ATOM     14  F   UNL     1       7.065   6.217  17.386  0.00  0.00    +0.000 F 
ENDBRANCH   5   7
BRANCH   6  15
ATOM     15  N   UNL     1       3.732   3.787  18.589  0.00  0.00    +0.000 N 
ATOM     16  C   UNL     1       3.203   2.660  17.978  0.00  0.00    +0.000 A 
ATOM     17  C   UNL     1       3.624   1.531  18.648  0.00  0.00    +0.000 A 
ATOM     18  C   UNL     1       4.475   1.958  19.684  0.00  0.00    +0.000 A 
ATOM     19  C   UNL     1       4.548   3.331  19.608  0.00  0.00    +0.000 A 
ENDBRANCH   6  15
BRANCH   3  20
ATOM     20  C   UNL     1       2.153   8.552  18.349  0.00  0.00    +0.000 C 
ATOM     21  O   UNL     1       2.130   9.427  17.486  0.00  0.00    +0.000 OA
ATOM     22  N   UNL     1       1.520   8.733  19.578  0.00  0.00    +0.000 N 
ATOM     23  H   UNL     1       1.501   7.940  20.208  0.00  0.00    +0.000 HD
BRANCH  22  24
ATOM     24  C   UNL     1       0.796   9.971  19.847  0.00  0.00    +0.000 C 
ATOM     25  C   UNL     1       0.720  10.354  21.331  0.00  0.00    +0.000 C 
ATOM     26  C   UNL     1       0.124  11.763  21.472  0.00  0.00    +0.000 C 
ATOM     27  C   UNL     1      -1.238  11.901  20.786  0.00  0.00    +0.000 C 
ATOM     28  C   UNL     1      -1.249  11.347  19.360  0.00  0.00    +0.000 C 
ATOM     29  C   UNL     1      -0.627   9.953  19.272  0.00  0.00    +0.000 C 
ENDBRANCH  22  24
ENDBRANCH   3  20
TORSDOF 4
ENDMDL
MODEL 6
REMARK VINA RESULT:      -7.3      1.874      2.267
REMARK  Name = 
REMARK  5 active torsions:
REMARK  status: ('A' for Active; 'I' for Inactive)
REMARK    1  A    between atoms: C_1  and  C_2
REMARK    2  A    between atoms: C_3  and  C_4
REMARK    3  A    between atoms: N_6  and  C_7
REMARK    4  A    between atoms: N_14  and  C_15
REMARK    5  A    between atoms: C_23  and  N_24
REMARK                            x       y       z     vdW  Elec       q    Type
REMARK                         _______ _______ _______ _____ _____    ______ ____
ROOT
ATOM      1  C   UNL     1       1.090   5.003  20.457  0.00  0.00    +0.000 C 
ATOM      2  C   UNL     1       2.173   5.536  19.584  0.00  0.00    +0.000 A 
ATOM      3  C   UNL     1       2.413   6.909  19.218  0.00  0.00    +0.000 A 
ATOM      4  N   UNL     1       3.571   7.028  18.535  0.00  0.00    +0.000 NA
ATOM      5  N   UNL     1       3.971   5.742  18.290  0.00  0.00    +0.000 N 
ATOM      6  C   UNL     1       3.242   4.838  19.040  0.00  0.00    +0.000 A 
ENDROOT
BRANCH   5   7
ATOM      7  C   UNL     1       4.946   5.512  17.281  0.00  0.00    +0.000 A 
ATOM      8  C   UNL     1       6.163   6.209  17.325  0.00  0.00    +0.000 A 
ATOM      9  C   UNL     1       7.134   5.972  16.347  0.00  0.00    +0.000 A 
ATOM     10  C   UNL     1       6.882   5.060  15.327  0.00  0.00    +0.000 A 
ATOM     11  F   UNL     1       7.815   4.842  14.391  0.00  0.00    +0.000 F 
ATOM     12  C   UNL     1       5.673   4.387  15.251  0.00  0.00    +0.000 A 
ATOM     13  C   UNL     1       4.704   4.630  16.219  0.00  0.00    +0.000 A 
ATOM     14  F   UNL     1       3.509   4.049  16.051  0.00  0.00    +0.000 F 
ENDBRANCH   5   7
BRANCH   6  15
ATOM     15  N   UNL     1       3.580   3.490  19.227  0.00  0.00    +0.000 N 
ATOM     16  C   UNL     1       4.547   2.991  20.087  0.00  0.00    +0.000 A 
ATOM     17  C   UNL     1       4.621   1.621  19.954  0.00  0.00    +0.000 A 
ATOM     18  C   UNL     1       3.645   1.243  19.014  0.00  0.00    +0.000 A 
ATOM     19  C   UNL     1       3.005   2.394  18.609  0.00  0.00    +0.000 A 
ENDBRANCH   6  15
BRANCH   3  20
ATOM     20  C   UNL     1       1.564   8.082  19.544  0.00  0.00    +0.000 C 
ATOM     21  O   UNL     1       1.186   8.873  18.682  0.00  0.00    +0.000 OA
ATOM     22  N   UNL     1       1.229   8.262  20.886  0.00  0.00    +0.000 N 
ATOM     23  H   UNL     1       1.496   7.528  21.530  0.00  0.00    +0.000 HD
BRANCH  22  24
ATOM     24  C   UNL     1       0.397   9.394  21.281  0.00  0.00    +0.000 C 
ATOM     25  C   UNL     1       0.998  10.769  20.960  0.00  0.00    +0.000 C 
ATOM     26  C   UNL     1      -0.044  11.865  21.228  0.00  0.00    +0.000 C 
ATOM     27  C   UNL     1      -0.605  11.815  22.652  0.00  0.00    +0.000 C 
ATOM     28  C   UNL     1      -1.037  10.411  23.076  0.00  0.00    +0.000 C 
ATOM     29  C   UNL     1       0.026   9.355  22.770  0.00  0.00    +0.000 C 
ENDBRANCH  22  24
ENDBRANCH   3  20
TORSDOF 4
ENDMDL
MODEL 7
REMARK VINA RESULT:      -7.2      1.863      2.177
REMARK  Name = 
REMARK  5 active torsions:
REMARK  status: ('A' for Active; 'I' for Inactive)
REMARK    1  A    between atoms: C_1  and  C_2
REMARK    2  A    between atoms: C_3  and  C_4
REMARK    3  A    between atoms: N_6  and  C_7
REMARK    4  A    between atoms: N_14  and  C_15
REMARK    5  A    between atoms: C_23  and  N_24
REMARK                            x       y       z     vdW  Elec       q    Type
REMARK                         _______ _______ _______ _____ _____    ______ ____
ROOT
ATOM      1  C   UNL     1       1.198   4.800  20.641  0.00  0.00    +0.000 C 
ATOM      2  C   UNL     1       2.276   5.366  19.782  0.00  0.00    +0.000 A 
ATOM      3  C   UNL     1       2.562   6.755  19.530  0.00  0.00    +0.000 A 
ATOM      4  N   UNL     1       3.703   6.890  18.821  0.00  0.00    +0.000 NA
ATOM      5  N   UNL     1       4.042   5.617  18.452  0.00  0.00    +0.000 N 
ATOM      6  C   UNL     1       3.298   4.678  19.144  0.00  0.00    +0.000 A 
ENDROOT
BRANCH   5   7
ATOM      7  C   UNL     1       4.976   5.439  17.395  0.00  0.00    +0.000 A 
ATOM      8  C   UNL     1       6.201   6.122  17.434  0.00  0.00    +0.000 A 
ATOM      9  C   UNL     1       7.132   5.937  16.408  0.00  0.00    +0.000 A 
ATOM     10  C   UNL     1       6.833   5.090  15.345  0.00  0.00    +0.000 A 
ATOM     11  F   UNL     1       7.728   4.920  14.363  0.00  0.00    +0.000 F 
ATOM     12  C   UNL     1       5.615   4.432  15.275  0.00  0.00    +0.000 A 
ATOM     13  C   UNL     1       4.685   4.625  16.292  0.00  0.00    +0.000 A 
ATOM     14  F   UNL     1       3.479   4.064  16.135  0.00  0.00    +0.000 F 
ENDBRANCH   5   7
BRANCH   6  15
ATOM     15  N   UNL     1       3.586   3.307  19.200  0.00  0.00    +0.000 N 
ATOM     16  C   UNL     1       4.544   2.695  19.994  0.00  0.00    +0.000 A 
ATOM     17  C   UNL     1       4.562   1.341  19.736  0.00  0.00    +0.000 A 
ATOM     18  C   UNL     1       3.559   1.089  18.782  0.00  0.00    +0.000 A 
ATOM     19  C   UNL     1       2.959   2.295  18.495  0.00  0.00    +0.000 A 
ENDBRANCH   6  15
BRANCH   3  20
ATOM     20  C   UNL     1       1.772   7.928  19.985  0.00  0.00    +0.000 C 
ATOM     21  O   UNL     1       1.137   8.629  19.201  0.00  0.00    +0.000 OA
ATOM     22  N   UNL     1       1.800   8.213  21.350  0.00  0.00    +0.000 N 
ATOM     23  H   UNL     1       2.268   7.544  21.951  0.00  0.00    +0.000 HD
BRANCH  22  24
ATOM     24  C   UNL     1       1.048   9.349  21.871  0.00  0.00    +0.000 C 
ATOM     25  C   UNL     1      -0.329   8.992  22.446  0.00  0.00    +0.000 C 
ATOM     26  C   UNL     1      -0.933  10.219  23.145  0.00  0.00    +0.000 C 
ATOM     27  C   UNL     1      -1.007  11.445  22.230  0.00  0.00    +0.000 C 
ATOM     28  C   UNL     1       0.302  11.717  21.487  0.00  0.00    +0.000 C 
ATOM     29  C   UNL     1       0.871  10.461  20.827  0.00  0.00    +0.000 C 
ENDBRANCH  22  24
ENDBRANCH   3  20
TORSDOF 4
ENDMDL
MODEL 8
REMARK VINA RESULT:      -7.2      0.450      1.037
REMARK  Name = 
REMARK  5 active torsions:
REMARK  status: ('A' for Active; 'I' for Inactive)
REMARK    1  A    between atoms: C_1  and  C_2
REMARK    2  A    between atoms: C_3  and  C_4
REMARK    3  A    between atoms: N_6  and  C_7
REMARK    4  A    between atoms: N_14  and  C_15
REMARK    5  A    between atoms: C_23  and  N_24
REMARK                            x       y       z     vdW  Elec       q    Type
REMARK                         _______ _______ _______ _____ _____    ______ ____
ROOT
ATOM      1  C   UNL     1       1.242   5.233  20.124  0.00  0.00    +0.000 C 
ATOM      2  C   UNL     1       2.324   5.686  19.206  0.00  0.00    +0.000 A 
ATOM      3  C   UNL     1       2.624   7.035  18.798  0.00  0.00    +0.000 A 
ATOM      4  N   UNL     1       3.766   7.076  18.079  0.00  0.00    +0.000 NA
ATOM      5  N   UNL     1       4.091   5.766  17.857  0.00  0.00    +0.000 N 
ATOM      6  C   UNL     1       3.339   4.920  18.651  0.00  0.00    +0.000 A 
ENDROOT
BRANCH   5   7
ATOM      7  C   UNL     1       5.022   5.460  16.826  0.00  0.00    +0.000 A 
ATOM      8  C   UNL     1       4.605   4.697  15.725  0.00  0.00    +0.000 A 
ATOM      9  C   UNL     1       5.509   4.409  14.698  0.00  0.00    +0.000 A 
ATOM     10  C   UNL     1       6.821   4.865  14.781  0.00  0.00    +0.000 A 
ATOM     11  F   UNL     1       7.683   4.582  13.796  0.00  0.00    +0.000 F 
ATOM     12  C   UNL     1       7.257   5.593  15.877  0.00  0.00    +0.000 A 
ATOM     13  C   UNL     1       6.359   5.871  16.903  0.00  0.00    +0.000 A 
ATOM     14  F   UNL     1       6.843   6.476  17.995  0.00  0.00    +0.000 F 
ENDBRANCH   5   7
BRANCH   6  15
ATOM     15  N   UNL     1       3.612   3.561  18.862  0.00  0.00    +0.000 N 
ATOM     16  C   UNL     1       4.481   3.029  19.803  0.00  0.00    +0.000 A 
ATOM     17  C   UNL     1       4.518   1.657  19.674  0.00  0.00    +0.000 A 
ATOM     18  C   UNL     1       3.617   1.313  18.649  0.00  0.00    +0.000 A 
ATOM     19  C   UNL     1       3.056   2.486  18.193  0.00  0.00    +0.000 A 
ENDBRANCH   6  15
BRANCH   3  20
ATOM     20  C   UNL     1       1.847   8.259  19.118  0.00  0.00    +0.000 C 
ATOM     21  O   UNL     1       1.598   8.589  20.275  0.00  0.00    +0.000 OA
ATOM     22  N   UNL     1       1.391   9.014  18.038  0.00  0.00    +0.000 N 
ATOM     23  H   UNL     1       1.707   8.737  17.116  0.00  0.00    +0.000 HD
BRANCH  22  24
ATOM     24  C   UNL     1       0.620  10.230  18.275  0.00  0.00    +0.000 C 
ATOM     25  C   UNL     1       1.424  11.383  18.892  0.00  0.00    +0.000 C 
ATOM     26  C   UNL     1       0.572  12.661  18.902  0.00  0.00    +0.000 C 
ATOM     27  C   UNL     1      -0.772  12.471  19.610  0.00  0.00    +0.000 C 
ATOM     28  C   UNL     1      -1.517  11.216  19.155  0.00  0.00    +0.000 C 
ATOM     29  C   UNL     1      -0.620   9.977  19.143  0.00  0.00    +0.000 C 
ENDBRANCH  22  24
ENDBRANCH   3  20
TORSDOF 4
ENDMDL
MODEL 9
REMARK VINA RESULT:      -7.1      0.636      1.269
REMARK  Name = 
REMARK  5 active torsions:
REMARK  status: ('A' for Active; 'I' for Inactive)
REMARK    1  A    between atoms: C_1  and  C_2
REMARK    2  A    between atoms: C_3  and  C_4
REMARK    3  A    between atoms: N_6  and  C_7
REMARK    4  A    between atoms: N_14  and  C_15
REMARK    5  A    between atoms: C_23  and  N_24
REMARK                            x       y       z     vdW  Elec       q    Type
REMARK                         _______ _______ _______ _____ _____    ______ ____
ROOT
ATOM      1  C   UNL     1       1.228   4.838  20.493  0.00  0.00    +0.000 C 
ATOM      2  C   UNL     1       2.307   5.395  19.630  0.00  0.00    +0.000 A 
ATOM      3  C   UNL     1       2.595   6.782  19.367  0.00  0.00    +0.000 A 
ATOM      4  N   UNL     1       3.736   6.910  18.657  0.00  0.00    +0.000 NA
ATOM      5  N   UNL     1       4.073   5.633  18.298  0.00  0.00    +0.000 N 
ATOM      6  C   UNL     1       3.328   4.701  18.997  0.00  0.00    +0.000 A 
ENDROOT
BRANCH   5   7
ATOM      7  C   UNL     1       5.006   5.446  17.241  0.00  0.00    +0.000 A 
ATOM      8  C   UNL     1       4.582   4.851  16.044  0.00  0.00    +0.000 A 
ATOM      9  C   UNL     1       5.489   4.682  14.993  0.00  0.00    +0.000 A 
ATOM     10  C   UNL     1       6.811   5.088  15.147  0.00  0.00    +0.000 A 
ATOM     11  F   UNL     1       7.676   4.919  14.138  0.00  0.00    +0.000 F 
ATOM     12  C   UNL     1       7.254   5.649  16.335  0.00  0.00    +0.000 A 
ATOM     13  C   UNL     1       6.353   5.808  17.382  0.00  0.00    +0.000 A 
ATOM     14  F   UNL     1       6.840   6.247  18.550  0.00  0.00    +0.000 F 
ENDBRANCH   5   7
BRANCH   6  15
ATOM     15  N   UNL     1       3.613   3.330  19.064  0.00  0.00    +0.000 N 
ATOM     16  C   UNL     1       3.137   2.344  18.213  0.00  0.00    +0.000 A 
ATOM     17  C   UNL     1       3.599   1.113  18.628  0.00  0.00    +0.000 A 
ATOM     18  C   UNL     1       4.422   1.336  19.747  0.00  0.00    +0.000 A 
ATOM     19  C   UNL     1       4.439   2.695  19.973  0.00  0.00    +0.000 A 
ENDBRANCH   6  15
BRANCH   3  20
ATOM     20  C   UNL     1       1.807   7.959  19.813  0.00  0.00    +0.000 C 
ATOM     21  O   UNL     1       1.316   8.025  20.938  0.00  0.00    +0.000 OA
ATOM     22  N   UNL     1       1.629   8.985  18.886  0.00  0.00    +0.000 N 
ATOM     23  H   UNL     1       2.133   8.908  18.011  0.00  0.00    +0.000 HD
BRANCH  22  24
ATOM     24  C   UNL     1       0.865  10.173  19.254  0.00  0.00    +0.000 C 
ATOM     25  C   UNL     1       0.773  10.428  20.764  0.00  0.00    +0.000 C 
ATOM     26  C   UNL     1       0.133  11.800  21.020  0.00  0.00    +0.000 C 
ATOM     27  C   UNL     1      -1.230  11.954  20.340  0.00  0.00    +0.000 C 
ATOM     28  C   UNL     1      -1.219  11.522  18.873  0.00  0.00    +0.000 C 
ATOM     29  C   UNL     1      -0.554  10.160  18.670  0.00  0.00    +0.000 C 
ENDBRANCH  22  24
ENDBRANCH   3  20
TORSDOF 4
ENDMDL
