MODEL 1
REMARK VINA RESULT:      -7.8      0.000      0.000
REMARK  Name = 
REMARK  8 active torsions:
REMARK  status: ('A' for Active; 'I' for Inactive)
REMARK    1  A    between atoms: C_2  and  C_3
REMARK    2  A    between atoms: C_6  and  O_7
REMARK    3  A    between atoms: O_7  and  C_8
REMARK    4  A    between atoms: C_11  and  C_12
REMARK    5  A    between atoms: C_16  and  C_17
REMARK    6  A    between atoms: C_17  and  O_18
REMARK    7  A    between atoms: C_17  and  C_19
REMARK    8  A    between atoms: C_19  and  O_20
REMARK                            x       y       z     vdW  Elec       q    Type
REMARK                         _______ _______ _______ _____ _____    ______ ____
ROOT
ATOM      1  C   UNL     1       1.272   9.351  19.331  0.00  0.00    +0.000 A 
ATOM      2  C   UNL     1       1.871   9.338  18.073  0.00  0.00    +0.000 A 
ATOM      3  C   UNL     1       2.611   8.224  17.667  0.00  0.00    +0.000 A 
ATOM      4  C   UNL     1       2.779   7.107  18.508  0.00  0.00    +0.000 A 
ATOM      5  C   UNL     1       2.170   7.145  19.771  0.00  0.00    +0.000 A 
ATOM      6  C   UNL     1       1.451   8.264  20.188  0.00  0.00    +0.000 A 
ENDROOT
BRANCH   4   7
ATOM      7  C   UNL     1       3.570   5.937  18.091  0.00  0.00    +0.000 A 
ATOM      8  C   UNL     1       2.974   4.784  17.595  0.00  0.00    +0.000 A 
ATOM      9  C   UNL     1       3.771   3.696  17.264  0.00  0.00    +0.000 A 
ATOM     10  C   UNL     1       5.153   3.800  17.413  0.00  0.00    +0.000 A 
ATOM     11  C   UNL     1       5.700   4.989  17.891  0.00  0.00    +0.000 A 
ATOM     12  N   UNL     1       4.918   6.049  18.226  0.00  0.00    +0.000 NA
BRANCH  11  13
ATOM     13  C   UNL     1       7.210   5.124  18.069  0.00  0.00    +0.000 C 
BRANCH  13  14
ATOM     14  O   UNL     1       7.892   4.471  16.991  0.00  0.00    +0.000 OA
ATOM     15  H   UNL     1       8.844   4.509  17.193  0.00  0.00    +0.000 HD
ENDBRANCH  13  14
BRANCH  13  16
ATOM     16  C   UNL     1       7.696   6.588  18.150  0.00  0.00    +0.000 C 
BRANCH  16  17
ATOM     17  O   UNL     1       7.542   7.289  16.916  0.00  0.00    +0.000 OA
ATOM     18  H   UNL     1       7.077   6.668  16.317  0.00  0.00    +0.000 HD
ENDBRANCH  16  17
ENDBRANCH  13  16
ENDBRANCH  11  13
ENDBRANCH   4   7
BRANCH   1  19
ATOM     19  O   UNL     1       0.576  10.489  19.662  0.00  0.00    +0.000 OA
BRANCH  19  23
ATOM     20  C   UNL     1      -3.204  11.350  18.125  0.00  0.00    +0.000 A 
ATOM     21  C   UNL     1      -2.690  12.043  19.226  0.00  0.00    +0.000 A 
ATOM     22  C   UNL     1      -1.423  11.726  19.721  0.00  0.00    +0.000 A 
ATOM     23  C   UNL     1      -0.672  10.712  19.124  0.00  0.00    +0.000 A 
ATOM     24  C   UNL     1      -1.181  10.038  18.008  0.00  0.00    +0.000 A 
ATOM     25  C   UNL     1      -2.452  10.340  17.522  0.00  0.00    +0.000 A 
BRANCH  20  27
ATOM     26  N   UNL     1      -5.541  11.953  17.181  0.00  0.00    +0.000 NA
ATOM     27  C   UNL     1      -4.492  11.677  17.604  0.00  0.00    +0.000 C 
ENDBRANCH  20  27
ENDBRANCH  19  23
ENDBRANCH   1  19
TORSDOF 8
ENDMDL
MODEL 2
REMARK VINA RESULT:      -7.8      2.572      3.435
REMARK  Name = 
REMARK  8 active torsions:
REMARK  status: ('A' for Active; 'I' for Inactive)
REMARK    1  A    between atoms: C_2  and  C_3
REMARK    2  A    between atoms: C_6  and  O_7
REMARK    3  A    between atoms: O_7  and  C_8
REMARK    4  A    between atoms: C_11  and  C_12
REMARK    5  A    between atoms: C_16  and  C_17
REMARK    6  A    between atoms: C_17  and  O_18
REMARK    7  A    between atoms: C_17  and  C_19
REMARK    8  A    between atoms: C_19  and  O_20
REMARK                            x       y       z     vdW  Elec       q    Type
REMARK                         _______ _______ _______ _____ _____    ______ ____
ROOT
ATOM      1  C   UNL     1       1.267   9.754  18.834  0.00  0.00    +0.000 A 
ATOM      2  C   UNL     1       1.175   9.001  20.002  0.00  0.00    +0.000 A 
ATOM      3  C   UNL     1       1.853   7.783  20.101  0.00  0.00    +0.000 A 
ATOM      4  C   UNL     1       2.627   7.285  19.034  0.00  0.00    +0.000 A 
ATOM      5  C   UNL     1       2.701   8.059  17.866  0.00  0.00    +0.000 A 
ATOM      6  C   UNL     1       2.007   9.263  17.757  0.00  0.00    +0.000 A 
ENDROOT
BRANCH   4   7
ATOM      7  C   UNL     1       3.332   5.996  19.125  0.00  0.00    +0.000 A 
ATOM      8  C   UNL     1       4.543   5.771  18.482  0.00  0.00    +0.000 A 
ATOM      9  C   UNL     1       5.135   4.518  18.567  0.00  0.00    +0.000 A 
ATOM     10  C   UNL     1       4.511   3.525  19.321  0.00  0.00    +0.000 A 
ATOM     11  C   UNL     1       3.310   3.812  19.966  0.00  0.00    +0.000 A 
ATOM     12  N   UNL     1       2.725   5.035  19.872  0.00  0.00    +0.000 NA
BRANCH  11  13
ATOM     13  C   UNL     1       2.604   2.738  20.791  0.00  0.00    +0.000 C 
BRANCH  13  14
ATOM     14  O   UNL     1       2.523   3.147  22.163  0.00  0.00    +0.000 OA
ATOM     15  H   UNL     1       3.033   2.499  22.681  0.00  0.00    +0.000 HD
ENDBRANCH  13  14
BRANCH  13  16
ATOM     16  C   UNL     1       1.182   2.406  20.287  0.00  0.00    +0.000 C 
BRANCH  16  17
ATOM     17  O   UNL     1       0.322   3.545  20.271  0.00  0.00    +0.000 OA
ATOM     18  H   UNL     1      -0.552   3.218  20.571  0.00  0.00    +0.000 HD
ENDBRANCH  16  17
ENDBRANCH  13  16
ENDBRANCH  11  13
ENDBRANCH   4   7
BRANCH   1  19
ATOM     19  O   UNL     1       0.558  10.931  18.811  0.00  0.00    +0.000 OA
BRANCH  19  23
ATOM     20  C   UNL     1      -3.561  11.063  18.171  0.00  0.00    +0.000 A 
ATOM     21  C   UNL     1      -2.938  11.919  19.085  0.00  0.00    +0.000 A 
ATOM     22  C   UNL     1      -1.557  11.845  19.281  0.00  0.00    +0.000 A 
ATOM     23  C   UNL     1      -0.799  10.912  18.573  0.00  0.00    +0.000 A 
ATOM     24  C   UNL     1      -1.424  10.074  17.643  0.00  0.00    +0.000 A 
ATOM     25  C   UNL     1      -2.804  10.133  17.457  0.00  0.00    +0.000 A 
BRANCH  20  27
ATOM     26  N   UNL     1      -6.119  11.207  17.785  0.00  0.00    +0.000 NA
ATOM     27  C   UNL     1      -4.970  11.142  17.953  0.00  0.00    +0.000 C 
ENDBRANCH  20  27
ENDBRANCH  19  23
ENDBRANCH   1  19
TORSDOF 8
ENDMDL
MODEL 3
REMARK VINA RESULT:      -7.8      1.222      1.270
REMARK  Name = 
REMARK  8 active torsions:
REMARK  status: ('A' for Active; 'I' for Inactive)
REMARK    1  A    between atoms: C_2  and  C_3
REMARK    2  A    between atoms: C_6  and  O_7
REMARK    3  A    between atoms: O_7  and  C_8
REMARK    4  A    between atoms: C_11  and  C_12
REMARK    5  A    between atoms: C_16  and  C_17
REMARK    6  A    between atoms: C_17  and  O_18
REMARK    7  A    between atoms: C_17  and  C_19
REMARK    8  A    between atoms: C_19  and  O_20
REMARK                            x       y       z     vdW  Elec       q    Type
REMARK                         _______ _______ _______ _____ _____    ______ ____
ROOT
ATOM      1  C   UNL     1       1.203   9.597  18.904  0.00  0.00    +0.000 A 
ATOM      2  C   UNL     1       1.943   9.162  17.808  0.00  0.00    +0.000 A 
ATOM      3  C   UNL     1       2.636   7.950  17.874  0.00  0.00    +0.000 A 
ATOM      4  C   UNL     1       2.615   7.154  19.036  0.00  0.00    +0.000 A 
ATOM      5  C   UNL     1       1.865   7.616  20.129  0.00  0.00    +0.000 A 
ATOM      6  C   UNL     1       1.193   8.835  20.073  0.00  0.00    +0.000 A 
ENDROOT
BRANCH   4   7
ATOM      7  C   UNL     1       3.355   5.884  19.118  0.00  0.00    +0.000 A 
ATOM      8  C   UNL     1       2.781   4.729  19.636  0.00  0.00    +0.000 A 
ATOM      9  C   UNL     1       3.546   3.574  19.731  0.00  0.00    +0.000 A 
ATOM     10  C   UNL     1       4.864   3.596  19.276  0.00  0.00    +0.000 A 
ATOM     11  C   UNL     1       5.381   4.775  18.741  0.00  0.00    +0.000 A 
ATOM     12  N   UNL     1       4.636   5.908  18.661  0.00  0.00    +0.000 NA
BRANCH  11  13
ATOM     13  C   UNL     1       6.824   4.826  18.244  0.00  0.00    +0.000 C 
BRANCH  13  14
ATOM     14  O   UNL     1       6.852   5.178  16.854  0.00  0.00    +0.000 OA
ATOM     15  H   UNL     1       7.780   5.117  16.566  0.00  0.00    +0.000 HD
ENDBRANCH  13  14
BRANCH  13  16
ATOM     16  C   UNL     1       7.713   5.817  19.025  0.00  0.00    +0.000 C 
BRANCH  16  17
ATOM     17  O   UNL     1       7.864   5.459  20.399  0.00  0.00    +0.000 OA
ATOM     18  H   UNL     1       7.254   6.047  20.891  0.00  0.00    +0.000 HD
ENDBRANCH  16  17
ENDBRANCH  13  16
ENDBRANCH  11  13
ENDBRANCH   4   7
BRANCH   1  19
ATOM     19  O   UNL     1       0.564  10.807  18.765  0.00  0.00    +0.000 OA
BRANCH  19  23
ATOM     20  C   UNL     1      -3.545  11.113  18.125  0.00  0.00    +0.000 A 
ATOM     21  C   UNL     1      -2.885  11.949  19.031  0.00  0.00    +0.000 A 
ATOM     22  C   UNL     1      -1.509  11.816  19.228  0.00  0.00    +0.000 A 
ATOM     23  C   UNL     1      -0.792  10.845  18.528  0.00  0.00    +0.000 A 
ATOM     24  C   UNL     1      -1.454  10.027  17.605  0.00  0.00    +0.000 A 
ATOM     25  C   UNL     1      -2.830  10.145  17.419  0.00  0.00    +0.000 A 
BRANCH  20  27
ATOM     26  N   UNL     1      -6.095  11.366  17.738  0.00  0.00    +0.000 NA
ATOM     27  C   UNL     1      -4.950  11.251  17.907  0.00  0.00    +0.000 C 
ENDBRANCH  20  27
ENDBRANCH  19  23
ENDBRANCH   1  19
TORSDOF 8
ENDMDL
MODEL 4
REMARK VINA RESULT:      -7.7      2.606      3.450
REMARK  Name = 
REMARK  8 active torsions:
REMARK  status: ('A' for Active; 'I' for Inactive)
REMARK    1  A    between atoms: C_2  and  C_3
REMARK    2  A    between atoms: C_6  and  O_7
REMARK    3  A    between atoms: O_7  and  C_8
REMARK    4  A    between atoms: C_11  and  C_12
REMARK    5  A    between atoms: C_16  and  C_17
REMARK    6  A    between atoms: C_17  and  O_18
REMARK    7  A    between atoms: C_17  and  C_19
REMARK    8  A    between atoms: C_19  and  O_20
REMARK                            x       y       z     vdW  Elec       q    Type
REMARK                         _______ _______ _______ _____ _____    ______ ____
ROOT
ATOM      1  C   UNL     1       1.244   9.712  18.872  0.00  0.00    +0.000 A 
ATOM      2  C   UNL     1       2.003   9.256  17.797  0.00  0.00    +0.000 A 
ATOM      3  C   UNL     1       2.659   8.025  17.881  0.00  0.00    +0.000 A 
ATOM      4  C   UNL     1       2.582   7.229  19.041  0.00  0.00    +0.000 A 
ATOM      5  C   UNL     1       1.814   7.711  20.112  0.00  0.00    +0.000 A 
ATOM      6  C   UNL     1       1.178   8.949  20.039  0.00  0.00    +0.000 A 
ENDROOT
BRANCH   4   7
ATOM      7  C   UNL     1       3.283   5.938  19.142  0.00  0.00    +0.000 A 
ATOM      8  C   UNL     1       4.525   5.726  18.555  0.00  0.00    +0.000 A 
ATOM      9  C   UNL     1       5.113   4.471  18.644  0.00  0.00    +0.000 A 
ATOM     10  C   UNL     1       4.453   3.463  19.346  0.00  0.00    +0.000 A 
ATOM     11  C   UNL     1       3.221   3.738  19.937  0.00  0.00    +0.000 A 
ATOM     12  N   UNL     1       2.640   4.963  19.838  0.00  0.00    +0.000 NA
BRANCH  11  13
ATOM     13  C   UNL     1       2.477   2.649  20.704  0.00  0.00    +0.000 C 
BRANCH  13  14
ATOM     14  O   UNL     1       3.131   2.393  21.954  0.00  0.00    +0.000 OA
ATOM     15  H   UNL     1       2.832   3.078  22.576  0.00  0.00    +0.000 HD
ENDBRANCH  13  14
BRANCH  13  16
ATOM     16  C   UNL     1       0.996   2.988  20.981  0.00  0.00    +0.000 C 
BRANCH  16  17
ATOM     17  O   UNL     1       0.222   3.096  19.786  0.00  0.00    +0.000 OA
ATOM     18  H   UNL     1      -0.525   2.471  19.900  0.00  0.00    +0.000 HD
ENDBRANCH  16  17
ENDBRANCH  13  16
ENDBRANCH  11  13
ENDBRANCH   4   7
BRANCH   1  19
ATOM     19  O   UNL     1       0.644  10.938  18.717  0.00  0.00    +0.000 OA
BRANCH  19  23
ATOM     20  C   UNL     1      -3.496  11.003  18.227  0.00  0.00    +0.000 A 
ATOM     21  C   UNL     1      -2.695  10.090  17.534  0.00  0.00    +0.000 A 
ATOM     22  C   UNL     1      -1.310  10.098  17.715  0.00  0.00    +0.000 A 
ATOM     23  C   UNL     1      -0.724  11.023  18.580  0.00  0.00    +0.000 A 
ATOM     24  C   UNL     1      -1.533  11.919  19.289  0.00  0.00    +0.000 A 
ATOM     25  C   UNL     1      -2.913  11.924  19.098  0.00  0.00    +0.000 A 
BRANCH  20  27
ATOM     26  N   UNL     1      -6.071  10.987  17.931  0.00  0.00    +0.000 NA
ATOM     27  C   UNL     1      -4.915  10.992  18.059  0.00  0.00    +0.000 C 
ENDBRANCH  20  27
ENDBRANCH  19  23
ENDBRANCH   1  19
TORSDOF 8
ENDMDL
MODEL 5
REMARK VINA RESULT:      -7.7      1.987      2.619
REMARK  Name = 
REMARK  8 active torsions:
REMARK  status: ('A' for Active; 'I' for Inactive)
REMARK    1  A    between atoms: C_2  and  C_3
REMARK    2  A    between atoms: C_6  and  O_7
REMARK    3  A    between atoms: O_7  and  C_8
REMARK    4  A    between atoms: C_11  and  C_12
REMARK    5  A    between atoms: C_16  and  C_17
REMARK    6  A    between atoms: C_17  and  O_18
REMARK    7  A    between atoms: C_17  and  C_19
REMARK    8  A    between atoms: C_19  and  O_20
REMARK                            x       y       z     vdW  Elec       q    Type
REMARK                         _______ _______ _______ _____ _____    ______ ____
ROOT
ATOM      1  C   UNL     1       1.198   9.528  19.251  0.00  0.00    +0.000 A 
ATOM      2  C   UNL     1       1.364   8.424  20.084  0.00  0.00    +0.000 A 
ATOM      3  C   UNL     1       2.130   7.337  19.654  0.00  0.00    +0.000 A 
ATOM      4  C   UNL     1       2.736   7.322  18.383  0.00  0.00    +0.000 A 
ATOM      5  C   UNL     1       2.551   8.444  17.560  0.00  0.00    +0.000 A 
ATOM      6  C   UNL     1       1.769   9.519  17.977  0.00  0.00    +0.000 A 
ENDROOT
BRANCH   4   7
ATOM      7  C   UNL     1       3.531   6.174  17.918  0.00  0.00    +0.000 A 
ATOM      8  C   UNL     1       4.527   6.308  16.957  0.00  0.00    +0.000 A 
ATOM      9  C   UNL     1       5.210   5.178  16.525  0.00  0.00    +0.000 A 
ATOM     10  C   UNL     1       4.898   3.942  17.090  0.00  0.00    +0.000 A 
ATOM     11  C   UNL     1       3.909   3.869  18.069  0.00  0.00    +0.000 A 
ATOM     12  N   UNL     1       3.232   4.973  18.481  0.00  0.00    +0.000 NA
BRANCH  11  13
ATOM     13  C   UNL     1       3.545   2.526  18.695  0.00  0.00    +0.000 C 
BRANCH  13  14
ATOM     14  O   UNL     1       4.067   1.454  17.898  0.00  0.00    +0.000 OA
ATOM     15  H   UNL     1       4.115   0.671  18.474  0.00  0.00    +0.000 HD
ENDBRANCH  13  14
BRANCH  13  16
ATOM     16  C   UNL     1       4.054   2.360  20.144  0.00  0.00    +0.000 C 
BRANCH  16  17
ATOM     17  O   UNL     1       5.257   1.596  20.222  0.00  0.00    +0.000 OA
ATOM     18  H   UNL     1       5.615   1.575  19.310  0.00  0.00    +0.000 HD
ENDBRANCH  16  17
ENDBRANCH  13  16
ENDBRANCH  11  13
ENDBRANCH   4   7
BRANCH   1  19
ATOM     19  O   UNL     1       0.417  10.548  19.740  0.00  0.00    +0.000 OA
BRANCH  19  23
ATOM     20  C   UNL     1      -3.376  11.402  18.232  0.00  0.00    +0.000 A 
ATOM     21  C   UNL     1      -2.836  12.126  19.300  0.00  0.00    +0.000 A 
ATOM     22  C   UNL     1      -1.566  11.811  19.786  0.00  0.00    +0.000 A 
ATOM     23  C   UNL     1      -0.836  10.768  19.214  0.00  0.00    +0.000 A 
ATOM     24  C   UNL     1      -1.372  10.061  18.131  0.00  0.00    +0.000 A 
ATOM     25  C   UNL     1      -2.646  10.362  17.654  0.00  0.00    +0.000 A 
BRANCH  20  27
ATOM     26  N   UNL     1      -5.724  11.982  17.303  0.00  0.00    +0.000 NA
ATOM     27  C   UNL     1      -4.668  11.727  17.719  0.00  0.00    +0.000 C 
ENDBRANCH  20  27
ENDBRANCH  19  23
ENDBRANCH   1  19
TORSDOF 8
ENDMDL
MODEL 6
REMARK VINA RESULT:      -7.7      1.108      1.118
REMARK  Name = 
REMARK  8 active torsions:
REMARK  status: ('A' for Active; 'I' for Inactive)
REMARK    1  A    between atoms: C_2  and  C_3
REMARK    2  A    between atoms: C_6  and  O_7
REMARK    3  A    between atoms: O_7  and  C_8
REMARK    4  A    between atoms: C_11  and  C_12
REMARK    5  A    between atoms: C_16  and  C_17
REMARK    6  A    between atoms: C_17  and  O_18
REMARK    7  A    between atoms: C_17  and  C_19
REMARK    8  A    between atoms: C_19  and  O_20
REMARK                            x       y       z     vdW  Elec       q    Type
REMARK                         _______ _______ _______ _____ _____    ______ ____
ROOT
ATOM      1  C   UNL     1       1.101   9.659  18.946  0.00  0.00    +0.000 A 
ATOM      2  C   UNL     1       1.811   9.206  17.836  0.00  0.00    +0.000 A 
ATOM      3  C   UNL     1       2.497   7.990  17.898  0.00  0.00    +0.000 A 
ATOM      4  C   UNL     1       2.498   7.207  19.068  0.00  0.00    +0.000 A 
ATOM      5  C   UNL     1       1.779   7.684  20.174  0.00  0.00    +0.000 A 
ATOM      6  C   UNL     1       1.113   8.908  20.122  0.00  0.00    +0.000 A 
ENDROOT
BRANCH   4   7
ATOM      7  C   UNL     1       3.231   5.931  19.144  0.00  0.00    +0.000 A 
ATOM      8  C   UNL     1       2.739   4.840  19.850  0.00  0.00    +0.000 A 
ATOM      9  C   UNL     1       3.500   3.681  19.925  0.00  0.00    +0.000 A 
ATOM     10  C   UNL     1       4.726   3.633  19.265  0.00  0.00    +0.000 A 
ATOM     11  C   UNL     1       5.160   4.748  18.549  0.00  0.00    +0.000 A 
ATOM     12  N   UNL     1       4.421   5.886  18.488  0.00  0.00    +0.000 NA
BRANCH  11  13
ATOM     13  C   UNL     1       6.503   4.721  17.824  0.00  0.00    +0.000 C 
BRANCH  13  14
ATOM     14  O   UNL     1       6.434   3.841  16.695  0.00  0.00    +0.000 OA
ATOM     15  H   UNL     1       5.737   3.190  16.886  0.00  0.00    +0.000 HD
ENDBRANCH  13  14
BRANCH  13  16
ATOM     16  C   UNL     1       6.974   6.111  17.342  0.00  0.00    +0.000 C 
BRANCH  16  17
ATOM     17  O   UNL     1       7.493   6.087  16.013  0.00  0.00    +0.000 OA
ATOM     18  H   UNL     1       8.468   6.084  16.113  0.00  0.00    +0.000 HD
ENDBRANCH  16  17
ENDBRANCH  13  16
ENDBRANCH  11  13
ENDBRANCH   4   7
BRANCH   1  19
ATOM     19  O   UNL     1       0.467  10.871  18.810  0.00  0.00    +0.000 OA
BRANCH  19  23
ATOM     20  C   UNL     1      -3.642  11.197  18.183  0.00  0.00    +0.000 A 
ATOM     21  C   UNL     1      -2.977  12.023  19.095  0.00  0.00    +0.000 A 
ATOM     22  C   UNL     1      -1.600  11.884  19.287  0.00  0.00    +0.000 A 
ATOM     23  C   UNL     1      -0.889  10.916  18.577  0.00  0.00    +0.000 A 
ATOM     24  C   UNL     1      -1.556  10.108  17.649  0.00  0.00    +0.000 A 
ATOM     25  C   UNL     1      -2.932  10.233  17.467  0.00  0.00    +0.000 A 
BRANCH  20  27
ATOM     26  N   UNL     1      -6.192  11.451  17.797  0.00  0.00    +0.000 NA
ATOM     27  C   UNL     1      -5.047  11.342  17.970  0.00  0.00    +0.000 C 
ENDBRANCH  20  27
ENDBRANCH  19  23
ENDBRANCH   1  19
TORSDOF 8
ENDMDL
MODEL 7
REMARK VINA RESULT:      -7.7      1.253      1.615
REMARK  Name = 
REMARK  8 active torsions:
REMARK  status: ('A' for Active; 'I' for Inactive)
REMARK    1  A    between atoms: C_2  and  C_3
REMARK    2  A    between atoms: C_6  and  O_7
REMARK    3  A    between atoms: O_7  and  C_8
REMARK    4  A    between atoms: C_11  and  C_12
REMARK    5  A    between atoms: C_16  and  C_17
REMARK    6  A    between atoms: C_17  and  O_18
REMARK    7  A    between atoms: C_17  and  C_19
REMARK    8  A    between atoms: C_19  and  O_20
REMARK                            x       y       z     vdW  Elec       q    Type
REMARK                         _______ _______ _______ _____ _____    ______ ____
ROOT
ATOM      1  C   UNL     1       1.207   9.710  18.964  0.00  0.00    +0.000 A 
ATOM      2  C   UNL     1       1.145   8.972  20.144  0.00  0.00    +0.000 A 
ATOM      3  C   UNL     1       1.792   7.735  20.226  0.00  0.00    +0.000 A 
ATOM      4  C   UNL     1       2.505   7.206  19.133  0.00  0.00    +0.000 A 
ATOM      5  C   UNL     1       2.551   7.966  17.954  0.00  0.00    +0.000 A 
ATOM      6  C   UNL     1       1.887   9.188  17.862  0.00  0.00    +0.000 A 
ENDROOT
BRANCH   4   7
ATOM      7  C   UNL     1       3.176   5.898  19.208  0.00  0.00    +0.000 A 
ATOM      8  C   UNL     1       2.621   4.822  19.891  0.00  0.00    +0.000 A 
ATOM      9  C   UNL     1       3.326   3.628  19.966  0.00  0.00    +0.000 A 
ATOM     10  C   UNL     1       4.563   3.531  19.329  0.00  0.00    +0.000 A 
ATOM     11  C   UNL     1       5.061   4.633  18.637  0.00  0.00    +0.000 A 
ATOM     12  N   UNL     1       4.376   5.805  18.574  0.00  0.00    +0.000 NA
BRANCH  11  13
ATOM     13  C   UNL     1       6.416   4.553  17.938  0.00  0.00    +0.000 C 
BRANCH  13  14
ATOM     14  O   UNL     1       6.291   4.979  16.575  0.00  0.00    +0.000 OA
ATOM     15  H   UNL     1       5.656   4.378  16.148  0.00  0.00    +0.000 HD
ENDBRANCH  13  14
BRANCH  13  16
ATOM     16  C   UNL     1       7.516   5.395  18.622  0.00  0.00    +0.000 C 
BRANCH  16  17
ATOM     17  O   UNL     1       7.323   5.515  20.031  0.00  0.00    +0.000 OA
ATOM     18  H   UNL     1       6.993   4.640  20.327  0.00  0.00    +0.000 HD
ENDBRANCH  16  17
ENDBRANCH  13  16
ENDBRANCH  11  13
ENDBRANCH   4   7
BRANCH   1  19
ATOM     19  O   UNL     1       0.531  10.906  18.959  0.00  0.00    +0.000 OA
BRANCH  19  23
ATOM     20  C   UNL     1      -3.555  11.178  18.174  0.00  0.00    +0.000 A 
ATOM     21  C   UNL     1      -2.939  12.002  19.121  0.00  0.00    +0.000 A 
ATOM     22  C   UNL     1      -1.570  11.882  19.366  0.00  0.00    +0.000 A 
ATOM     23  C   UNL     1      -0.816  10.934  18.672  0.00  0.00    +0.000 A 
ATOM     24  C   UNL     1      -1.433  10.128  17.709  0.00  0.00    +0.000 A 
ATOM     25  C   UNL     1      -2.803  10.234  17.474  0.00  0.00    +0.000 A 
BRANCH  20  27
ATOM     26  N   UNL     1      -6.093  11.402  17.697  0.00  0.00    +0.000 NA
ATOM     27  C   UNL     1      -4.953  11.305  17.907  0.00  0.00    +0.000 C 
ENDBRANCH  20  27
ENDBRANCH  19  23
ENDBRANCH   1  19
TORSDOF 8
ENDMDL
MODEL 8
REMARK VINA RESULT:      -7.7      2.597      3.281
REMARK  Name = 
REMARK  8 active torsions:
REMARK  status: ('A' for Active; 'I' for Inactive)
REMARK    1  A    between atoms: C_2  and  C_3
REMARK    2  A    between atoms: C_6  and  O_7
REMARK    3  A    between atoms: O_7  and  C_8
REMARK    4  A    between atoms: C_11  and  C_12
REMARK    5  A    between atoms: C_16  and  C_17
REMARK    6  A    between atoms: C_17  and  O_18
REMARK    7  A    between atoms: C_17  and  C_19
REMARK    8  A    between atoms: C_19  and  O_20
REMARK                            x       y       z     vdW  Elec       q    Type
REMARK                         _______ _______ _______ _____ _____    ______ ____
ROOT
ATOM      1  C   UNL     1       1.083   9.722  18.891  0.00  0.00    +0.000 A 
ATOM      2  C   UNL     1       1.828   9.282  17.800  0.00  0.00    +0.000 A 
ATOM      3  C   UNL     1       2.541   8.082  17.883  0.00  0.00    +0.000 A 
ATOM      4  C   UNL     1       2.534   7.304  19.057  0.00  0.00    +0.000 A 
ATOM      5  C   UNL     1       1.779   7.770  20.144  0.00  0.00    +0.000 A 
ATOM      6  C   UNL     1       1.087   8.977  20.071  0.00  0.00    +0.000 A 
ENDROOT
BRANCH   4   7
ATOM      7  C   UNL     1       3.293   6.046  19.156  0.00  0.00    +0.000 A 
ATOM      8  C   UNL     1       4.551   5.898  18.583  0.00  0.00    +0.000 A 
ATOM      9  C   UNL     1       5.197   4.672  18.670  0.00  0.00    +0.000 A 
ATOM     10  C   UNL     1       4.577   3.628  19.356  0.00  0.00    +0.000 A 
ATOM     11  C   UNL     1       3.327   3.839  19.934  0.00  0.00    +0.000 A 
ATOM     12  N   UNL     1       2.690   5.036  19.838  0.00  0.00    +0.000 NA
BRANCH  11  13
ATOM     13  C   UNL     1       2.625   2.709  20.684  0.00  0.00    +0.000 C 
BRANCH  13  14
ATOM     14  O   UNL     1       2.332   3.118  22.026  0.00  0.00    +0.000 OA
ATOM     15  H   UNL     1       1.783   2.419  22.422  0.00  0.00    +0.000 HD
ENDBRANCH  13  14
BRANCH  13  16
ATOM     16  C   UNL     1       1.317   2.239  20.012  0.00  0.00    +0.000 C 
BRANCH  16  17
ATOM     17  O   UNL     1       1.544   1.549  18.783  0.00  0.00    +0.000 OA
ATOM     18  H   UNL     1       0.954   1.977  18.128  0.00  0.00    +0.000 HD
ENDBRANCH  16  17
ENDBRANCH  13  16
ENDBRANCH  11  13
ENDBRANCH   4   7
BRANCH   1  19
ATOM     19  O   UNL     1       0.426  10.919  18.735  0.00  0.00    +0.000 OA
BRANCH  19  23
ATOM     20  C   UNL     1      -3.698  11.153  18.160  0.00  0.00    +0.000 A 
ATOM     21  C   UNL     1      -3.039  11.997  19.060  0.00  0.00    +0.000 A 
ATOM     22  C   UNL     1      -1.658  11.889  19.235  0.00  0.00    +0.000 A 
ATOM     23  C   UNL     1      -0.935  10.933  18.519  0.00  0.00    +0.000 A 
ATOM     24  C   UNL     1      -1.596  10.107  17.603  0.00  0.00    +0.000 A 
ATOM     25  C   UNL     1      -2.976  10.200  17.439  0.00  0.00    +0.000 A 
BRANCH  20  27
ATOM     26  N   UNL     1      -6.258  11.349  17.807  0.00  0.00    +0.000 NA
ATOM     27  C   UNL     1      -5.108  11.266  17.964  0.00  0.00    +0.000 C 
ENDBRANCH  20  27
ENDBRANCH  19  23
ENDBRANCH   1  19
TORSDOF 8
ENDMDL
MODEL 9
REMARK VINA RESULT:      -7.6      2.302      3.135
REMARK  Name = 
REMARK  8 active torsions:
REMARK  status: ('A' for Active; 'I' for Inactive)
REMARK    1  A    between atoms: C_2  and  C_3
REMARK    2  A    between atoms: C_6  and  O_7
REMARK    3  A    between atoms: O_7  and  C_8
REMARK    4  A    between atoms: C_11  and  C_12
REMARK    5  A    between atoms: C_16  and  C_17
REMARK    6  A    between atoms: C_17  and  O_18
REMARK    7  A    between atoms: C_17  and  C_19
REMARK    8  A    between atoms: C_19  and  O_20
REMARK                            x       y       z     vdW  Elec       q    Type
REMARK                         _______ _______ _______ _____ _____    ______ ____
ROOT
ATOM      1  C   UNL     1       1.159   9.641  18.963  0.00  0.00    +0.000 A 
ATOM      2  C   UNL     1       1.870   9.243  17.833  0.00  0.00    +0.000 A 
ATOM      3  C   UNL     1       2.558   8.026  17.837  0.00  0.00    +0.000 A 
ATOM      4  C   UNL     1       2.561   7.188  18.969  0.00  0.00    +0.000 A 
ATOM      5  C   UNL     1       1.840   7.612  20.096  0.00  0.00    +0.000 A 
ATOM      6  C   UNL     1       1.173   8.836  20.103  0.00  0.00    +0.000 A 
ENDROOT
BRANCH   4   7
ATOM      7  C   UNL     1       3.295   5.912  18.985  0.00  0.00    +0.000 A 
ATOM      8  C   UNL     1       4.674   5.858  19.150  0.00  0.00    +0.000 A 
ATOM      9  C   UNL     1       5.315   4.627  19.107  0.00  0.00    +0.000 A 
ATOM     10  C   UNL     1       4.553   3.473  18.930  0.00  0.00    +0.000 A 
ATOM     11  C   UNL     1       3.170   3.583  18.795  0.00  0.00    +0.000 A 
ATOM     12  N   UNL     1       2.545   4.789  18.824  0.00  0.00    +0.000 NA
BRANCH  11  13
ATOM     13  C   UNL     1       2.315   2.335  18.592  0.00  0.00    +0.000 C 
BRANCH  13  14
ATOM     14  O   UNL     1       3.157   1.189  18.402  0.00  0.00    +0.000 OA
ATOM     15  H   UNL     1       2.796   0.696  17.645  0.00  0.00    +0.000 HD
ENDBRANCH  13  14
BRANCH  13  16
ATOM     16  C   UNL     1       1.346   2.051  19.760  0.00  0.00    +0.000 C 
BRANCH  16  17
ATOM     17  O   UNL     1       0.477   3.148  20.035  0.00  0.00    +0.000 OA
ATOM     18  H   UNL     1       0.412   3.193  21.012  0.00  0.00    +0.000 HD
ENDBRANCH  16  17
ENDBRANCH  13  16
ENDBRANCH  11  13
ENDBRANCH   4   7
BRANCH   1  19
ATOM     19  O   UNL     1       0.524  10.858  18.884  0.00  0.00    +0.000 OA
BRANCH  19  23
ATOM     20  C   UNL     1      -3.573  11.212  18.194  0.00  0.00    +0.000 A 
ATOM     21  C   UNL     1      -2.919  12.021  19.130  0.00  0.00    +0.000 A 
ATOM     22  C   UNL     1      -1.547  11.872  19.343  0.00  0.00    +0.000 A 
ATOM     23  C   UNL     1      -0.828  10.912  18.629  0.00  0.00    +0.000 A 
ATOM     24  C   UNL     1      -1.483  10.123  17.677  0.00  0.00    +0.000 A 
ATOM     25  C   UNL     1      -2.855  10.256  17.475  0.00  0.00    +0.000 A 
BRANCH  20  27
ATOM     26  N   UNL     1      -6.114  11.485  17.763  0.00  0.00    +0.000 NA
ATOM     27  C   UNL     1      -4.973  11.367  17.960  0.00  0.00    +0.000 C 
ENDBRANCH  20  27
ENDBRANCH  19  23
ENDBRANCH   1  19
TORSDOF 8
ENDMDL
