MODEL 1
REMARK VINA RESULT:      -6.6      0.000      0.000
REMARK  Name = 
REMARK  6 active torsions:
REMARK  status: ('A' for Active; 'I' for Inactive)
REMARK    1  A    between atoms: C_1  and  O_2
REMARK    2  A    between atoms: O_2  and  C_3
REMARK    3  A    between atoms: C_3  and  C_5
REMARK    4  A    between atoms: C_7  and  C_8
REMARK    5  A    between atoms: C_10  and  N_11
REMARK    6  A    between atoms: C_12  and  C_14
REMARK                            x       y       z     vdW  Elec       q    Type
REMARK                         _______ _______ _______ _____ _____    ______ ____
ROOT
ATOM      1  C   UNL     1       5.937   4.855  18.219  0.00  0.00    +0.000 A 
ATOM      2  C   UNL     1       5.199   5.086  19.436  0.00  0.00    +0.000 A 
ATOM      3  C   UNL     1       3.835   4.954  19.281  0.00  0.00    +0.000 A 
ATOM      4  C   UNL     1       2.769   5.113  20.308  0.00  0.00    +0.000 C 
ATOM      5  S   UNL     1       3.430   4.591  17.661  0.00  0.00    +0.000 S 
ATOM      6  C   UNL     1       5.068   4.470  17.217  0.00  0.00    +0.000 A 
ENDROOT
BRANCH   6   7
ATOM      7  N   UNL     1       5.248   4.010  15.933  0.00  0.00    +0.000 N 
ATOM      8  C   UNL     1       5.559   4.869  14.890  0.00  0.00    +0.000 C 
ATOM      9  O   UNL     1       5.727   6.080  15.015  0.00  0.00    +0.000 OA
ATOM     10  H   UNL     1       5.506   3.040  15.803  0.00  0.00    +0.000 HD
BRANCH   8  11
ATOM     11  C   UNL     1       5.785   4.178  13.635  0.00  0.00    +0.000 A 
ATOM     12  C   UNL     1       4.948   3.395  12.861  0.00  0.00    +0.000 A 
ATOM     13  C   UNL     1       5.705   2.961  11.747  0.00  0.00    +0.000 A 
ATOM     14  C   UNL     1       6.958   3.504  11.900  0.00  0.00    +0.000 A 
ATOM     15  O   UNL     1       7.016   4.258  13.029  0.00  0.00    +0.000 OA
ENDBRANCH   8  11
ENDBRANCH   6   7
BRANCH   1  16
ATOM     16  C   UNL     1       7.374   5.073  18.054  0.00  0.00    +0.000 C 
ATOM     17  O   UNL     1       8.101   4.361  17.371  0.00  0.00    +0.000 OA
BRANCH  16  19
ATOM     18  C   UNL     1       7.702   7.383  17.826  0.00  0.00    +0.000 C 
ATOM     19  O   UNL     1       7.785   6.228  18.660  0.00  0.00    +0.000 OA
ENDBRANCH  16  19
ENDBRANCH   1  16
TORSDOF 4
ENDMDL
MODEL 2
REMARK VINA RESULT:      -6.6      0.952      1.204
REMARK  Name = 
REMARK  6 active torsions:
REMARK  status: ('A' for Active; 'I' for Inactive)
REMARK    1  A    between atoms: C_1  and  O_2
REMARK    2  A    between atoms: O_2  and  C_3
REMARK    3  A    between atoms: C_3  and  C_5
REMARK    4  A    between atoms: C_7  and  C_8
REMARK    5  A    between atoms: C_10  and  N_11
REMARK    6  A    between atoms: C_12  and  C_14
REMARK                            x       y       z     vdW  Elec       q    Type
REMARK                         _______ _______ _______ _____ _____    ______ ____
ROOT
ATOM      1  C   UNL     1       5.368   5.045  18.770  0.00  0.00    +0.000 A 
ATOM      2  C   UNL     1       4.329   5.042  19.770  0.00  0.00    +0.000 A 
ATOM      3  C   UNL     1       3.084   4.737  19.264  0.00  0.00    +0.000 A 
ATOM      4  C   UNL     1       1.790   4.636  19.992  0.00  0.00    +0.000 C 
ATOM      5  S   UNL     1       3.149   4.492  17.573  0.00  0.00    +0.000 S 
ATOM      6  C   UNL     1       4.842   4.649  17.556  0.00  0.00    +0.000 A 
ENDROOT
BRANCH   6   7
ATOM      7  N   UNL     1       5.401   4.355  16.333  0.00  0.00    +0.000 N 
ATOM      8  C   UNL     1       5.511   5.312  15.336  0.00  0.00    +0.000 C 
ATOM      9  O   UNL     1       5.157   6.483  15.456  0.00  0.00    +0.000 OA
ATOM     10  H   UNL     1       6.043   3.575  16.274  0.00  0.00    +0.000 HD
BRANCH   8  11
ATOM     11  C   UNL     1       6.198   4.825  14.156  0.00  0.00    +0.000 A 
ATOM     12  C   UNL     1       5.900   3.790  13.289  0.00  0.00    +0.000 A 
ATOM     13  C   UNL     1       6.932   3.753  12.321  0.00  0.00    +0.000 A 
ATOM     14  C   UNL     1       7.799   4.767  12.648  0.00  0.00    +0.000 A 
ATOM     15  O   UNL     1       7.359   5.436  13.746  0.00  0.00    +0.000 OA
ENDBRANCH   8  11
ENDBRANCH   6   7
BRANCH   1  16
ATOM     16  C   UNL     1       6.747   5.479  18.994  0.00  0.00    +0.000 C 
ATOM     17  O   UNL     1       7.316   5.420  20.078  0.00  0.00    +0.000 OA
BRANCH  16  19
ATOM     18  C   UNL     1       7.745   7.222  17.787  0.00  0.00    +0.000 C 
ATOM     19  O   UNL     1       7.358   5.850  17.828  0.00  0.00    +0.000 OA
ENDBRANCH  16  19
ENDBRANCH   1  16
TORSDOF 4
ENDMDL
MODEL 3
REMARK VINA RESULT:      -6.4      2.709      4.113
REMARK  Name = 
REMARK  6 active torsions:
REMARK  status: ('A' for Active; 'I' for Inactive)
REMARK    1  A    between atoms: C_1  and  O_2
REMARK    2  A    between atoms: O_2  and  C_3
REMARK    3  A    between atoms: C_3  and  C_5
REMARK    4  A    between atoms: C_7  and  C_8
REMARK    5  A    between atoms: C_10  and  N_11
REMARK    6  A    between atoms: C_12  and  C_14
REMARK                            x       y       z     vdW  Elec       q    Type
REMARK                         _______ _______ _______ _____ _____    ______ ____
ROOT
ATOM      1  C   UNL     1       2.486   5.551  19.705  0.00  0.00    +0.000 A 
ATOM      2  C   UNL     1       1.898   4.912  20.856  0.00  0.00    +0.000 A 
ATOM      3  C   UNL     1       1.944   3.535  20.799  0.00  0.00    +0.000 A 
ATOM      4  C   UNL     1       1.444   2.552  21.798  0.00  0.00    +0.000 C 
ATOM      5  S   UNL     1       2.657   3.001  19.340  0.00  0.00    +0.000 S 
ATOM      6  C   UNL     1       3.028   4.593  18.871  0.00  0.00    +0.000 A 
ENDROOT
BRANCH   6   7
ATOM      7  N   UNL     1       3.804   4.656  17.736  0.00  0.00    +0.000 N 
ATOM      8  C   UNL     1       5.178   4.476  17.784  0.00  0.00    +0.000 C 
ATOM      9  O   UNL     1       5.809   4.222  18.808  0.00  0.00    +0.000 OA
ATOM     10  H   UNL     1       3.363   4.477  16.843  0.00  0.00    +0.000 HD
BRANCH   8  11
ATOM     11  C   UNL     1       5.799   4.501  16.474  0.00  0.00    +0.000 A 
ATOM     12  C   UNL     1       7.074   4.860  16.076  0.00  0.00    +0.000 A 
ATOM     13  C   UNL     1       7.123   4.708  14.669  0.00  0.00    +0.000 A 
ATOM     14  C   UNL     1       5.880   4.263  14.288  0.00  0.00    +0.000 A 
ATOM     15  O   UNL     1       5.074   4.116  15.372  0.00  0.00    +0.000 OA
ENDBRANCH   8  11
ENDBRANCH   6   7
BRANCH   1  16
ATOM     16  C   UNL     1       2.443   6.987  19.429  0.00  0.00    +0.000 C 
ATOM     17  O   UNL     1       2.831   7.495  18.383  0.00  0.00    +0.000 OA
BRANCH  16  19
ATOM     18  C   UNL     1       1.262   8.925  20.012  0.00  0.00    +0.000 C 
ATOM     19  O   UNL     1       1.814   7.677  20.428  0.00  0.00    +0.000 OA
ENDBRANCH  16  19
ENDBRANCH   1  16
TORSDOF 4
ENDMDL
MODEL 4
REMARK VINA RESULT:      -6.4      2.636      3.957
REMARK  Name = 
REMARK  6 active torsions:
REMARK  status: ('A' for Active; 'I' for Inactive)
REMARK    1  A    between atoms: C_1  and  O_2
REMARK    2  A    between atoms: O_2  and  C_3
REMARK    3  A    between atoms: C_3  and  C_5
REMARK    4  A    between atoms: C_7  and  C_8
REMARK    5  A    between atoms: C_10  and  N_11
REMARK    6  A    between atoms: C_12  and  C_14
REMARK                            x       y       z     vdW  Elec       q    Type
REMARK                         _______ _______ _______ _____ _____    ______ ____
ROOT
ATOM      1  C   UNL     1       2.462   5.510  19.779  0.00  0.00    +0.000 A 
ATOM      2  C   UNL     1       1.902   4.851  20.934  0.00  0.00    +0.000 A 
ATOM      3  C   UNL     1       1.963   3.476  20.861  0.00  0.00    +0.000 A 
ATOM      4  C   UNL     1       1.493   2.476  21.859  0.00  0.00    +0.000 C 
ATOM      5  S   UNL     1       2.656   2.966  19.384  0.00  0.00    +0.000 S 
ATOM      6  C   UNL     1       2.999   4.567  18.925  0.00  0.00    +0.000 A 
ENDROOT
BRANCH   6   7
ATOM      7  N   UNL     1       3.754   4.651  17.777  0.00  0.00    +0.000 N 
ATOM      8  C   UNL     1       5.132   4.498  17.800  0.00  0.00    +0.000 C 
ATOM      9  O   UNL     1       5.786   4.252  18.811  0.00  0.00    +0.000 OA
ATOM     10  H   UNL     1       3.300   4.468  16.891  0.00  0.00    +0.000 HD
BRANCH   8  11
ATOM     11  C   UNL     1       5.728   4.542  16.479  0.00  0.00    +0.000 A 
ATOM     12  C   UNL     1       5.204   4.258  15.231  0.00  0.00    +0.000 A 
ATOM     13  C   UNL     1       6.245   4.455  14.293  0.00  0.00    +0.000 A 
ATOM     14  C   UNL     1       7.344   4.851  15.017  0.00  0.00    +0.000 A 
ATOM     15  O   UNL     1       7.041   4.926  16.339  0.00  0.00    +0.000 OA
ENDBRANCH   8  11
ENDBRANCH   6   7
BRANCH   1  16
ATOM     16  C   UNL     1       2.396   6.947  19.519  0.00  0.00    +0.000 C 
ATOM     17  O   UNL     1       1.977   7.771  20.326  0.00  0.00    +0.000 OA
BRANCH  16  19
ATOM     18  C   UNL     1       2.418   8.449  17.720  0.00  0.00    +0.000 C 
ATOM     19  O   UNL     1       2.961   7.273  18.318  0.00  0.00    +0.000 OA
ENDBRANCH  16  19
ENDBRANCH   1  16
TORSDOF 4
ENDMDL
MODEL 5
REMARK VINA RESULT:      -6.3      2.171      5.575
REMARK  Name = 
REMARK  6 active torsions:
REMARK  status: ('A' for Active; 'I' for Inactive)
REMARK    1  A    between atoms: C_1  and  O_2
REMARK    2  A    between atoms: O_2  and  C_3
REMARK    3  A    between atoms: C_3  and  C_5
REMARK    4  A    between atoms: C_7  and  C_8
REMARK    5  A    between atoms: C_10  and  N_11
REMARK    6  A    between atoms: C_12  and  C_14
REMARK                            x       y       z     vdW  Elec       q    Type
REMARK                         _______ _______ _______ _____ _____    ______ ____
ROOT
ATOM      1  C   UNL     1       6.652   5.414  16.599  0.00  0.00    +0.000 A 
ATOM      2  C   UNL     1       6.947   5.354  15.189  0.00  0.00    +0.000 A 
ATOM      3  C   UNL     1       6.365   4.277  14.555  0.00  0.00    +0.000 A 
ATOM      4  C   UNL     1       6.443   3.898  13.118  0.00  0.00    +0.000 C 
ATOM      5  S   UNL     1       5.493   3.307  15.661  0.00  0.00    +0.000 S 
ATOM      6  C   UNL     1       5.775   4.401  16.932  0.00  0.00    +0.000 A 
ENDROOT
BRANCH   6   7
ATOM      7  N   UNL     1       5.081   4.088  18.079  0.00  0.00    +0.000 N 
ATOM      8  C   UNL     1       3.877   4.701  18.390  0.00  0.00    +0.000 C 
ATOM      9  O   UNL     1       3.318   5.534  17.679  0.00  0.00    +0.000 OA
ATOM     10  H   UNL     1       5.245   3.187  18.508  0.00  0.00    +0.000 HD
BRANCH   8  11
ATOM     11  C   UNL     1       3.269   4.176  19.597  0.00  0.00    +0.000 A 
ATOM     12  C   UNL     1       2.364   4.736  20.481  0.00  0.00    +0.000 A 
ATOM     13  C   UNL     1       2.132   3.776  21.494  0.00  0.00    +0.000 A 
ATOM     14  C   UNL     1       2.903   2.685  21.173  0.00  0.00    +0.000 A 
ATOM     15  O   UNL     1       3.582   2.906  20.017  0.00  0.00    +0.000 OA
ENDBRANCH   8  11
ENDBRANCH   6   7
BRANCH   1  16
ATOM     16  C   UNL     1       7.255   6.356  17.543  0.00  0.00    +0.000 C 
ATOM     17  O   UNL     1       7.542   6.075  18.701  0.00  0.00    +0.000 OA
BRANCH  16  19
ATOM     18  C   UNL     1       8.028   8.547  17.850  0.00  0.00    +0.000 C 
ATOM     19  O   UNL     1       7.562   7.546  16.945  0.00  0.00    +0.000 OA
ENDBRANCH  16  19
ENDBRANCH   1  16
TORSDOF 4
ENDMDL
MODEL 6
REMARK VINA RESULT:      -6.3      1.317      1.548
REMARK  Name = 
REMARK  6 active torsions:
REMARK  status: ('A' for Active; 'I' for Inactive)
REMARK    1  A    between atoms: C_1  and  O_2
REMARK    2  A    between atoms: O_2  and  C_3
REMARK    3  A    between atoms: C_3  and  C_5
REMARK    4  A    between atoms: C_7  and  C_8
REMARK    5  A    between atoms: C_10  and  N_11
REMARK    6  A    between atoms: C_12  and  C_14
REMARK                            x       y       z     vdW  Elec       q    Type
REMARK                         _______ _______ _______ _____ _____    ______ ____
ROOT
ATOM      1  C   UNL     1       5.680   5.391  18.751  0.00  0.00    +0.000 A 
ATOM      2  C   UNL     1       4.606   5.194  19.693  0.00  0.00    +0.000 A 
ATOM      3  C   UNL     1       3.366   5.108  19.098  0.00  0.00    +0.000 A 
ATOM      4  C   UNL     1       2.041   4.904  19.746  0.00  0.00    +0.000 C 
ATOM      5  S   UNL     1       3.480   5.305  17.403  0.00  0.00    +0.000 S 
ATOM      6  C   UNL     1       5.178   5.355  17.465  0.00  0.00    +0.000 A 
ENDROOT
BRANCH   6   7
ATOM      7  N   UNL     1       5.766   5.353  16.220  0.00  0.00    +0.000 N 
ATOM      8  C   UNL     1       6.053   4.172  15.554  0.00  0.00    +0.000 C 
ATOM      9  O   UNL     1       5.794   3.051  15.985  0.00  0.00    +0.000 OA
ATOM     10  H   UNL     1       5.665   6.178  15.642  0.00  0.00    +0.000 HD
BRANCH   8  11
ATOM     11  C   UNL     1       6.595   4.388  14.226  0.00  0.00    +0.000 A 
ATOM     12  C   UNL     1       6.304   3.791  13.013  0.00  0.00    +0.000 A 
ATOM     13  C   UNL     1       7.154   4.382  12.049  0.00  0.00    +0.000 A 
ATOM     14  C   UNL     1       7.914   5.307  12.723  0.00  0.00    +0.000 A 
ATOM     15  O   UNL     1       7.574   5.335  14.038  0.00  0.00    +0.000 OA
ENDBRANCH   8  11
ENDBRANCH   6   7
BRANCH   1  16
ATOM     16  C   UNL     1       7.071   5.666  19.110  0.00  0.00    +0.000 C 
ATOM     17  O   UNL     1       7.568   5.380  20.194  0.00  0.00    +0.000 OA
BRANCH  16  19
ATOM     18  C   UNL     1       7.957   7.588  18.103  0.00  0.00    +0.000 C 
ATOM     19  O   UNL     1       7.777   6.173  18.055  0.00  0.00    +0.000 OA
ENDBRANCH  16  19
ENDBRANCH   1  16
TORSDOF 4
ENDMDL
MODEL 7
REMARK VINA RESULT:      -6.2      2.408      3.452
REMARK  Name = 
REMARK  6 active torsions:
REMARK  status: ('A' for Active; 'I' for Inactive)
REMARK    1  A    between atoms: C_1  and  O_2
REMARK    2  A    between atoms: O_2  and  C_3
REMARK    3  A    between atoms: C_3  and  C_5
REMARK    4  A    between atoms: C_7  and  C_8
REMARK    5  A    between atoms: C_10  and  N_11
REMARK    6  A    between atoms: C_12  and  C_14
REMARK                            x       y       z     vdW  Elec       q    Type
REMARK                         _______ _______ _______ _____ _____    ______ ____
ROOT
ATOM      1  C   UNL     1       3.363   4.887  19.329  0.00  0.00    +0.000 A 
ATOM      2  C   UNL     1       2.536   5.663  20.220  0.00  0.00    +0.000 A 
ATOM      3  C   UNL     1       2.292   6.941  19.763  0.00  0.00    +0.000 A 
ATOM      4  C   UNL     1       1.485   8.014  20.407  0.00  0.00    +0.000 C 
ATOM      5  S   UNL     1       3.091   7.230  18.280  0.00  0.00    +0.000 S 
ATOM      6  C   UNL     1       3.627   5.619  18.188  0.00  0.00    +0.000 A 
ENDROOT
BRANCH   6   7
ATOM      7  N   UNL     1       4.237   5.318  16.991  0.00  0.00    +0.000 N 
ATOM      8  C   UNL     1       5.601   5.486  16.808  0.00  0.00    +0.000 C 
ATOM      9  O   UNL     1       6.375   5.878  17.678  0.00  0.00    +0.000 OA
ATOM     10  H   UNL     1       3.782   4.656  16.375  0.00  0.00    +0.000 HD
BRANCH   8  11
ATOM     11  C   UNL     1       6.056   5.038  15.506  0.00  0.00    +0.000 A 
ATOM     12  C   UNL     1       5.482   4.183  14.583  0.00  0.00    +0.000 A 
ATOM     13  C   UNL     1       6.380   4.093  13.493  0.00  0.00    +0.000 A 
ATOM     14  C   UNL     1       7.448   4.898  13.808  0.00  0.00    +0.000 A 
ATOM     15  O   UNL     1       7.257   5.491  15.015  0.00  0.00    +0.000 OA
ENDBRANCH   8  11
ENDBRANCH   6   7
BRANCH   1  16
ATOM     16  C   UNL     1       3.902   3.560  19.628  0.00  0.00    +0.000 C 
ATOM     17  O   UNL     1       5.084   3.259  19.509  0.00  0.00    +0.000 OA
BRANCH  16  19
ATOM     18  C   UNL     1       2.130   2.091  19.189  0.00  0.00    +0.000 C 
ATOM     19  O   UNL     1       2.952   2.734  20.161  0.00  0.00    +0.000 OA
ENDBRANCH  16  19
ENDBRANCH   1  16
TORSDOF 4
ENDMDL
MODEL 8
REMARK VINA RESULT:      -6.1      3.894      7.110
REMARK  Name = 
REMARK  6 active torsions:
REMARK  status: ('A' for Active; 'I' for Inactive)
REMARK    1  A    between atoms: C_1  and  O_2
REMARK    2  A    between atoms: O_2  and  C_3
REMARK    3  A    between atoms: C_3  and  C_5
REMARK    4  A    between atoms: C_7  and  C_8
REMARK    5  A    between atoms: C_10  and  N_11
REMARK    6  A    between atoms: C_12  and  C_14
REMARK                            x       y       z     vdW  Elec       q    Type
REMARK                         _______ _______ _______ _____ _____    ______ ____
ROOT
ATOM      1  C   UNL     1       3.429   4.451  17.376  0.00  0.00    +0.000 A 
ATOM      2  C   UNL     1       4.655   3.844  16.918  0.00  0.00    +0.000 A 
ATOM      3  C   UNL     1       5.700   4.737  16.811  0.00  0.00    +0.000 A 
ATOM      4  C   UNL     1       7.100   4.473  16.379  0.00  0.00    +0.000 C 
ATOM      5  S   UNL     1       5.203   6.320  17.220  0.00  0.00    +0.000 S 
ATOM      6  C   UNL     1       3.655   5.780  17.674  0.00  0.00    +0.000 A 
ENDROOT
BRANCH   6   7
ATOM      7  N   UNL     1       2.889   6.762  18.259  0.00  0.00    +0.000 N 
ATOM      8  C   UNL     1       2.475   6.671  19.579  0.00  0.00    +0.000 C 
ATOM      9  O   UNL     1       2.769   5.749  20.336  0.00  0.00    +0.000 OA
ATOM     10  H   UNL     1       2.922   7.694  17.866  0.00  0.00    +0.000 HD
BRANCH   8  11
ATOM     11  C   UNL     1       1.747   7.842  20.026  0.00  0.00    +0.000 A 
ATOM     12  C   UNL     1       1.195   8.159  21.254  0.00  0.00    +0.000 A 
ATOM     13  C   UNL     1       0.583   9.428  21.115  0.00  0.00    +0.000 A 
ATOM     14  C   UNL     1       0.798   9.816  19.814  0.00  0.00    +0.000 A 
ATOM     15  O   UNL     1       1.516   8.875  19.149  0.00  0.00    +0.000 OA
ENDBRANCH   8  11
ENDBRANCH   6   7
BRANCH   1  16
ATOM     16  C   UNL     1       2.132   3.778  17.437  0.00  0.00    +0.000 C 
ATOM     17  O   UNL     1       1.057   4.350  17.296  0.00  0.00    +0.000 OA
BRANCH  16  19
ATOM     18  C   UNL     1       2.172   1.946  18.898  0.00  0.00    +0.000 C 
ATOM     19  O   UNL     1       2.268   2.423  17.557  0.00  0.00    +0.000 OA
ENDBRANCH  16  19
ENDBRANCH   1  16
TORSDOF 4
ENDMDL
MODEL 9
REMARK VINA RESULT:      -6.1      2.604      5.812
REMARK  Name = 
REMARK  6 active torsions:
REMARK  status: ('A' for Active; 'I' for Inactive)
REMARK    1  A    between atoms: C_1  and  O_2
REMARK    2  A    between atoms: O_2  and  C_3
REMARK    3  A    between atoms: C_3  and  C_5
REMARK    4  A    between atoms: C_7  and  C_8
REMARK    5  A    between atoms: C_10  and  N_11
REMARK    6  A    between atoms: C_12  and  C_14
REMARK                            x       y       z     vdW  Elec       q    Type
REMARK                         _______ _______ _______ _____ _____    ______ ____
ROOT
ATOM      1  C   UNL     1       5.242   5.694  16.364  0.00  0.00    +0.000 A 
ATOM      2  C   UNL     1       5.692   5.526  15.004  0.00  0.00    +0.000 A 
ATOM      3  C   UNL     1       5.736   4.208  14.603  0.00  0.00    +0.000 A 
ATOM      4  C   UNL     1       6.141   3.659  13.280  0.00  0.00    +0.000 C 
ATOM      5  S   UNL     1       5.276   3.160  15.873  0.00  0.00    +0.000 S 
ATOM      6  C   UNL     1       4.885   4.467  16.888  0.00  0.00    +0.000 A 
ENDROOT
BRANCH   6   7
ATOM      7  N   UNL     1       4.280   4.079  18.062  0.00  0.00    +0.000 N 
ATOM      8  C   UNL     1       2.901   4.089  18.208  0.00  0.00    +0.000 C 
ATOM      9  O   UNL     1       2.112   4.409  17.321  0.00  0.00    +0.000 OA
ATOM     10  H   UNL     1       4.789   3.461  18.681  0.00  0.00    +0.000 HD
BRANCH   8  11
ATOM     11  C   UNL     1       2.464   3.570  19.489  0.00  0.00    +0.000 A 
ATOM     12  C   UNL     1       1.212   3.529  20.077  0.00  0.00    +0.000 A 
ATOM     13  C   UNL     1       1.374   2.924  21.346  0.00  0.00    +0.000 A 
ATOM     14  C   UNL     1       2.711   2.628  21.461  0.00  0.00    +0.000 A 
ATOM     15  O   UNL     1       3.379   2.996  20.338  0.00  0.00    +0.000 OA
ENDBRANCH   8  11
ENDBRANCH   6   7
BRANCH   1  16
ATOM     16  C   UNL     1       5.241   6.960  17.097  0.00  0.00    +0.000 C 
ATOM     17  O   UNL     1       4.295   7.364  17.766  0.00  0.00    +0.000 OA
BRANCH  16  19
ATOM     18  C   UNL     1       7.461   6.970  17.849  0.00  0.00    +0.000 C 
ATOM     19  O   UNL     1       6.457   7.581  17.040  0.00  0.00    +0.000 OA
ENDBRANCH  16  19
ENDBRANCH   1  16
TORSDOF 4
ENDMDL
