MODEL 1
REMARK VINA RESULT:      -8.3      0.000      0.000
REMARK  Name = 
REMARK  9 active torsions:
REMARK  status: ('A' for Active; 'I' for Inactive)
REMARK    1  A    between atoms: C_2  and  C_3
REMARK    2  A    between atoms: C_3  and  C_4
REMARK    3  A    between atoms: C_3  and  N_26
REMARK    4  A    between atoms: C_4  and  C_5
REMARK    5  A    between atoms: C_8  and  N_9
REMARK    6  A    between atoms: C_11  and  C_12
REMARK    7  A    between atoms: C_12  and  O_13
REMARK    8  A    between atoms: O_13  and  C_14
REMARK    9  A    between atoms: C_27  and  C_29
REMARK                            x       y       z     vdW  Elec       q    Type
REMARK                         _______ _______ _______ _____ _____    ______ ____
ROOT
ATOM      1  C   UNL     1       0.642  10.585  21.216  0.00  0.00    +0.000 A 
ATOM      2  C   UNL     1       1.020  10.382  19.885  0.00  0.00    +0.000 A 
ATOM      3  C   UNL     1       1.430   9.122  19.450  0.00  0.00    +0.000 A 
ATOM      4  C   UNL     1       1.513   8.049  20.346  0.00  0.00    +0.000 A 
ATOM      5  C   UNL     1       1.232   8.260  21.698  0.00  0.00    +0.000 A 
ATOM      6  C   UNL     1       0.798   9.519  22.113  0.00  0.00    +0.000 A 
ATOM      7  F   UNL     1       0.496   9.696  23.408  0.00  0.00    +0.000 F 
ENDROOT
BRANCH   4   8
ATOM      8  N   UNL     1       1.827   6.763  19.843  0.00  0.00    +0.000 N 
ATOM      9  C   UNL     1       2.272   6.405  18.596  0.00  0.00    +0.000 A 
ATOM     10  C   UNL     1       2.583   5.066  18.705  0.00  0.00    +0.000 A 
ATOM     11  N   UNL     1       2.249   4.631  19.956  0.00  0.00    +0.000 NA
ATOM     12  N   UNL     1       1.768   5.664  20.633  0.00  0.00    +0.000 NA
BRANCH  10  13
ATOM     13  C   UNL     1       3.210   4.148  17.717  0.00  0.00    +0.000 C 
BRANCH  13  14
ATOM     14  O   UNL     1       4.527   4.568  17.327  0.00  0.00    +0.000 OA
BRANCH  14  15
ATOM     15  C   UNL     1       5.448   4.558  18.327  0.00  0.00    +0.000 C 
ATOM     16  O   UNL     1       5.614   3.616  19.099  0.00  0.00    +0.000 OA
ATOM     17  N   UNL     1       6.201   5.698  18.353  0.00  0.00    +0.000 N 
ATOM     18  C   UNL     1       6.089   6.833  17.455  0.00  0.00    +0.000 C 
ATOM     19  C   UNL     1       7.528   7.284  17.280  0.00  0.00    +0.000 C 
ATOM     20  C   UNL     1       8.153   7.008  18.647  0.00  0.00    +0.000 C 
ATOM     21  C   UNL     1       7.386   5.802  19.182  0.00  0.00    +0.000 C 
ENDBRANCH  14  15
ENDBRANCH  13  14
ENDBRANCH  10  13
ENDBRANCH   4   8
BRANCH   1  22
ATOM     22  C   UNL     1       0.047  11.876  21.733  0.00  0.00    +0.000 C 
BRANCH  22  23
ATOM     23  C   UNL     1      -0.425  12.924  20.701  0.00  0.00    +0.000 C 
BRANCH  23  24
ATOM     24  N   UNL     1      -0.957  12.301  19.494  0.00  0.00    +0.000 N 
ATOM     25  C   UNL     1      -2.307  12.148  19.286  0.00  0.00    +0.000 C 
ATOM     26  O   UNL     1      -3.156  12.412  20.129  0.00  0.00    +0.000 OA
ATOM     27  H   UNL     1      -0.381  12.288  18.653  0.00  0.00    +0.000 HD
BRANCH  25  28
ATOM     28  C   UNL     1      -2.641  11.762  17.853  0.00  0.00    +0.000 C 
ATOM     29  N   UNL     1      -1.553  10.978  17.179  0.00  0.00    +0.000 NA
ATOM     30  C   UNL     1      -2.325   9.990  16.378  0.00  0.00    +0.000 C 
ATOM     31  C   UNL     1      -3.251  10.727  15.384  0.00  0.00    +0.000 C 
ATOM     32  C   UNL     1      -4.419  11.200  16.274  0.00  0.00    +0.000 C 
ATOM     33  C   UNL     1      -3.885  10.881  17.674  0.00  0.00    +0.000 C 
ATOM     34  C   UNL     1      -3.295   9.489  17.437  0.00  0.00    +0.000 C 
ATOM     35  H   UNL     1      -1.056  10.441  17.899  0.00  0.00    +0.000 HD
ENDBRANCH  25  28
ENDBRANCH  23  24
BRANCH  23  37
ATOM     36  N   UNL     1       1.562  14.508  19.972  0.00  0.00    +0.000 NA
ATOM     37  C   UNL     1       0.684  13.825  20.306  0.00  0.00    +0.000 C 
ENDBRANCH  23  37
ENDBRANCH  22  23
ENDBRANCH   1  22
TORSDOF 9
ENDMDL
MODEL 2
REMARK VINA RESULT:      -8.3      2.847      4.627
REMARK  Name = 
REMARK  9 active torsions:
REMARK  status: ('A' for Active; 'I' for Inactive)
REMARK    1  A    between atoms: C_2  and  C_3
REMARK    2  A    between atoms: C_3  and  C_4
REMARK    3  A    between atoms: C_3  and  N_26
REMARK    4  A    between atoms: C_4  and  C_5
REMARK    5  A    between atoms: C_8  and  N_9
REMARK    6  A    between atoms: C_11  and  C_12
REMARK    7  A    between atoms: C_12  and  O_13
REMARK    8  A    between atoms: O_13  and  C_14
REMARK    9  A    between atoms: C_27  and  C_29
REMARK                            x       y       z     vdW  Elec       q    Type
REMARK                         _______ _______ _______ _____ _____    ______ ____
ROOT
ATOM      1  C   UNL     1       0.549   9.735  19.559  0.00  0.00    +0.000 A 
ATOM      2  C   UNL     1       1.127   9.886  18.295  0.00  0.00    +0.000 A 
ATOM      3  C   UNL     1       2.062   8.962  17.829  0.00  0.00    +0.000 A 
ATOM      4  C   UNL     1       2.470   7.892  18.635  0.00  0.00    +0.000 A 
ATOM      5  C   UNL     1       1.975   7.783  19.937  0.00  0.00    +0.000 A 
ATOM      6  C   UNL     1       1.021   8.700  20.378  0.00  0.00    +0.000 A 
ATOM      7  F   UNL     1       0.526   8.561  21.617  0.00  0.00    +0.000 F 
ENDROOT
BRANCH   4   8
ATOM      8  N   UNL     1       3.337   6.915  18.085  0.00  0.00    +0.000 N 
ATOM      9  C   UNL     1       3.489   5.597  18.432  0.00  0.00    +0.000 A 
ATOM     10  C   UNL     1       4.326   5.074  17.468  0.00  0.00    +0.000 A 
ATOM     11  N   UNL     1       4.720   6.078  16.628  0.00  0.00    +0.000 NA
ATOM     12  N   UNL     1       4.133   7.197  17.026  0.00  0.00    +0.000 NA
BRANCH  10  13
ATOM     13  C   UNL     1       4.770   3.673  17.248  0.00  0.00    +0.000 C 
BRANCH  13  14
ATOM     14  O   UNL     1       3.891   2.710  17.852  0.00  0.00    +0.000 OA
BRANCH  14  15
ATOM     15  C   UNL     1       4.046   2.562  19.195  0.00  0.00    +0.000 C 
ATOM     16  O   UNL     1       5.136   2.529  19.761  0.00  0.00    +0.000 OA
ATOM     17  N   UNL     1       2.850   2.497  19.853  0.00  0.00    +0.000 N 
ATOM     18  C   UNL     1       1.527   2.567  19.259  0.00  0.00    +0.000 C 
ATOM     19  C   UNL     1       0.721   3.335  20.291  0.00  0.00    +0.000 C 
ATOM     20  C   UNL     1       1.317   2.874  21.619  0.00  0.00    +0.000 C 
ATOM     21  C   UNL     1       2.778   2.573  21.299  0.00  0.00    +0.000 C 
ENDBRANCH  14  15
ENDBRANCH  13  14
ENDBRANCH  10  13
ENDBRANCH   4   8
BRANCH   1  22
ATOM     22  C   UNL     1      -0.576  10.604  20.078  0.00  0.00    +0.000 C 
BRANCH  22  23
ATOM     23  C   UNL     1      -0.241  11.659  21.155  0.00  0.00    +0.000 C 
BRANCH  23  24
ATOM     24  N   UNL     1      -1.413  12.037  21.934  0.00  0.00    +0.000 N 
ATOM     25  C   UNL     1      -2.528  12.593  21.353  0.00  0.00    +0.000 C 
ATOM     26  O   UNL     1      -2.586  12.917  20.173  0.00  0.00    +0.000 OA
ATOM     27  H   UNL     1      -1.569  11.591  22.837  0.00  0.00    +0.000 HD
BRANCH  25  28
ATOM     28  C   UNL     1      -3.727  12.623  22.290  0.00  0.00    +0.000 C 
ATOM     29  N   UNL     1      -3.485  11.910  23.587  0.00  0.00    +0.000 NA
ATOM     30  C   UNL     1      -4.191  12.783  24.564  0.00  0.00    +0.000 C 
ATOM     31  C   UNL     1      -5.688  12.884  24.193  0.00  0.00    +0.000 C 
ATOM     32  C   UNL     1      -5.693  13.880  23.015  0.00  0.00    +0.000 C 
ATOM     33  C   UNL     1      -4.194  14.019  22.726  0.00  0.00    +0.000 C 
ATOM     34  C   UNL     1      -3.646  14.141  24.149  0.00  0.00    +0.000 C 
ATOM     35  H   UNL     1      -2.485  11.980  23.808  0.00  0.00    +0.000 HD
ENDBRANCH  25  28
ENDBRANCH  23  24
BRANCH  23  37
ATOM     36  N   UNL     1       0.789  13.851  20.094  0.00  0.00    +0.000 NA
ATOM     37  C   UNL     1       0.324  12.887  20.545  0.00  0.00    +0.000 C 
ENDBRANCH  23  37
ENDBRANCH  22  23
ENDBRANCH   1  22
TORSDOF 9
ENDMDL
MODEL 3
REMARK VINA RESULT:      -8.1      2.138      4.099
REMARK  Name = 
REMARK  9 active torsions:
REMARK  status: ('A' for Active; 'I' for Inactive)
REMARK    1  A    between atoms: C_2  and  C_3
REMARK    2  A    between atoms: C_3  and  C_4
REMARK    3  A    between atoms: C_3  and  N_26
REMARK    4  A    between atoms: C_4  and  C_5
REMARK    5  A    between atoms: C_8  and  N_9
REMARK    6  A    between atoms: C_11  and  C_12
REMARK    7  A    between atoms: C_12  and  O_13
REMARK    8  A    between atoms: O_13  and  C_14
REMARK    9  A    between atoms: C_27  and  C_29
REMARK                            x       y       z     vdW  Elec       q    Type
REMARK                         _______ _______ _______ _____ _____    ______ ____
ROOT
ATOM      1  C   UNL     1       0.830   9.588  19.830  0.00  0.00    +0.000 A 
ATOM      2  C   UNL     1       1.404   9.456  18.562  0.00  0.00    +0.000 A 
ATOM      3  C   UNL     1       2.150   8.323  18.237  0.00  0.00    +0.000 A 
ATOM      4  C   UNL     1       2.374   7.319  19.188  0.00  0.00    +0.000 A 
ATOM      5  C   UNL     1       1.890   7.483  20.488  0.00  0.00    +0.000 A 
ATOM      6  C   UNL     1       1.124   8.609  20.789  0.00  0.00    +0.000 A 
ATOM      7  F   UNL     1       0.634   8.733  22.032  0.00  0.00    +0.000 F 
ENDROOT
BRANCH   4   8
ATOM      8  N   UNL     1       3.042   6.136  18.785  0.00  0.00    +0.000 N 
ATOM      9  C   UNL     1       3.072   5.534  17.554  0.00  0.00    +0.000 A 
ATOM     10  C   UNL     1       4.004   4.525  17.678  0.00  0.00    +0.000 A 
ATOM     11  N   UNL     1       4.446   4.484  18.971  0.00  0.00    +0.000 NA
ATOM     12  N   UNL     1       3.838   5.451  19.642  0.00  0.00    +0.000 NA
BRANCH  10  13
ATOM     13  C   UNL     1       4.548   3.596  16.653  0.00  0.00    +0.000 C 
BRANCH  13  14
ATOM     14  O   UNL     1       5.921   3.867  16.330  0.00  0.00    +0.000 OA
BRANCH  14  15
ATOM     15  C   UNL     1       6.205   5.178  16.104  0.00  0.00    +0.000 C 
ATOM     16  O   UNL     1       5.682   5.851  15.219  0.00  0.00    +0.000 OA
ATOM     17  N   UNL     1       7.106   5.678  17.000  0.00  0.00    +0.000 N 
ATOM     18  C   UNL     1       7.737   4.956  18.092  0.00  0.00    +0.000 C 
ATOM     19  C   UNL     1       7.833   6.000  19.190  0.00  0.00    +0.000 C 
ATOM     20  C   UNL     1       8.088   7.297  18.424  0.00  0.00    +0.000 C 
ATOM     21  C   UNL     1       7.374   7.100  17.090  0.00  0.00    +0.000 C 
ENDBRANCH  14  15
ENDBRANCH  13  14
ENDBRANCH  10  13
ENDBRANCH   4   8
BRANCH   1  22
ATOM     22  C   UNL     1      -0.112  10.708  20.214  0.00  0.00    +0.000 C 
BRANCH  22  23
ATOM     23  C   UNL     1      -0.448  11.772  19.147  0.00  0.00    +0.000 C 
BRANCH  23  24
ATOM     24  N   UNL     1      -0.066  13.113  19.572  0.00  0.00    +0.000 N 
ATOM     25  C   UNL     1       1.113  13.698  19.173  0.00  0.00    +0.000 C 
ATOM     26  O   UNL     1       1.976  13.110  18.533  0.00  0.00    +0.000 OA
ATOM     27  H   UNL     1      -0.794  13.760  19.873  0.00  0.00    +0.000 HD
BRANCH  25  28
ATOM     28  C   UNL     1       1.163  15.188  19.479  0.00  0.00    +0.000 C 
ATOM     29  N   UNL     1       1.929  15.978  18.459  0.00  0.00    +0.000 NA
ATOM     30  C   UNL     1       1.125  17.226  18.357  0.00  0.00    +0.000 C 
ATOM     31  C   UNL     1       1.052  17.919  19.737  0.00  0.00    +0.000 C 
ATOM     32  C   UNL     1       0.003  17.082  20.496  0.00  0.00    +0.000 C 
ATOM     33  C   UNL     1      -0.195  15.900  19.541  0.00  0.00    +0.000 C 
ATOM     34  C   UNL     1      -0.267  16.633  18.201  0.00  0.00    +0.000 C 
ATOM     35  H   UNL     1       1.839  15.502  17.554  0.00  0.00    +0.000 HD
ENDBRANCH  25  28
ENDBRANCH  23  24
BRANCH  23  37
ATOM     36  N   UNL     1      -3.036  11.820  18.610  0.00  0.00    +0.000 NA
ATOM     37  C   UNL     1      -1.898  11.782  18.838  0.00  0.00    +0.000 C 
ENDBRANCH  23  37
ENDBRANCH  22  23
ENDBRANCH   1  22
TORSDOF 9
ENDMDL
MODEL 4
REMARK VINA RESULT:      -8.0      1.807      2.221
REMARK  Name = 
REMARK  9 active torsions:
REMARK  status: ('A' for Active; 'I' for Inactive)
REMARK    1  A    between atoms: C_2  and  C_3
REMARK    2  A    between atoms: C_3  and  C_4
REMARK    3  A    between atoms: C_3  and  N_26
REMARK    4  A    between atoms: C_4  and  C_5
REMARK    5  A    between atoms: C_8  and  N_9
REMARK    6  A    between atoms: C_11  and  C_12
REMARK    7  A    between atoms: C_12  and  O_13
REMARK    8  A    between atoms: O_13  and  C_14
REMARK    9  A    between atoms: C_27  and  C_29
REMARK                            x       y       z     vdW  Elec       q    Type
REMARK                         _______ _______ _______ _____ _____    ______ ____
ROOT
ATOM      1  C   UNL     1       0.993  11.709  20.164  0.00  0.00    +0.000 A 
ATOM      2  C   UNL     1       0.606  10.609  20.934  0.00  0.00    +0.000 A 
ATOM      3  C   UNL     1       0.944   9.314  20.540  0.00  0.00    +0.000 A 
ATOM      4  C   UNL     1       1.640   9.091  19.345  0.00  0.00    +0.000 A 
ATOM      5  C   UNL     1       1.948  10.172  18.517  0.00  0.00    +0.000 A 
ATOM      6  C   UNL     1       1.626  11.463  18.937  0.00  0.00    +0.000 A 
ATOM      7  F   UNL     1       1.962  12.494  18.148  0.00  0.00    +0.000 F 
ENDROOT
BRANCH   4   8
ATOM      8  N   UNL     1       2.060   7.774  19.037  0.00  0.00    +0.000 N 
ATOM      9  C   UNL     1       2.508   6.788  19.879  0.00  0.00    +0.000 A 
ATOM     10  C   UNL     1       2.610   5.666  19.083  0.00  0.00    +0.000 A 
ATOM     11  N   UNL     1       2.311   6.005  17.794  0.00  0.00    +0.000 NA
ATOM     12  N   UNL     1       2.002   7.294  17.772  0.00  0.00    +0.000 NA
BRANCH  10  13
ATOM     13  C   UNL     1       2.943   4.264  19.448  0.00  0.00    +0.000 C 
BRANCH  13  14
ATOM     14  O   UNL     1       3.828   3.639  18.505  0.00  0.00    +0.000 OA
BRANCH  14  15
ATOM     15  C   UNL     1       5.115   4.076  18.556  0.00  0.00    +0.000 C 
ATOM     16  O   UNL     1       5.786   4.119  19.584  0.00  0.00    +0.000 OA
ATOM     17  N   UNL     1       5.596   4.421  17.324  0.00  0.00    +0.000 N 
ATOM     18  C   UNL     1       4.878   4.362  16.064  0.00  0.00    +0.000 C 
ATOM     19  C   UNL     1       5.950   3.945  15.071  0.00  0.00    +0.000 C 
ATOM     20  C   UNL     1       7.207   4.633  15.600  0.00  0.00    +0.000 C 
ATOM     21  C   UNL     1       7.005   4.690  17.112  0.00  0.00    +0.000 C 
ENDBRANCH  14  15
ENDBRANCH  13  14
ENDBRANCH  10  13
ENDBRANCH   4   8
BRANCH   1  22
ATOM     22  C   UNL     1       0.796  13.147  20.593  0.00  0.00    +0.000 C 
BRANCH  22  23
ATOM     23  C   UNL     1      -0.398  13.925  19.999  0.00  0.00    +0.000 C 
BRANCH  23  24
ATOM     24  N   UNL     1      -1.067  13.177  18.941  0.00  0.00    +0.000 N 
ATOM     25  C   UNL     1      -2.182  12.409  19.183  0.00  0.00    +0.000 C 
ATOM     26  O   UNL     1      -2.630  12.201  20.304  0.00  0.00    +0.000 OA
ATOM     27  H   UNL     1      -0.944  13.474  17.974  0.00  0.00    +0.000 HD
BRANCH  25  28
ATOM     28  C   UNL     1      -2.883  11.972  17.905  0.00  0.00    +0.000 C 
ATOM     29  N   UNL     1      -1.936  11.648  16.788  0.00  0.00    +0.000 NA
ATOM     30  C   UNL     1      -2.590  10.473  16.149  0.00  0.00    +0.000 C 
ATOM     31  C   UNL     1      -4.003  10.861  15.658  0.00  0.00    +0.000 C 
ATOM     32  C   UNL     1      -4.840  10.859  16.954  0.00  0.00    +0.000 C 
ATOM     33  C   UNL     1      -3.750  10.710  18.021  0.00  0.00    +0.000 C 
ATOM     34  C   UNL     1      -2.878   9.628  17.381  0.00  0.00    +0.000 C 
ATOM     35  H   UNL     1      -1.062  11.302  17.201  0.00  0.00    +0.000 HD
ENDBRANCH  25  28
ENDBRANCH  23  24
BRANCH  23  37
ATOM     36  N   UNL     1       0.401  16.232  18.985  0.00  0.00    +0.000 NA
ATOM     37  C   UNL     1       0.035  15.228  19.439  0.00  0.00    +0.000 C 
ENDBRANCH  23  37
ENDBRANCH  22  23
ENDBRANCH   1  22
TORSDOF 9
ENDMDL
MODEL 5
REMARK VINA RESULT:      -8.0      2.978      4.633
REMARK  Name = 
REMARK  9 active torsions:
REMARK  status: ('A' for Active; 'I' for Inactive)
REMARK    1  A    between atoms: C_2  and  C_3
REMARK    2  A    between atoms: C_3  and  C_4
REMARK    3  A    between atoms: C_3  and  N_26
REMARK    4  A    between atoms: C_4  and  C_5
REMARK    5  A    between atoms: C_8  and  N_9
REMARK    6  A    between atoms: C_11  and  C_12
REMARK    7  A    between atoms: C_12  and  O_13
REMARK    8  A    between atoms: O_13  and  C_14
REMARK    9  A    between atoms: C_27  and  C_29
REMARK                            x       y       z     vdW  Elec       q    Type
REMARK                         _______ _______ _______ _____ _____    ______ ____
ROOT
ATOM      1  C   UNL     1       0.611   9.645  19.672  0.00  0.00    +0.000 A 
ATOM      2  C   UNL     1       1.228   9.517  18.423  0.00  0.00    +0.000 A 
ATOM      3  C   UNL     1       2.091   8.452  18.166  0.00  0.00    +0.000 A 
ATOM      4  C   UNL     1       2.389   7.518  19.166  0.00  0.00    +0.000 A 
ATOM      5  C   UNL     1       1.858   7.687  20.446  0.00  0.00    +0.000 A 
ATOM      6  C   UNL     1       0.975   8.742  20.680  0.00  0.00    +0.000 A 
ATOM      7  F   UNL     1       0.444   8.870  21.905  0.00  0.00    +0.000 F 
ENDROOT
BRANCH   4   8
ATOM      8  N   UNL     1       3.181   6.392  18.831  0.00  0.00    +0.000 N 
ATOM      9  C   UNL     1       4.223   6.297  17.944  0.00  0.00    +0.000 A 
ATOM     10  C   UNL     1       4.739   5.033  18.142  0.00  0.00    +0.000 A 
ATOM     11  N   UNL     1       3.969   4.376  19.059  0.00  0.00    +0.000 NA
ATOM     12  N   UNL     1       3.010   5.200  19.454  0.00  0.00    +0.000 NA
BRANCH  10  13
ATOM     13  C   UNL     1       5.941   4.391  17.549  0.00  0.00    +0.000 C 
BRANCH  13  14
ATOM     14  O   UNL     1       5.829   4.206  16.129  0.00  0.00    +0.000 OA
BRANCH  14  15
ATOM     15  C   UNL     1       6.745   4.889  15.392  0.00  0.00    +0.000 C 
ATOM     16  O   UNL     1       7.637   5.582  15.875  0.00  0.00    +0.000 OA
ATOM     17  N   UNL     1       6.593   4.682  14.050  0.00  0.00    +0.000 N 
ATOM     18  C   UNL     1       5.591   3.849  13.408  0.00  0.00    +0.000 C 
ATOM     19  C   UNL     1       6.338   3.253  12.228  0.00  0.00    +0.000 C 
ATOM     20  C   UNL     1       7.284   4.375  11.804  0.00  0.00    +0.000 C 
ATOM     21  C   UNL     1       7.595   5.121  13.099  0.00  0.00    +0.000 C 
ENDBRANCH  14  15
ENDBRANCH  13  14
ENDBRANCH  10  13
ENDBRANCH   4   8
BRANCH   1  22
ATOM     22  C   UNL     1      -0.446  10.681  19.985  0.00  0.00    +0.000 C 
BRANCH  22  23
ATOM     23  C   UNL     1      -0.689  11.806  18.955  0.00  0.00    +0.000 C 
BRANCH  23  24
ATOM     24  N   UNL     1      -0.445  13.127  19.520  0.00  0.00    +0.000 N 
ATOM     25  C   UNL     1       0.591  13.924  19.092  0.00  0.00    +0.000 C 
ATOM     26  O   UNL     1       1.446  13.552  18.298  0.00  0.00    +0.000 OA
ATOM     27  H   UNL     1      -1.214  13.618  19.974  0.00  0.00    +0.000 HD
BRANCH  25  28
ATOM     28  C   UNL     1       0.475  15.356  19.591  0.00  0.00    +0.000 C 
ATOM     29  N   UNL     1       1.604  16.236  19.140  0.00  0.00    +0.000 NA
ATOM     30  C   UNL     1       0.911  17.524  18.864  0.00  0.00    +0.000 C 
ATOM     31  C   UNL     1       0.216  18.033  20.148  0.00  0.00    +0.000 C 
ATOM     32  C   UNL     1      -1.049  17.154  20.236  0.00  0.00    +0.000 C 
ATOM     33  C   UNL     1      -0.779  16.118  19.140  0.00  0.00    +0.000 C 
ATOM     34  C   UNL     1      -0.254  17.023  18.024  0.00  0.00    +0.000 C 
ATOM     35  H   UNL     1       1.937  15.887  18.233  0.00  0.00    +0.000 HD
ENDBRANCH  25  28
ENDBRANCH  23  24
BRANCH  23  37
ATOM     36  N   UNL     1      -3.176  11.776  18.058  0.00  0.00    +0.000 NA
ATOM     37  C   UNL     1      -2.080  11.772  18.442  0.00  0.00    +0.000 C 
ENDBRANCH  23  37
ENDBRANCH  22  23
ENDBRANCH   1  22
TORSDOF 9
ENDMDL
MODEL 6
REMARK VINA RESULT:      -8.0      2.628      5.020
REMARK  Name = 
REMARK  9 active torsions:
REMARK  status: ('A' for Active; 'I' for Inactive)
REMARK    1  A    between atoms: C_2  and  C_3
REMARK    2  A    between atoms: C_3  and  C_4
REMARK    3  A    between atoms: C_3  and  N_26
REMARK    4  A    between atoms: C_4  and  C_5
REMARK    5  A    between atoms: C_8  and  N_9
REMARK    6  A    between atoms: C_11  and  C_12
REMARK    7  A    between atoms: C_12  and  O_13
REMARK    8  A    between atoms: O_13  and  C_14
REMARK    9  A    between atoms: C_27  and  C_29
REMARK                            x       y       z     vdW  Elec       q    Type
REMARK                         _______ _______ _______ _____ _____    ______ ____
ROOT
ATOM      1  C   UNL     1       0.453   9.662  19.633  0.00  0.00    +0.000 A 
ATOM      2  C   UNL     1       0.987   9.796  18.347  0.00  0.00    +0.000 A 
ATOM      3  C   UNL     1       1.946   8.897  17.882  0.00  0.00    +0.000 A 
ATOM      4  C   UNL     1       2.424   7.872  18.708  0.00  0.00    +0.000 A 
ATOM      5  C   UNL     1       1.972   7.785  20.026  0.00  0.00    +0.000 A 
ATOM      6  C   UNL     1       0.993   8.675  20.469  0.00  0.00    +0.000 A 
ATOM      7  F   UNL     1       0.542   8.555  21.726  0.00  0.00    +0.000 F 
ENDROOT
BRANCH   4   8
ATOM      8  N   UNL     1       3.314   6.916  18.161  0.00  0.00    +0.000 N 
ATOM      9  C   UNL     1       3.476   5.594  18.490  0.00  0.00    +0.000 A 
ATOM     10  C   UNL     1       4.340   5.097  17.536  0.00  0.00    +0.000 A 
ATOM     11  N   UNL     1       4.740   6.119  16.722  0.00  0.00    +0.000 NA
ATOM     12  N   UNL     1       4.130   7.225  17.124  0.00  0.00    +0.000 NA
BRANCH  10  13
ATOM     13  C   UNL     1       4.807   3.706  17.304  0.00  0.00    +0.000 C 
BRANCH  13  14
ATOM     14  O   UNL     1       3.938   2.723  17.891  0.00  0.00    +0.000 OA
BRANCH  14  15
ATOM     15  C   UNL     1       4.074   2.573  19.235  0.00  0.00    +0.000 C 
ATOM     16  O   UNL     1       5.155   2.557  19.819  0.00  0.00    +0.000 OA
ATOM     17  N   UNL     1       2.869   2.486  19.874  0.00  0.00    +0.000 N 
ATOM     18  C   UNL     1       1.555   2.535  19.259  0.00  0.00    +0.000 C 
ATOM     19  C   UNL     1       0.719   3.286  20.280  0.00  0.00    +0.000 C 
ATOM     20  C   UNL     1       1.302   2.831  21.617  0.00  0.00    +0.000 C 
ATOM     21  C   UNL     1       2.773   2.556  21.319  0.00  0.00    +0.000 C 
ENDBRANCH  14  15
ENDBRANCH  13  14
ENDBRANCH  10  13
ENDBRANCH   4   8
BRANCH   1  22
ATOM     22  C   UNL     1      -0.691  10.500  20.160  0.00  0.00    +0.000 C 
BRANCH  22  23
ATOM     23  C   UNL     1      -0.962  11.864  19.489  0.00  0.00    +0.000 C 
BRANCH  23  24
ATOM     24  N   UNL     1      -1.480  12.845  20.434  0.00  0.00    +0.000 N 
ATOM     25  C   UNL     1      -0.735  13.302  21.495  0.00  0.00    +0.000 C 
ATOM     26  O   UNL     1       0.362  12.848  21.796  0.00  0.00    +0.000 OA
ATOM     27  H   UNL     1      -2.242  13.456  20.141  0.00  0.00    +0.000 HD
BRANCH  25  28
ATOM     28  C   UNL     1      -1.347  14.526  22.160  0.00  0.00    +0.000 C 
ATOM     29  N   UNL     1      -2.838  14.599  22.016  0.00  0.00    +0.000 NA
ATOM     30  C   UNL     1      -3.259  15.129  23.341  0.00  0.00    +0.000 C 
ATOM     31  C   UNL     1      -2.603  16.506  23.590  0.00  0.00    +0.000 C 
ATOM     32  C   UNL     1      -1.157  16.141  23.984  0.00  0.00    +0.000 C 
ATOM     33  C   UNL     1      -1.125  14.640  23.675  0.00  0.00    +0.000 C 
ATOM     34  C   UNL     1      -2.470  14.206  24.259  0.00  0.00    +0.000 C 
ATOM     35  H   UNL     1      -3.200  13.639  21.960  0.00  0.00    +0.000 HD
ENDBRANCH  25  28
ENDBRANCH  23  24
BRANCH  23  37
ATOM     36  N   UNL     1      -2.676  11.640  17.488  0.00  0.00    +0.000 NA
ATOM     37  C   UNL     1      -1.936  11.732  18.379  0.00  0.00    +0.000 C 
ENDBRANCH  23  37
ENDBRANCH  22  23
ENDBRANCH   1  22
TORSDOF 9
ENDMDL
MODEL 7
REMARK VINA RESULT:      -8.0      6.129      9.634
REMARK  Name = 
REMARK  9 active torsions:
REMARK  status: ('A' for Active; 'I' for Inactive)
REMARK    1  A    between atoms: C_2  and  C_3
REMARK    2  A    between atoms: C_3  and  C_4
REMARK    3  A    between atoms: C_3  and  N_26
REMARK    4  A    between atoms: C_4  and  C_5
REMARK    5  A    between atoms: C_8  and  N_9
REMARK    6  A    between atoms: C_11  and  C_12
REMARK    7  A    between atoms: C_12  and  O_13
REMARK    8  A    between atoms: O_13  and  C_14
REMARK    9  A    between atoms: C_27  and  C_29
REMARK                            x       y       z     vdW  Elec       q    Type
REMARK                         _______ _______ _______ _____ _____    ______ ____
ROOT
ATOM      1  C   UNL     1       7.320   6.515  17.573  0.00  0.00    +0.000 A 
ATOM      2  C   UNL     1       6.993   7.729  16.962  0.00  0.00    +0.000 A 
ATOM      3  C   UNL     1       7.554   8.923  17.414  0.00  0.00    +0.000 A 
ATOM      4  C   UNL     1       8.419   8.932  18.515  0.00  0.00    +0.000 A 
ATOM      5  C   UNL     1       8.679   7.741  19.196  0.00  0.00    +0.000 A 
ATOM      6  C   UNL     1       8.131   6.551  18.715  0.00  0.00    +0.000 A 
ATOM      7  F   UNL     1       8.419   5.410  19.357  0.00  0.00    +0.000 F 
ENDROOT
BRANCH   4   8
ATOM      8  N   UNL     1       9.053  10.148  18.874  0.00  0.00    +0.000 N 
ATOM      9  C   UNL     1       9.267  10.679  20.120  0.00  0.00    +0.000 A 
ATOM     10  C   UNL     1      10.073  11.777  19.901  0.00  0.00    +0.000 A 
ATOM     11  N   UNL     1      10.257  11.933  18.556  0.00  0.00    +0.000 NA
ATOM     12  N   UNL     1       9.613  10.953  17.939  0.00  0.00    +0.000 NA
BRANCH  10  13
ATOM     13  C   UNL     1      10.724  12.692  20.874  0.00  0.00    +0.000 C 
BRANCH  13  14
ATOM     14  O   UNL     1      10.114  13.992  20.907  0.00  0.00    +0.000 OA
BRANCH  14  15
ATOM     15  C   UNL     1       8.928  14.049  21.569  0.00  0.00    +0.000 C 
ATOM     16  O   UNL     1       8.798  13.804  22.766  0.00  0.00    +0.000 OA
ATOM     17  N   UNL     1       7.901  14.453  20.764  0.00  0.00    +0.000 N 
ATOM     18  C   UNL     1       7.985  14.795  19.356  0.00  0.00    +0.000 C 
ATOM     19  C   UNL     1       6.993  15.937  19.214  0.00  0.00    +0.000 C 
ATOM     20  C   UNL     1       5.888  15.569  20.202  0.00  0.00    +0.000 C 
ATOM     21  C   UNL     1       6.605  14.805  21.312  0.00  0.00    +0.000 C 
ENDBRANCH  14  15
ENDBRANCH  13  14
ENDBRANCH  10  13
ENDBRANCH   4   8
BRANCH   1  22
ATOM     22  C   UNL     1       6.874   5.166  17.053  0.00  0.00    +0.000 C 
BRANCH  22  23
ATOM     23  C   UNL     1       5.566   5.098  16.234  0.00  0.00    +0.000 C 
BRANCH  23  24
ATOM     24  N   UNL     1       4.484   4.467  16.982  0.00  0.00    +0.000 N 
ATOM     25  C   UNL     1       3.607   5.194  17.751  0.00  0.00    +0.000 C 
ATOM     26  O   UNL     1       3.727   6.395  17.961  0.00  0.00    +0.000 OA
ATOM     27  H   UNL     1       4.148   3.553  16.682  0.00  0.00    +0.000 HD
BRANCH  25  28
ATOM     28  C   UNL     1       2.396   4.383  18.187  0.00  0.00    +0.000 C 
ATOM     29  N   UNL     1       2.207   3.123  17.394  0.00  0.00    +0.000 NA
ATOM     30  C   UNL     1       1.749   2.162  18.433  0.00  0.00    +0.000 C 
ATOM     31  C   UNL     1       0.444   2.673  19.085  0.00  0.00    +0.000 C 
ATOM     32  C   UNL     1       0.939   3.770  20.050  0.00  0.00    +0.000 C 
ATOM     33  C   UNL     1       2.411   3.896  19.642  0.00  0.00    +0.000 C 
ATOM     34  C   UNL     1       2.791   2.419  19.511  0.00  0.00    +0.000 C 
ATOM     35  H   UNL     1       3.132   2.799  17.088  0.00  0.00    +0.000 HD
ENDBRANCH  25  28
ENDBRANCH  23  24
BRANCH  23  37
ATOM     36  N   UNL     1       5.943   3.762  13.985  0.00  0.00    +0.000 NA
ATOM     37  C   UNL     1       5.760   4.341  14.975  0.00  0.00    +0.000 C 
ENDBRANCH  23  37
ENDBRANCH  22  23
ENDBRANCH   1  22
TORSDOF 9
ENDMDL
MODEL 8
REMARK VINA RESULT:      -8.0      2.450      4.404
REMARK  Name = 
REMARK  9 active torsions:
REMARK  status: ('A' for Active; 'I' for Inactive)
REMARK    1  A    between atoms: C_2  and  C_3
REMARK    2  A    between atoms: C_3  and  C_4
REMARK    3  A    between atoms: C_3  and  N_26
REMARK    4  A    between atoms: C_4  and  C_5
REMARK    5  A    between atoms: C_8  and  N_9
REMARK    6  A    between atoms: C_11  and  C_12
REMARK    7  A    between atoms: C_12  and  O_13
REMARK    8  A    between atoms: O_13  and  C_14
REMARK    9  A    between atoms: C_27  and  C_29
REMARK                            x       y       z     vdW  Elec       q    Type
REMARK                         _______ _______ _______ _____ _____    ______ ____
ROOT
ATOM      1  C   UNL     1       0.742   9.736  20.319  0.00  0.00    +0.000 A 
ATOM      2  C   UNL     1       1.252   9.620  19.022  0.00  0.00    +0.000 A 
ATOM      3  C   UNL     1       1.929   8.466  18.628  0.00  0.00    +0.000 A 
ATOM      4  C   UNL     1       2.149   7.423  19.536  0.00  0.00    +0.000 A 
ATOM      5  C   UNL     1       1.733   7.565  20.862  0.00  0.00    +0.000 A 
ATOM      6  C   UNL     1       1.033   8.714  21.233  0.00  0.00    +0.000 A 
ATOM      7  F   UNL     1       0.606   8.820  22.500  0.00  0.00    +0.000 F 
ENDROOT
BRANCH   4   8
ATOM      8  N   UNL     1       2.743   6.225  19.067  0.00  0.00    +0.000 N 
ATOM      9  C   UNL     1       2.732   5.689  17.805  0.00  0.00    +0.000 A 
ATOM     10  C   UNL     1       3.602   4.620  17.870  0.00  0.00    +0.000 A 
ATOM     11  N   UNL     1       4.045   4.483  19.156  0.00  0.00    +0.000 NA
ATOM     12  N   UNL     1       3.498   5.448  19.881  0.00  0.00    +0.000 NA
BRANCH  10  13
ATOM     13  C   UNL     1       4.085   3.716  16.794  0.00  0.00    +0.000 C 
BRANCH  13  14
ATOM     14  O   UNL     1       5.484   3.883  16.514  0.00  0.00    +0.000 OA
BRANCH  14  15
ATOM     15  C   UNL     1       5.860   5.159  16.230  0.00  0.00    +0.000 C 
ATOM     16  O   UNL     1       5.338   5.851  15.360  0.00  0.00    +0.000 OA
ATOM     17  N   UNL     1       6.856   5.604  17.053  0.00  0.00    +0.000 N 
ATOM     18  C   UNL     1       7.494   4.859  18.124  0.00  0.00    +0.000 C 
ATOM     19  C   UNL     1       7.748   5.919  19.182  0.00  0.00    +0.000 C 
ATOM     20  C   UNL     1       8.059   7.170  18.362  0.00  0.00    +0.000 C 
ATOM     21  C   UNL     1       7.246   7.000  17.082  0.00  0.00    +0.000 C 
ENDBRANCH  14  15
ENDBRANCH  13  14
ENDBRANCH  10  13
ENDBRANCH   4   8
BRANCH   1  22
ATOM     22  C   UNL     1      -0.128  10.884  20.780  0.00  0.00    +0.000 C 
BRANCH  22  23
ATOM     23  C   UNL     1      -0.297  12.093  19.835  0.00  0.00    +0.000 C 
BRANCH  23  24
ATOM     24  N   UNL     1       0.797  13.048  19.967  0.00  0.00    +0.000 N 
ATOM     25  C   UNL     1       1.611  13.377  18.909  0.00  0.00    +0.000 C 
ATOM     26  O   UNL     1       1.560  12.821  17.818  0.00  0.00    +0.000 OA
ATOM     27  H   UNL     1       0.763  13.733  20.721  0.00  0.00    +0.000 HD
BRANCH  25  28
ATOM     28  C   UNL     1       2.474  14.599  19.188  0.00  0.00    +0.000 C 
ATOM     29  N   UNL     1       3.591  14.330  20.153  0.00  0.00    +0.000 NA
ATOM     30  C   UNL     1       4.703  15.139  19.582  0.00  0.00    +0.000 C 
ATOM     31  C   UNL     1       4.293  16.628  19.522  0.00  0.00    +0.000 C 
ATOM     32  C   UNL     1       3.366  16.689  18.291  0.00  0.00    +0.000 C 
ATOM     33  C   UNL     1       3.186  15.201  17.969  0.00  0.00    +0.000 C 
ATOM     34  C   UNL     1       4.625  14.706  18.126  0.00  0.00    +0.000 C 
ATOM     35  H   UNL     1       3.868  13.347  20.053  0.00  0.00    +0.000 HD
ENDBRANCH  25  28
ENDBRANCH  23  24
BRANCH  23  37
ATOM     36  N   UNL     1      -2.571  13.346  20.334  0.00  0.00    +0.000 NA
ATOM     37  C   UNL     1      -1.569  12.808  20.100  0.00  0.00    +0.000 C 
ENDBRANCH  23  37
ENDBRANCH  22  23
ENDBRANCH   1  22
TORSDOF 9
ENDMDL
MODEL 9
REMARK VINA RESULT:      -7.9      3.047      4.983
REMARK  Name = 
REMARK  9 active torsions:
REMARK  status: ('A' for Active; 'I' for Inactive)
REMARK    1  A    between atoms: C_2  and  C_3
REMARK    2  A    between atoms: C_3  and  C_4
REMARK    3  A    between atoms: C_3  and  N_26
REMARK    4  A    between atoms: C_4  and  C_5
REMARK    5  A    between atoms: C_8  and  N_9
REMARK    6  A    between atoms: C_11  and  C_12
REMARK    7  A    between atoms: C_12  and  O_13
REMARK    8  A    between atoms: O_13  and  C_14
REMARK    9  A    between atoms: C_27  and  C_29
REMARK                            x       y       z     vdW  Elec       q    Type
REMARK                         _______ _______ _______ _____ _____    ______ ____
ROOT
ATOM      1  C   UNL     1       1.045  10.044  19.685  0.00  0.00    +0.000 A 
ATOM      2  C   UNL     1       1.097   8.768  20.254  0.00  0.00    +0.000 A 
ATOM      3  C   UNL     1       1.863   7.762  19.665  0.00  0.00    +0.000 A 
ATOM      4  C   UNL     1       2.557   7.999  18.472  0.00  0.00    +0.000 A 
ATOM      5  C   UNL     1       2.436   9.238  17.840  0.00  0.00    +0.000 A 
ATOM      6  C   UNL     1       1.688  10.243  18.455  0.00  0.00    +0.000 A 
ATOM      7  F   UNL     1       1.611  11.440  17.856  0.00  0.00    +0.000 F 
ENDROOT
BRANCH   4   8
ATOM      8  N   UNL     1       3.410   6.986  17.967  0.00  0.00    +0.000 N 
ATOM      9  C   UNL     1       3.559   5.689  18.387  0.00  0.00    +0.000 A 
ATOM     10  C   UNL     1       4.379   5.106  17.443  0.00  0.00    +0.000 A 
ATOM     11  N   UNL     1       4.767   6.057  16.542  0.00  0.00    +0.000 NA
ATOM     12  N   UNL     1       4.193   7.201  16.882  0.00  0.00    +0.000 NA
BRANCH  10  13
ATOM     13  C   UNL     1       4.812   3.692  17.299  0.00  0.00    +0.000 C 
BRANCH  13  14
ATOM     14  O   UNL     1       3.884   2.764  17.883  0.00  0.00    +0.000 OA
BRANCH  14  15
ATOM     15  C   UNL     1       4.028   2.580  19.222  0.00  0.00    +0.000 C 
ATOM     16  O   UNL     1       5.113   2.509  19.793  0.00  0.00    +0.000 OA
ATOM     17  N   UNL     1       2.827   2.528  19.873  0.00  0.00    +0.000 N 
ATOM     18  C   UNL     1       1.509   2.642  19.274  0.00  0.00    +0.000 C 
ATOM     19  C   UNL     1       0.715   3.404  20.320  0.00  0.00    +0.000 C 
ATOM     20  C   UNL     1       1.293   2.898  21.640  0.00  0.00    +0.000 C 
ATOM     21  C   UNL     1       2.749   2.572  21.320  0.00  0.00    +0.000 C 
ENDBRANCH  14  15
ENDBRANCH  13  14
ENDBRANCH  10  13
ENDBRANCH   4   8
BRANCH   1  22
ATOM     22  C   UNL     1       0.362  11.227  20.336  0.00  0.00    +0.000 C 
BRANCH  22  23
ATOM     23  C   UNL     1      -1.025  11.649  19.802  0.00  0.00    +0.000 C 
BRANCH  23  24
ATOM     24  N   UNL     1      -2.027  11.696  20.860  0.00  0.00    +0.000 N 
ATOM     25  C   UNL     1      -2.251  12.829  21.605  0.00  0.00    +0.000 C 
ATOM     26  O   UNL     1      -1.564  13.840  21.521  0.00  0.00    +0.000 OA
ATOM     27  H   UNL     1      -2.798  11.030  20.836  0.00  0.00    +0.000 HD
BRANCH  25  28
ATOM     28  C   UNL     1      -3.528  12.749  22.428  0.00  0.00    +0.000 C 
ATOM     29  N   UNL     1      -3.391  11.900  23.657  0.00  0.00    +0.000 NA
ATOM     30  C   UNL     1      -4.195  12.657  24.655  0.00  0.00    +0.000 C 
ATOM     31  C   UNL     1      -5.654  12.789  24.165  0.00  0.00    +0.000 C 
ATOM     32  C   UNL     1      -5.571  13.907  23.106  0.00  0.00    +0.000 C 
ATOM     33  C   UNL     1      -4.054  14.086  22.969  0.00  0.00    +0.000 C 
ATOM     34  C   UNL     1      -3.637  14.056  24.440  0.00  0.00    +0.000 C 
ATOM     35  H   UNL     1      -2.416  11.952  23.973  0.00  0.00    +0.000 HD
ENDBRANCH  25  28
ENDBRANCH  23  24
BRANCH  23  37
ATOM     36  N   UNL     1      -1.855   9.962  17.944  0.00  0.00    +0.000 NA
ATOM     37  C   UNL     1      -1.502  10.716  18.754  0.00  0.00    +0.000 C 
ENDBRANCH  23  37
ENDBRANCH  22  23
ENDBRANCH   1  22
TORSDOF 9
ENDMDL
