MODEL 1
REMARK VINA RESULT:      -7.7      0.000      0.000
REMARK  Name = 
REMARK  6 active torsions:
REMARK  status: ('A' for Active; 'I' for Inactive)
REMARK    1  A    between atoms: C_1  and  N_2
REMARK    2  A    between atoms: N_2  and  C_3
REMARK    3  A    between atoms: C_3  and  C_4
REMARK    4  A    between atoms: N_6  and  C_7
REMARK    5  A    between atoms: C_14  and  C_16
REMARK    6  A    between atoms: C_19  and  N_20
REMARK                            x       y       z     vdW  Elec       q    Type
REMARK                         _______ _______ _______ _____ _____    ______ ____
ROOT
ATOM      1  C   UNL     1       1.826   7.168  20.633  0.00  0.00    +0.000 C 
ATOM      2  N   UNL     1       2.445   6.862  19.351  0.00  0.00    +0.000 N 
ATOM      3  C   UNL     1       3.318   5.757  19.332  0.00  0.00    +0.000 C 
ATOM      4  O   UNL     1       3.473   5.025  20.308  0.00  0.00    +0.000 OA
ENDROOT
BRANCH   3   5
ATOM      5  C   UNL     1       4.060   5.415  18.087  0.00  0.00    +0.000 A 
ATOM      6  C   UNL     1       4.983   6.282  17.511  0.00  0.00    +0.000 A 
ATOM      7  C   UNL     1       5.584   5.972  16.288  0.00  0.00    +0.000 A 
ATOM      8  C   UNL     1       5.347   4.754  15.645  0.00  0.00    +0.000 A 
ATOM      9  C   UNL     1       4.500   3.838  16.291  0.00  0.00    +0.000 A 
ATOM     10  C   UNL     1       3.861   4.164  17.499  0.00  0.00    +0.000 A 
BRANCH   8  11
ATOM     11  N   UNL     1       5.937   4.459  14.384  0.00  0.00    +0.000 N 
ATOM     12  C   UNL     1       5.236   3.740  13.345  0.00  0.00    +0.000 C 
ATOM     13  C   UNL     1       6.299   3.426  12.314  0.00  0.00    +0.000 C 
ATOM     14  C   UNL     1       7.283   4.569  12.451  0.00  0.00    +0.000 C 
ATOM     15  C   UNL     1       7.159   4.968  13.904  0.00  0.00    +0.000 C 
ATOM     16  O   UNL     1       7.995   5.654  14.469  0.00  0.00    +0.000 OA
ENDBRANCH   8  11
ENDBRANCH   3   5
BRANCH   2  17
ATOM     17  C   UNL     1       1.994   7.562  18.136  0.00  0.00    +0.000 C 
BRANCH  17  18
ATOM     18  C   UNL     1       1.706   9.061  18.153  0.00  0.00    +0.000 C 
ATOM     19  O   UNL     1       2.365   9.838  17.465  0.00  0.00    +0.000 OA
ATOM     20  N   UNL     1       0.705   9.438  19.036  0.00  0.00    +0.000 N 
ATOM     21  H   UNL     1       0.593   8.843  19.849  0.00  0.00    +0.000 HD
BRANCH  20  22
ATOM     22  C   UNL     1       0.335  10.791  19.156  0.00  0.00    +0.000 A 
ATOM     23  C   UNL     1      -0.635  11.356  18.319  0.00  0.00    +0.000 A 
ATOM     24  C   UNL     1      -0.915  12.720  18.392  0.00  0.00    +0.000 A 
ATOM     25  C   UNL     1      -0.208  13.518  19.290  0.00  0.00    +0.000 A 
ATOM     26 CL   UNL     1      -0.482  15.214  19.324  0.00  0.00    +0.000 Cl
ATOM     27  C   UNL     1       0.733  12.950  20.151  0.00  0.00    +0.000 A 
ATOM     28  C   UNL     1       0.979  11.576  20.109  0.00  0.00    +0.000 A 
ENDBRANCH  20  22
ENDBRANCH  17  18
ENDBRANCH   2  17
TORSDOF 5
ENDMDL
MODEL 2
REMARK VINA RESULT:      -7.6      3.514      8.687
REMARK  Name = 
REMARK  6 active torsions:
REMARK  status: ('A' for Active; 'I' for Inactive)
REMARK    1  A    between atoms: C_1  and  N_2
REMARK    2  A    between atoms: N_2  and  C_3
REMARK    3  A    between atoms: C_3  and  C_4
REMARK    4  A    between atoms: N_6  and  C_7
REMARK    5  A    between atoms: C_14  and  C_16
REMARK    6  A    between atoms: C_19  and  N_20
REMARK                            x       y       z     vdW  Elec       q    Type
REMARK                         _______ _______ _______ _____ _____    ______ ____
ROOT
ATOM      1  C   UNL     1       3.618   3.248  20.229  0.00  0.00    +0.000 C 
ATOM      2  N   UNL     1       3.460   4.655  19.888  0.00  0.00    +0.000 N 
ATOM      3  C   UNL     1       2.224   5.240  20.226  0.00  0.00    +0.000 C 
ATOM      4  O   UNL     1       1.364   4.636  20.865  0.00  0.00    +0.000 OA
ENDROOT
BRANCH   3   5
ATOM      5  C   UNL     1       1.939   6.651  19.845  0.00  0.00    +0.000 A 
ATOM      6  C   UNL     1       2.158   7.131  18.558  0.00  0.00    +0.000 A 
ATOM      7  C   UNL     1       1.976   8.485  18.263  0.00  0.00    +0.000 A 
ATOM      8  C   UNL     1       1.491   9.383  19.219  0.00  0.00    +0.000 A 
ATOM      9  C   UNL     1       1.166   8.865  20.483  0.00  0.00    +0.000 A 
ATOM     10  C   UNL     1       1.387   7.513  20.796  0.00  0.00    +0.000 A 
BRANCH   8  11
ATOM     11  N   UNL     1       1.340  10.766  18.920  0.00  0.00    +0.000 N 
ATOM     12  C   UNL     1       2.343  11.522  18.206  0.00  0.00    +0.000 C 
ATOM     13  C   UNL     1       1.903  12.964  18.344  0.00  0.00    +0.000 C 
ATOM     14  C   UNL     1       0.395  12.873  18.446  0.00  0.00    +0.000 C 
ATOM     15  C   UNL     1       0.166  11.525  19.090  0.00  0.00    +0.000 C 
ATOM     16  O   UNL     1      -0.897  11.215  19.602  0.00  0.00    +0.000 OA
ENDBRANCH   8  11
ENDBRANCH   3   5
BRANCH   2  17
ATOM     17  C   UNL     1       4.621   5.426  19.413  0.00  0.00    +0.000 C 
BRANCH  17  18
ATOM     18  C   UNL     1       5.446   4.952  18.220  0.00  0.00    +0.000 C 
ATOM     19  O   UNL     1       6.488   4.320  18.384  0.00  0.00    +0.000 OA
ATOM     20  N   UNL     1       4.944   5.346  16.989  0.00  0.00    +0.000 N 
ATOM     21  H   UNL     1       4.418   6.213  16.989  0.00  0.00    +0.000 HD
BRANCH  20  22
ATOM     22  C   UNL     1       5.605   4.979  15.800  0.00  0.00    +0.000 A 
ATOM     23  C   UNL     1       6.801   5.596  15.413  0.00  0.00    +0.000 A 
ATOM     24  C   UNL     1       7.384   5.284  14.186  0.00  0.00    +0.000 A 
ATOM     25  C   UNL     1       6.758   4.369  13.341  0.00  0.00    +0.000 A 
ATOM     26 CL   UNL     1       7.422   4.047  11.789  0.00  0.00    +0.000 Cl
ATOM     27  C   UNL     1       5.585   3.727  13.742  0.00  0.00    +0.000 A 
ATOM     28  C   UNL     1       5.027   4.005  14.990  0.00  0.00    +0.000 A 
ENDBRANCH  20  22
ENDBRANCH  17  18
ENDBRANCH   2  17
TORSDOF 5
ENDMDL
MODEL 3
REMARK VINA RESULT:      -7.5      3.257      5.297
REMARK  Name = 
REMARK  6 active torsions:
REMARK  status: ('A' for Active; 'I' for Inactive)
REMARK    1  A    between atoms: C_1  and  N_2
REMARK    2  A    between atoms: N_2  and  C_3
REMARK    3  A    between atoms: C_3  and  C_4
REMARK    4  A    between atoms: N_6  and  C_7
REMARK    5  A    between atoms: C_14  and  C_16
REMARK    6  A    between atoms: C_19  and  N_20
REMARK                            x       y       z     vdW  Elec       q    Type
REMARK                         _______ _______ _______ _____ _____    ______ ____
ROOT
ATOM      1  C   UNL     1       0.038  11.947  21.364  0.00  0.00    +0.000 C 
ATOM      2  N   UNL     1       0.372  10.818  20.508  0.00  0.00    +0.000 N 
ATOM      3  C   UNL     1       1.039   9.745  21.129  0.00  0.00    +0.000 C 
ATOM      4  O   UNL     1       1.237   9.708  22.343  0.00  0.00    +0.000 OA
ENDROOT
BRANCH   3   5
ATOM      5  C   UNL     1       1.494   8.581  20.319  0.00  0.00    +0.000 A 
ATOM      6  C   UNL     1       1.514   7.286  20.827  0.00  0.00    +0.000 A 
ATOM      7  C   UNL     1       2.043   6.234  20.074  0.00  0.00    +0.000 A 
ATOM      8  C   UNL     1       2.490   6.426  18.763  0.00  0.00    +0.000 A 
ATOM      9  C   UNL     1       2.361   7.715  18.221  0.00  0.00    +0.000 A 
ATOM     10  C   UNL     1       1.869   8.783  18.989  0.00  0.00    +0.000 A 
BRANCH   8  11
ATOM     11  N   UNL     1       3.058   5.357  18.015  0.00  0.00    +0.000 N 
ATOM     12  C   UNL     1       4.481   5.231  17.795  0.00  0.00    +0.000 C 
ATOM     13  C   UNL     1       4.611   4.138  16.756  0.00  0.00    +0.000 C 
ATOM     14  C   UNL     1       3.409   3.253  17.012  0.00  0.00    +0.000 C 
ATOM     15  C   UNL     1       2.378   4.210  17.564  0.00  0.00    +0.000 C 
ATOM     16  O   UNL     1       1.190   3.936  17.617  0.00  0.00    +0.000 OA
ENDBRANCH   8  11
ENDBRANCH   3   5
BRANCH   2  17
ATOM     17  C   UNL     1      -0.159  10.759  19.135  0.00  0.00    +0.000 C 
BRANCH  17  18
ATOM     18  C   UNL     1      -1.354  11.612  18.717  0.00  0.00    +0.000 C 
ATOM     19  O   UNL     1      -1.193  12.737  18.248  0.00  0.00    +0.000 OA
ATOM     20  N   UNL     1      -2.585  11.028  18.970  0.00  0.00    +0.000 N 
ATOM     21  H   UNL     1      -2.611  10.384  19.753  0.00  0.00    +0.000 HD
BRANCH  20  22
ATOM     22  C   UNL     1      -3.775  11.703  18.635  0.00  0.00    +0.000 A 
ATOM     23  C   UNL     1      -4.488  12.438  19.591  0.00  0.00    +0.000 A 
ATOM     24  C   UNL     1      -5.712  13.017  19.260  0.00  0.00    +0.000 A 
ATOM     25  C   UNL     1      -6.229  12.841  17.978  0.00  0.00    +0.000 A 
ATOM     26 CL   UNL     1      -7.778  13.474  17.588  0.00  0.00    +0.000 Cl
ATOM     27  C   UNL     1      -5.503  12.140  17.013  0.00  0.00    +0.000 A 
ATOM     28  C   UNL     1      -4.256  11.600  17.333  0.00  0.00    +0.000 A 
ENDBRANCH  20  22
ENDBRANCH  17  18
ENDBRANCH   2  17
TORSDOF 5
ENDMDL
MODEL 4
REMARK VINA RESULT:      -7.5      0.875      1.018
REMARK  Name = 
REMARK  6 active torsions:
REMARK  status: ('A' for Active; 'I' for Inactive)
REMARK    1  A    between atoms: C_1  and  N_2
REMARK    2  A    between atoms: N_2  and  C_3
REMARK    3  A    between atoms: C_3  and  C_4
REMARK    4  A    between atoms: N_6  and  C_7
REMARK    5  A    between atoms: C_14  and  C_16
REMARK    6  A    between atoms: C_19  and  N_20
REMARK                            x       y       z     vdW  Elec       q    Type
REMARK                         _______ _______ _______ _____ _____    ______ ____
ROOT
ATOM      1  C   UNL     1       1.682   7.575  20.511  0.00  0.00    +0.000 C 
ATOM      2  N   UNL     1       2.367   7.267  19.263  0.00  0.00    +0.000 N 
ATOM      3  C   UNL     1       2.997   6.009  19.197  0.00  0.00    +0.000 C 
ATOM      4  O   UNL     1       2.892   5.172  20.093  0.00  0.00    +0.000 OA
ENDROOT
BRANCH   3   5
ATOM      5  C   UNL     1       3.791   5.636  17.993  0.00  0.00    +0.000 A 
ATOM      6  C   UNL     1       4.529   6.570  17.272  0.00  0.00    +0.000 A 
ATOM      7  C   UNL     1       5.178   6.205  16.090  0.00  0.00    +0.000 A 
ATOM      8  C   UNL     1       5.181   4.882  15.636  0.00  0.00    +0.000 A 
ATOM      9  C   UNL     1       4.529   3.927  16.431  0.00  0.00    +0.000 A 
ATOM     10  C   UNL     1       3.839   4.298  17.598  0.00  0.00    +0.000 A 
BRANCH   8  11
ATOM     11  N   UNL     1       5.817   4.525  14.414  0.00  0.00    +0.000 N 
ATOM     12  C   UNL     1       5.129   3.821  13.356  0.00  0.00    +0.000 C 
ATOM     13  C   UNL     1       6.223   3.422  12.389  0.00  0.00    +0.000 C 
ATOM     14  C   UNL     1       7.263   4.512  12.552  0.00  0.00    +0.000 C 
ATOM     15  C   UNL     1       7.089   4.952  13.987  0.00  0.00    +0.000 C 
ATOM     16  O   UNL     1       7.933   5.603  14.581  0.00  0.00    +0.000 OA
ENDBRANCH   8  11
ENDBRANCH   3   5
BRANCH   2  17
ATOM     17  C   UNL     1       2.204   8.156  18.102  0.00  0.00    +0.000 C 
BRANCH  17  18
ATOM     18  C   UNL     1       1.309   9.390  18.175  0.00  0.00    +0.000 C 
ATOM     19  O   UNL     1       0.194   9.393  17.657  0.00  0.00    +0.000 OA
ATOM     20  N   UNL     1       1.890  10.478  18.809  0.00  0.00    +0.000 N 
ATOM     21  H   UNL     1       2.901  10.529  18.749  0.00  0.00    +0.000 HD
BRANCH  20  22
ATOM     22  C   UNL     1       1.178  11.684  18.949  0.00  0.00    +0.000 A 
ATOM     23  C   UNL     1       1.617  12.863  18.333  0.00  0.00    +0.000 A 
ATOM     24  C   UNL     1       0.949  14.065  18.564  0.00  0.00    +0.000 A 
ATOM     25  C   UNL     1      -0.145  14.086  19.427  0.00  0.00    +0.000 A 
ATOM     26 CL   UNL     1      -0.918  15.578  19.789  0.00  0.00    +0.000 Cl
ATOM     27  C   UNL     1      -0.606  12.906  20.013  0.00  0.00    +0.000 A 
ATOM     28  C   UNL     1       0.035  11.696  19.744  0.00  0.00    +0.000 A 
ENDBRANCH  20  22
ENDBRANCH  17  18
ENDBRANCH   2  17
TORSDOF 5
ENDMDL
MODEL 5
REMARK VINA RESULT:      -7.4      3.403      8.918
REMARK  Name = 
REMARK  6 active torsions:
REMARK  status: ('A' for Active; 'I' for Inactive)
REMARK    1  A    between atoms: C_1  and  N_2
REMARK    2  A    between atoms: N_2  and  C_3
REMARK    3  A    between atoms: C_3  and  C_4
REMARK    4  A    between atoms: N_6  and  C_7
REMARK    5  A    between atoms: C_14  and  C_16
REMARK    6  A    between atoms: C_19  and  N_20
REMARK                            x       y       z     vdW  Elec       q    Type
REMARK                         _______ _______ _______ _____ _____    ______ ____
ROOT
ATOM      1  C   UNL     1       3.401   3.762  19.838  0.00  0.00    +0.000 C 
ATOM      2  N   UNL     1       3.239   5.199  19.669  0.00  0.00    +0.000 N 
ATOM      3  C   UNL     1       2.046   5.752  20.173  0.00  0.00    +0.000 C 
ATOM      4  O   UNL     1       1.231   5.087  20.812  0.00  0.00    +0.000 OA
ENDROOT
BRANCH   3   5
ATOM      5  C   UNL     1       1.753   7.199  19.977  0.00  0.00    +0.000 A 
ATOM      6  C   UNL     1       1.353   8.024  21.022  0.00  0.00    +0.000 A 
ATOM      7  C   UNL     1       0.988   9.351  20.783  0.00  0.00    +0.000 A 
ATOM      8  C   UNL     1       1.091   9.919  19.509  0.00  0.00    +0.000 A 
ATOM      9  C   UNL     1       1.604   9.110  18.482  0.00  0.00    +0.000 A 
ATOM     10  C   UNL     1       1.931   7.763  18.711  0.00  0.00    +0.000 A 
BRANCH   8  11
ATOM     11  N   UNL     1       0.687  11.262  19.266  0.00  0.00    +0.000 N 
ATOM     12  C   UNL     1       1.553  12.392  19.513  0.00  0.00    +0.000 C 
ATOM     13  C   UNL     1       0.650  13.600  19.376  0.00  0.00    +0.000 C 
ATOM     14  C   UNL     1      -0.397  13.157  18.376  0.00  0.00    +0.000 C 
ATOM     15  C   UNL     1      -0.484  11.664  18.596  0.00  0.00    +0.000 C 
ATOM     16  O   UNL     1      -1.420  10.995  18.188  0.00  0.00    +0.000 OA
ENDBRANCH   8  11
ENDBRANCH   3   5
BRANCH   2  17
ATOM     17  C   UNL     1       4.369   6.010  19.186  0.00  0.00    +0.000 C 
BRANCH  17  18
ATOM     18  C   UNL     1       4.815   5.947  17.728  0.00  0.00    +0.000 C 
ATOM     19  O   UNL     1       4.502   6.831  16.932  0.00  0.00    +0.000 OA
ATOM     20  N   UNL     1       5.529   4.804  17.400  0.00  0.00    +0.000 N 
ATOM     21  H   UNL     1       5.310   3.980  17.949  0.00  0.00    +0.000 HD
BRANCH  20  22
ATOM     22  C   UNL     1       6.004   4.613  16.088  0.00  0.00    +0.000 A 
ATOM     23  C   UNL     1       7.221   5.163  15.668  0.00  0.00    +0.000 A 
ATOM     24  C   UNL     1       7.623   5.042  14.339  0.00  0.00    +0.000 A 
ATOM     25  C   UNL     1       6.795   4.386  13.430  0.00  0.00    +0.000 A 
ATOM     26 CL   UNL     1       7.239   4.310  11.771  0.00  0.00    +0.000 Cl
ATOM     27  C   UNL     1       5.599   3.805  13.854  0.00  0.00    +0.000 A 
ATOM     28  C   UNL     1       5.220   3.887  15.195  0.00  0.00    +0.000 A 
ENDBRANCH  20  22
ENDBRANCH  17  18
ENDBRANCH   2  17
TORSDOF 5
ENDMDL
MODEL 6
REMARK VINA RESULT:      -7.4      0.516      1.049
REMARK  Name = 
REMARK  6 active torsions:
REMARK  status: ('A' for Active; 'I' for Inactive)
REMARK    1  A    between atoms: C_1  and  N_2
REMARK    2  A    between atoms: N_2  and  C_3
REMARK    3  A    between atoms: C_3  and  C_4
REMARK    4  A    between atoms: N_6  and  C_7
REMARK    5  A    between atoms: C_14  and  C_16
REMARK    6  A    between atoms: C_19  and  N_20
REMARK                            x       y       z     vdW  Elec       q    Type
REMARK                         _______ _______ _______ _____ _____    ______ ____
ROOT
ATOM      1  C   UNL     1       1.869   7.311  20.666  0.00  0.00    +0.000 C 
ATOM      2  N   UNL     1       2.344   6.979  19.331  0.00  0.00    +0.000 N 
ATOM      3  C   UNL     1       3.248   5.902  19.243  0.00  0.00    +0.000 C 
ATOM      4  O   UNL     1       3.543   5.211  20.217  0.00  0.00    +0.000 OA
ENDROOT
BRANCH   3   5
ATOM      5  C   UNL     1       3.850   5.540  17.931  0.00  0.00    +0.000 A 
ATOM      6  C   UNL     1       3.753   4.259  17.398  0.00  0.00    +0.000 A 
ATOM      7  C   UNL     1       4.417   3.927  16.214  0.00  0.00    +0.000 A 
ATOM      8  C   UNL     1       5.128   4.884  15.483  0.00  0.00    +0.000 A 
ATOM      9  C   UNL     1       5.126   6.201  15.970  0.00  0.00    +0.000 A 
ATOM     10  C   UNL     1       4.495   6.528  17.183  0.00  0.00    +0.000 A 
BRANCH   8  11
ATOM     11  N   UNL     1       5.829   4.532  14.295  0.00  0.00    +0.000 N 
ATOM     12  C   UNL     1       5.197   3.843  13.193  0.00  0.00    +0.000 C 
ATOM     13  C   UNL     1       6.342   3.444  12.286  0.00  0.00    +0.000 C 
ATOM     14  C   UNL     1       7.379   4.523  12.519  0.00  0.00    +0.000 C 
ATOM     15  C   UNL     1       7.127   4.953  13.945  0.00  0.00    +0.000 C 
ATOM     16  O   UNL     1       7.941   5.592  14.592  0.00  0.00    +0.000 OA
ENDBRANCH   8  11
ENDBRANCH   3   5
BRANCH   2  17
ATOM     17  C   UNL     1       1.729   7.620  18.156  0.00  0.00    +0.000 C 
BRANCH  17  18
ATOM     18  C   UNL     1       1.588   9.137  18.073  0.00  0.00    +0.000 C 
ATOM     19  O   UNL     1       2.301   9.797  17.319  0.00  0.00    +0.000 OA
ATOM     20  N   UNL     1       0.652   9.671  18.945  0.00  0.00    +0.000 N 
ATOM     21  H   UNL     1       0.504   9.147  19.801  0.00  0.00    +0.000 HD
BRANCH  20  22
ATOM     22  C   UNL     1       0.417  11.059  18.976  0.00  0.00    +0.000 A 
ATOM     23  C   UNL     1      -0.885  11.577  18.977  0.00  0.00    +0.000 A 
ATOM     24  C   UNL     1      -1.090  12.954  18.910  0.00  0.00    +0.000 A 
ATOM     25  C   UNL     1       0.007  13.808  18.822  0.00  0.00    +0.000 A 
ATOM     26 CL   UNL     1      -0.239  15.500  18.648  0.00  0.00    +0.000 Cl
ATOM     27  C   UNL     1       1.305  13.296  18.858  0.00  0.00    +0.000 A 
ATOM     28  C   UNL     1       1.511  11.920  18.972  0.00  0.00    +0.000 A 
ENDBRANCH  20  22
ENDBRANCH  17  18
ENDBRANCH   2  17
TORSDOF 5
ENDMDL
MODEL 7
REMARK VINA RESULT:      -7.4      3.453      8.621
REMARK  Name = 
REMARK  6 active torsions:
REMARK  status: ('A' for Active; 'I' for Inactive)
REMARK    1  A    between atoms: C_1  and  N_2
REMARK    2  A    between atoms: N_2  and  C_3
REMARK    3  A    between atoms: C_3  and  C_4
REMARK    4  A    between atoms: N_6  and  C_7
REMARK    5  A    between atoms: C_14  and  C_16
REMARK    6  A    between atoms: C_19  and  N_20
REMARK                            x       y       z     vdW  Elec       q    Type
REMARK                         _______ _______ _______ _____ _____    ______ ____
ROOT
ATOM      1  C   UNL     1       3.665   1.830  19.046  0.00  0.00    +0.000 C 
ATOM      2  N   UNL     1       3.622   3.285  19.078  0.00  0.00    +0.000 N 
ATOM      3  C   UNL     1       2.361   3.863  19.320  0.00  0.00    +0.000 C 
ATOM      4  O   UNL     1       1.370   3.187  19.594  0.00  0.00    +0.000 OA
ENDROOT
BRANCH   3   5
ATOM      5  C   UNL     1       2.202   5.343  19.291  0.00  0.00    +0.000 A 
ATOM      6  C   UNL     1       2.029   6.094  20.449  0.00  0.00    +0.000 A 
ATOM      7  C   UNL     1       1.780   7.467  20.376  0.00  0.00    +0.000 A 
ATOM      8  C   UNL     1       1.780   8.147  19.154  0.00  0.00    +0.000 A 
ATOM      9  C   UNL     1       2.068   7.399  18.001  0.00  0.00    +0.000 A 
ATOM     10  C   UNL     1       2.276   6.010  18.066  0.00  0.00    +0.000 A 
BRANCH   8  11
ATOM     11  N   UNL     1       1.493   9.539  19.085  0.00  0.00    +0.000 N 
ATOM     12  C   UNL     1       2.135  10.420  18.136  0.00  0.00    +0.000 C 
ATOM     13  C   UNL     1       1.743  11.812  18.583  0.00  0.00    +0.000 C 
ATOM     14  C   UNL     1       0.387  11.616  19.228  0.00  0.00    +0.000 C 
ATOM     15  C   UNL     1       0.452  10.203  19.761  0.00  0.00    +0.000 C 
ATOM     16  O   UNL     1      -0.332   9.780  20.595  0.00  0.00    +0.000 OA
ENDBRANCH   8  11
ENDBRANCH   3   5
BRANCH   2  17
ATOM     17  C   UNL     1       4.878   4.053  19.061  0.00  0.00    +0.000 C 
BRANCH  17  18
ATOM     18  C   UNL     1       5.459   4.582  17.753  0.00  0.00    +0.000 C 
ATOM     19  O   UNL     1       5.665   5.784  17.594  0.00  0.00    +0.000 OA
ATOM     20  N   UNL     1       5.663   3.609  16.786  0.00  0.00    +0.000 N 
ATOM     21  H   UNL     1       5.041   2.810  16.833  0.00  0.00    +0.000 HD
BRANCH  20  22
ATOM     22  C   UNL     1       6.194   3.955  15.529  0.00  0.00    +0.000 A 
ATOM     23  C   UNL     1       7.265   4.851  15.414  0.00  0.00    +0.000 A 
ATOM     24  C   UNL     1       7.710   5.252  14.155  0.00  0.00    +0.000 A 
ATOM     25  C   UNL     1       7.069   4.771  13.015  0.00  0.00    +0.000 A 
ATOM     26 CL   UNL     1       7.552   5.330  11.464  0.00  0.00    +0.000 Cl
ATOM     27  C   UNL     1       6.025   3.851  13.128  0.00  0.00    +0.000 A 
ATOM     28  C   UNL     1       5.610   3.414  14.387  0.00  0.00    +0.000 A 
ENDBRANCH  20  22
ENDBRANCH  17  18
ENDBRANCH   2  17
TORSDOF 5
ENDMDL
MODEL 8
REMARK VINA RESULT:      -7.3      3.555      8.680
REMARK  Name = 
REMARK  6 active torsions:
REMARK  status: ('A' for Active; 'I' for Inactive)
REMARK    1  A    between atoms: C_1  and  N_2
REMARK    2  A    between atoms: N_2  and  C_3
REMARK    3  A    between atoms: C_3  and  C_4
REMARK    4  A    between atoms: N_6  and  C_7
REMARK    5  A    between atoms: C_14  and  C_16
REMARK    6  A    between atoms: C_19  and  N_20
REMARK                            x       y       z     vdW  Elec       q    Type
REMARK                         _______ _______ _______ _____ _____    ______ ____
ROOT
ATOM      1  C   UNL     1       4.043   2.240  19.783  0.00  0.00    +0.000 C 
ATOM      2  N   UNL     1       3.829   3.678  19.702  0.00  0.00    +0.000 N 
ATOM      3  C   UNL     1       2.522   4.127  19.976  0.00  0.00    +0.000 C 
ATOM      4  O   UNL     1       1.635   3.368  20.364  0.00  0.00    +0.000 OA
ENDROOT
BRANCH   3   5
ATOM      5  C   UNL     1       2.187   5.571  19.840  0.00  0.00    +0.000 A 
ATOM      6  C   UNL     1       2.424   6.281  18.668  0.00  0.00    +0.000 A 
ATOM      7  C   UNL     1       2.192   7.657  18.609  0.00  0.00    +0.000 A 
ATOM      8  C   UNL     1       1.638   8.352  19.690  0.00  0.00    +0.000 A 
ATOM      9  C   UNL     1       1.298   7.605  20.829  0.00  0.00    +0.000 A 
ATOM     10  C   UNL     1       1.569   6.229  20.906  0.00  0.00    +0.000 A 
BRANCH   8  11
ATOM     11  N   UNL     1       1.436   9.759  19.635  0.00  0.00    +0.000 N 
ATOM     12  C   UNL     1       1.381  10.490  18.388  0.00  0.00    +0.000 C 
ATOM     13  C   UNL     1       1.420  11.947  18.798  0.00  0.00    +0.000 C 
ATOM     14  C   UNL     1       0.759  11.955  20.161  0.00  0.00    +0.000 C 
ATOM     15  C   UNL     1       1.078  10.587  20.716  0.00  0.00    +0.000 C 
ATOM     16  O   UNL     1       0.970  10.318  21.902  0.00  0.00    +0.000 OA
ENDBRANCH   8  11
ENDBRANCH   3   5
BRANCH   2  17
ATOM     17  C   UNL     1       4.982   4.581  19.547  0.00  0.00    +0.000 C 
BRANCH  17  18
ATOM     18  C   UNL     1       5.836   4.554  18.283  0.00  0.00    +0.000 C 
ATOM     19  O   UNL     1       7.062   4.622  18.348  0.00  0.00    +0.000 OA
ATOM     20  N   UNL     1       5.107   4.508  17.104  0.00  0.00    +0.000 N 
ATOM     21  H   UNL     1       4.188   4.934  17.143  0.00  0.00    +0.000 HD
BRANCH  20  22
ATOM     22  C   UNL     1       5.767   4.480  15.860  0.00  0.00    +0.000 A 
ATOM     23  C   UNL     1       6.893   5.276  15.616  0.00  0.00    +0.000 A 
ATOM     24  C   UNL     1       7.469   5.303  14.347  0.00  0.00    +0.000 A 
ATOM     25  C   UNL     1       6.905   4.548  13.321  0.00  0.00    +0.000 A 
ATOM     26 CL   UNL     1       7.554   4.645  11.733  0.00  0.00    +0.000 Cl
ATOM     27  C   UNL     1       5.805   3.726  13.572  0.00  0.00    +0.000 A 
ATOM     28  C   UNL     1       5.257   3.664  14.854  0.00  0.00    +0.000 A 
ENDBRANCH  20  22
ENDBRANCH  17  18
ENDBRANCH   2  17
TORSDOF 5
ENDMDL
MODEL 9
REMARK VINA RESULT:      -7.3      2.752      3.919
REMARK  Name = 
REMARK  6 active torsions:
REMARK  status: ('A' for Active; 'I' for Inactive)
REMARK    1  A    between atoms: C_1  and  N_2
REMARK    2  A    between atoms: N_2  and  C_3
REMARK    3  A    between atoms: C_3  and  C_4
REMARK    4  A    between atoms: N_6  and  C_7
REMARK    5  A    between atoms: C_14  and  C_16
REMARK    6  A    between atoms: C_19  and  N_20
REMARK                            x       y       z     vdW  Elec       q    Type
REMARK                         _______ _______ _______ _____ _____    ______ ____
ROOT
ATOM      1  C   UNL     1       0.175  10.164  21.352  0.00  0.00    +0.000 C 
ATOM      2  N   UNL     1       0.813   9.439  20.262  0.00  0.00    +0.000 N 
ATOM      3  C   UNL     1       1.442   8.227  20.609  0.00  0.00    +0.000 C 
ATOM      4  O   UNL     1       1.371   7.750  21.741  0.00  0.00    +0.000 OA
ENDROOT
BRANCH   3   5
ATOM      5  C   UNL     1       2.190   7.455  19.579  0.00  0.00    +0.000 A 
ATOM      6  C   UNL     1       2.323   6.071  19.639  0.00  0.00    +0.000 A 
ATOM      7  C   UNL     1       3.117   5.391  18.713  0.00  0.00    +0.000 A 
ATOM      8  C   UNL     1       3.734   6.058  17.650  0.00  0.00    +0.000 A 
ATOM      9  C   UNL     1       3.502   7.438  17.533  0.00  0.00    +0.000 A 
ATOM     10  C   UNL     1       2.738   8.132  18.487  0.00  0.00    +0.000 A 
BRANCH   8  11
ATOM     11  N   UNL     1       4.569   5.363  16.730  0.00  0.00    +0.000 N 
ATOM     12  C   UNL     1       4.736   3.928  16.761  0.00  0.00    +0.000 C 
ATOM     13  C   UNL     1       5.882   3.657  15.809  0.00  0.00    +0.000 C 
ATOM     14  C   UNL     1       5.779   4.776  14.794  0.00  0.00    +0.000 C 
ATOM     15  C   UNL     1       5.173   5.914  15.583  0.00  0.00    +0.000 C 
ATOM     16  O   UNL     1       5.205   7.071  15.196  0.00  0.00    +0.000 OA
ENDBRANCH   8  11
ENDBRANCH   3   5
BRANCH   2  17
ATOM     17  C   UNL     1       0.606   9.878  18.872  0.00  0.00    +0.000 C 
BRANCH  17  18
ATOM     18  C   UNL     1      -0.554  10.798  18.503  0.00  0.00    +0.000 C 
ATOM     19  O   UNL     1      -0.386  12.010  18.383  0.00  0.00    +0.000 OA
ATOM     20  N   UNL     1      -1.776  10.153  18.382  0.00  0.00    +0.000 N 
ATOM     21  H   UNL     1      -1.888   9.320  18.950  0.00  0.00    +0.000 HD
BRANCH  20  22
ATOM     22  C   UNL     1      -2.934  10.879  18.045  0.00  0.00    +0.000 A 
ATOM     23  C   UNL     1      -3.644  11.605  19.010  0.00  0.00    +0.000 A 
ATOM     24  C   UNL     1      -4.840  12.236  18.672  0.00  0.00    +0.000 A 
ATOM     25  C   UNL     1      -5.332  12.122  17.374  0.00  0.00    +0.000 A 
ATOM     26 CL   UNL     1      -6.850  12.821  16.972  0.00  0.00    +0.000 Cl
ATOM     27  C   UNL     1      -4.608  11.430  16.402  0.00  0.00    +0.000 A 
ATOM     28  C   UNL     1      -3.388  10.838  16.729  0.00  0.00    +0.000 A 
ENDBRANCH  20  22
ENDBRANCH  17  18
ENDBRANCH   2  17
TORSDOF 5
ENDMDL
