MODEL 1
REMARK VINA RESULT:      -7.8      0.000      0.000
REMARK  Name = 
REMARK  5 active torsions:
REMARK  status: ('A' for Active; 'I' for Inactive)
REMARK    1  A    between atoms: C_1  and  O_2
REMARK    2  A    between atoms: O_2  and  C_3
REMARK    3  A    between atoms: C_3  and  C_5
REMARK    4  A    between atoms: C_11  and  N_12
REMARK    5  A    between atoms: N_15  and  C_16
REMARK                            x       y       z     vdW  Elec       q    Type
REMARK                         _______ _______ _______ _____ _____    ______ ____
ROOT
ATOM      1  N   UNL     1       2.888   5.832  20.194  0.00  0.00    +0.000 N 
ATOM      2  C   UNL     1       2.200   7.032  20.055  0.00  0.00    +0.000 C 
ATOM      3  O   UNL     1       2.118   7.632  18.988  0.00  0.00    +0.000 OA
ATOM      4  N   UNL     1       1.652   7.491  21.242  0.00  0.00    +0.000 N 
ATOM      5  H   UNL     1       2.570   5.192  20.919  0.00  0.00    +0.000 HD
ATOM      6  H   UNL     1       1.975   7.044  22.089  0.00  0.00    +0.000 HD
ENDROOT
BRANCH   1  13
ATOM      7  C   UNL     1       3.206   4.414  18.175  0.00  0.00    +0.000 A 
ATOM      8  C   UNL     1       4.072   3.905  17.179  0.00  0.00    +0.000 A 
ATOM      9  C   UNL     1       5.423   4.245  17.151  0.00  0.00    +0.000 A 
ATOM     10  C   UNL     1       5.933   5.074  18.136  0.00  0.00    +0.000 A 
ATOM     11 CL   UNL     1       7.593   5.517  18.103  0.00  0.00    +0.000 Cl
ATOM     12  C   UNL     1       5.102   5.558  19.146  0.00  0.00    +0.000 A 
ATOM     13  C   UNL     1       3.723   5.273  19.172  0.00  0.00    +0.000 A 
BRANCH   7  14
ATOM     14  C   UNL     1       1.755   4.058  18.120  0.00  0.00    +0.000 C 
ATOM     15  O   UNL     1       1.029   4.285  17.164  0.00  0.00    +0.000 OA
BRANCH  14  17
ATOM     16  C   UNL     1       1.642   2.040  19.362  0.00  0.00    +0.000 C 
ATOM     17  O   UNL     1       1.395   3.443  19.274  0.00  0.00    +0.000 OA
ENDBRANCH  14  17
ENDBRANCH   7  14
ENDBRANCH   1  13
BRANCH   4  18
ATOM     18  C   UNL     1       0.969   8.732  21.383  0.00  0.00    +0.000 A 
ATOM     19  C   UNL     1       0.456   9.190  22.604  0.00  0.00    +0.000 A 
ATOM     20  C   UNL     1      -0.296  10.364  22.687  0.00  0.00    +0.000 A 
ATOM     21  C   UNL     1      -0.528  11.121  21.545  0.00  0.00    +0.000 A 
ATOM     22  C   UNL     1       0.018  10.707  20.333  0.00  0.00    +0.000 A 
ATOM     23 BR   UNL     1      -0.293  11.743  18.780  0.00  0.00    +0.000 Br
ATOM     24  C   UNL     1       0.775   9.526  20.249  0.00  0.00    +0.000 A 
ENDBRANCH   4  18
TORSDOF 4
ENDMDL
MODEL 2
REMARK VINA RESULT:      -7.7      4.428      7.647
REMARK  Name = 
REMARK  5 active torsions:
REMARK  status: ('A' for Active; 'I' for Inactive)
REMARK    1  A    between atoms: C_1  and  O_2
REMARK    2  A    between atoms: O_2  and  C_3
REMARK    3  A    between atoms: C_3  and  C_5
REMARK    4  A    between atoms: C_11  and  N_12
REMARK    5  A    between atoms: N_15  and  C_16
REMARK                            x       y       z     vdW  Elec       q    Type
REMARK                         _______ _______ _______ _____ _____    ______ ____
ROOT
ATOM      1  N   UNL     1       5.268   4.747  18.309  0.00  0.00    +0.000 N 
ATOM      2  C   UNL     1       5.347   4.946  16.935  0.00  0.00    +0.000 C 
ATOM      3  O   UNL     1       4.447   5.471  16.288  0.00  0.00    +0.000 OA
ATOM      4  N   UNL     1       6.518   4.461  16.376  0.00  0.00    +0.000 N 
ATOM      5  H   UNL     1       6.144   4.733  18.829  0.00  0.00    +0.000 HD
ATOM      6  H   UNL     1       7.074   3.849  16.957  0.00  0.00    +0.000 HD
ENDROOT
BRANCH   1  13
ATOM      7  C   UNL     1       3.424   3.893  19.742  0.00  0.00    +0.000 A 
ATOM      8  C   UNL     1       2.259   4.158  20.500  0.00  0.00    +0.000 A 
ATOM      9  C   UNL     1       1.749   5.450  20.614  0.00  0.00    +0.000 A 
ATOM     10  C   UNL     1       2.377   6.488  19.948  0.00  0.00    +0.000 A 
ATOM     11 CL   UNL     1       1.769   8.089  20.096  0.00  0.00    +0.000 Cl
ATOM     12  C   UNL     1       3.507   6.240  19.169  0.00  0.00    +0.000 A 
ATOM     13  C   UNL     1       4.076   4.955  19.075  0.00  0.00    +0.000 A 
BRANCH   7  14
ATOM     14  C   UNL     1       3.956   2.496  19.703  0.00  0.00    +0.000 C 
ATOM     15  O   UNL     1       5.008   2.149  20.217  0.00  0.00    +0.000 OA
BRANCH  14  17
ATOM     16  C   UNL     1       2.829   2.034  17.668  0.00  0.00    +0.000 C 
ATOM     17  O   UNL     1       3.089   1.699  19.030  0.00  0.00    +0.000 OA
ENDBRANCH  14  17
ENDBRANCH   7  14
ENDBRANCH   1  13
BRANCH   4  18
ATOM     18  C   UNL     1       6.805   4.470  14.982  0.00  0.00    +0.000 A 
ATOM     19  C   UNL     1       7.758   5.318  14.401  0.00  0.00    +0.000 A 
ATOM     20  C   UNL     1       7.942   5.371  13.016  0.00  0.00    +0.000 A 
ATOM     21  C   UNL     1       7.188   4.552  12.185  0.00  0.00    +0.000 A 
ATOM     22  C   UNL     1       6.274   3.667  12.750  0.00  0.00    +0.000 A 
ATOM     23 BR   UNL     1       5.254   2.547  11.616  0.00  0.00    +0.000 Br
ATOM     24  C   UNL     1       6.088   3.613  14.142  0.00  0.00    +0.000 A 
ENDBRANCH   4  18
TORSDOF 4
ENDMDL
MODEL 3
REMARK VINA RESULT:      -7.7      4.074      6.129
REMARK  Name = 
REMARK  5 active torsions:
REMARK  status: ('A' for Active; 'I' for Inactive)
REMARK    1  A    between atoms: C_1  and  O_2
REMARK    2  A    between atoms: O_2  and  C_3
REMARK    3  A    between atoms: C_3  and  C_5
REMARK    4  A    between atoms: C_11  and  N_12
REMARK    5  A    between atoms: N_15  and  C_16
REMARK                            x       y       z     vdW  Elec       q    Type
REMARK                         _______ _______ _______ _____ _____    ______ ____
ROOT
ATOM      1  N   UNL     1       5.631   3.200  16.471  0.00  0.00    +0.000 N 
ATOM      2  C   UNL     1       4.460   3.637  17.081  0.00  0.00    +0.000 C 
ATOM      3  O   UNL     1       3.689   4.428  16.548  0.00  0.00    +0.000 OA
ATOM      4  N   UNL     1       4.278   3.119  18.353  0.00  0.00    +0.000 N 
ATOM      5  H   UNL     1       5.974   2.276  16.726  0.00  0.00    +0.000 HD
ATOM      6  H   UNL     1       5.079   2.671  18.775  0.00  0.00    +0.000 HD
ENDROOT
BRANCH   1  13
ATOM      7  C   UNL     1       7.053   4.848  15.268  0.00  0.00    +0.000 A 
ATOM      8  C   UNL     1       7.550   5.349  14.042  0.00  0.00    +0.000 A 
ATOM      9  C   UNL     1       7.180   4.782  12.825  0.00  0.00    +0.000 A 
ATOM     10  C   UNL     1       6.285   3.726  12.814  0.00  0.00    +0.000 A 
ATOM     11 CL   UNL     1       5.835   3.004  11.320  0.00  0.00    +0.000 Cl
ATOM     12  C   UNL     1       5.758   3.240  14.010  0.00  0.00    +0.000 A 
ATOM     13  C   UNL     1       6.151   3.760  15.259  0.00  0.00    +0.000 A 
BRANCH   7  14
ATOM     14  C   UNL     1       7.530   5.462  16.545  0.00  0.00    +0.000 C 
ATOM     15  O   UNL     1       7.839   4.824  17.539  0.00  0.00    +0.000 OA
BRANCH  14  17
ATOM     16  C   UNL     1       7.657   7.576  17.613  0.00  0.00    +0.000 C 
ATOM     17  O   UNL     1       7.574   6.811  16.411  0.00  0.00    +0.000 OA
ENDBRANCH  14  17
ENDBRANCH   7  14
ENDBRANCH   1  13
BRANCH   4  18
ATOM     18  C   UNL     1       3.203   3.473  19.216  0.00  0.00    +0.000 A 
ATOM     19  C   UNL     1       2.285   2.540  19.719  0.00  0.00    +0.000 A 
ATOM     20  C   UNL     1       1.183   2.936  20.482  0.00  0.00    +0.000 A 
ATOM     21  C   UNL     1       0.993   4.280  20.778  0.00  0.00    +0.000 A 
ATOM     22  C   UNL     1       1.923   5.213  20.330  0.00  0.00    +0.000 A 
ATOM     23 BR   UNL     1       1.665   7.042  20.742  0.00  0.00    +0.000 Br
ATOM     24  C   UNL     1       3.031   4.816  19.563  0.00  0.00    +0.000 A 
ENDBRANCH   4  18
TORSDOF 4
ENDMDL
MODEL 4
REMARK VINA RESULT:      -7.6      2.008      2.238
REMARK  Name = 
REMARK  5 active torsions:
REMARK  status: ('A' for Active; 'I' for Inactive)
REMARK    1  A    between atoms: C_1  and  O_2
REMARK    2  A    between atoms: O_2  and  C_3
REMARK    3  A    between atoms: C_3  and  C_5
REMARK    4  A    between atoms: C_11  and  N_12
REMARK    5  A    between atoms: N_15  and  C_16
REMARK                            x       y       z     vdW  Elec       q    Type
REMARK                         _______ _______ _______ _____ _____    ______ ____
ROOT
ATOM      1  N   UNL     1       2.626   7.084  18.960  0.00  0.00    +0.000 N 
ATOM      2  C   UNL     1       2.037   8.202  18.380  0.00  0.00    +0.000 C 
ATOM      3  O   UNL     1       2.109   8.443  17.179  0.00  0.00    +0.000 OA
ATOM      4  N   UNL     1       1.400   9.024  19.295  0.00  0.00    +0.000 N 
ATOM      5  H   UNL     1       2.191   6.711  19.802  0.00  0.00    +0.000 HD
ATOM      6  H   UNL     1       1.602   8.853  20.270  0.00  0.00    +0.000 HD
ENDROOT
BRANCH   1  13
ATOM      7  C   UNL     1       3.127   4.922  17.836  0.00  0.00    +0.000 A 
ATOM      8  C   UNL     1       4.049   4.107  17.139  0.00  0.00    +0.000 A 
ATOM      9  C   UNL     1       5.338   4.554  16.853  0.00  0.00    +0.000 A 
ATOM     10  C   UNL     1       5.732   5.808  17.287  0.00  0.00    +0.000 A 
ATOM     11 CL   UNL     1       7.313   6.378  16.924  0.00  0.00    +0.000 Cl
ATOM     12  C   UNL     1       4.848   6.612  18.006  0.00  0.00    +0.000 A 
ATOM     13  C   UNL     1       3.524   6.209  18.266  0.00  0.00    +0.000 A 
BRANCH   7  14
ATOM     14  C   UNL     1       1.741   4.411  18.065  0.00  0.00    +0.000 C 
ATOM     15  O   UNL     1       0.988   4.050  17.173  0.00  0.00    +0.000 OA
BRANCH  14  17
ATOM     16  C   UNL     1       1.071   3.154  19.961  0.00  0.00    +0.000 C 
ATOM     17  O   UNL     1       1.474   4.401  19.394  0.00  0.00    +0.000 OA
ENDBRANCH  14  17
ENDBRANCH   7  14
ENDBRANCH   1  13
BRANCH   4  18
ATOM     18  C   UNL     1       0.791  10.268  18.968  0.00  0.00    +0.000 A 
ATOM     19  C   UNL     1       1.489  11.483  18.950  0.00  0.00    +0.000 A 
ATOM     20  C   UNL     1       0.838  12.698  18.723  0.00  0.00    +0.000 A 
ATOM     21  C   UNL     1      -0.530  12.716  18.482  0.00  0.00    +0.000 A 
ATOM     22  C   UNL     1      -1.230  11.513  18.445  0.00  0.00    +0.000 A 
ATOM     23 BR   UNL     1      -3.092  11.540  18.108  0.00  0.00    +0.000 Br
ATOM     24  C   UNL     1      -0.576  10.291  18.673  0.00  0.00    +0.000 A 
ENDBRANCH   4  18
TORSDOF 4
ENDMDL
MODEL 5
REMARK VINA RESULT:      -7.5      3.022      3.991
REMARK  Name = 
REMARK  5 active torsions:
REMARK  status: ('A' for Active; 'I' for Inactive)
REMARK    1  A    between atoms: C_1  and  O_2
REMARK    2  A    between atoms: O_2  and  C_3
REMARK    3  A    between atoms: C_3  and  C_5
REMARK    4  A    between atoms: C_11  and  N_12
REMARK    5  A    between atoms: N_15  and  C_16
REMARK                            x       y       z     vdW  Elec       q    Type
REMARK                         _______ _______ _______ _____ _____    ______ ____
ROOT
ATOM      1  N   UNL     1       3.091   6.505  17.712  0.00  0.00    +0.000 N 
ATOM      2  C   UNL     1       2.483   7.546  18.406  0.00  0.00    +0.000 C 
ATOM      3  O   UNL     1       2.108   7.439  19.569  0.00  0.00    +0.000 OA
ATOM      4  N   UNL     1       2.315   8.689  17.642  0.00  0.00    +0.000 N 
ATOM      5  H   UNL     1       3.744   6.755  16.973  0.00  0.00    +0.000 HD
ATOM      6  H   UNL     1       2.445   8.588  16.645  0.00  0.00    +0.000 HD
ENDROOT
BRANCH   1  13
ATOM      7  C   UNL     1       4.385   4.617  18.685  0.00  0.00    +0.000 A 
ATOM      8  C   UNL     1       4.404   3.291  19.178  0.00  0.00    +0.000 A 
ATOM      9  C   UNL     1       3.246   2.516  19.217  0.00  0.00    +0.000 A 
ATOM     10  C   UNL     1       2.061   3.045  18.735  0.00  0.00    +0.000 A 
ATOM     11 CL   UNL     1       0.622   2.107  18.794  0.00  0.00    +0.000 Cl
ATOM     12  C   UNL     1       2.030   4.338  18.213  0.00  0.00    +0.000 A 
ATOM     13  C   UNL     1       3.172   5.163  18.206  0.00  0.00    +0.000 A 
BRANCH   7  14
ATOM     14  C   UNL     1       5.646   5.417  18.720  0.00  0.00    +0.000 C 
ATOM     15  O   UNL     1       6.378   5.502  19.695  0.00  0.00    +0.000 OA
BRANCH  14  17
ATOM     16  C   UNL     1       6.675   5.309  16.585  0.00  0.00    +0.000 C 
ATOM     17  O   UNL     1       5.845   6.006  17.514  0.00  0.00    +0.000 OA
ENDBRANCH  14  17
ENDBRANCH   7  14
ENDBRANCH   1  13
BRANCH   4  18
ATOM     18  C   UNL     1       1.649   9.864  18.093  0.00  0.00    +0.000 A 
ATOM     19  C   UNL     1       0.292   9.889  18.444  0.00  0.00    +0.000 A 
ATOM     20  C   UNL     1      -0.353  11.080  18.785  0.00  0.00    +0.000 A 
ATOM     21  C   UNL     1       0.359  12.273  18.807  0.00  0.00    +0.000 A 
ATOM     22  C   UNL     1       1.719  12.257  18.511  0.00  0.00    +0.000 A 
ATOM     23 BR   UNL     1       2.690  13.881  18.548  0.00  0.00    +0.000 Br
ATOM     24  C   UNL     1       2.369  11.059  18.167  0.00  0.00    +0.000 A 
ENDBRANCH   4  18
TORSDOF 4
ENDMDL
MODEL 6
REMARK VINA RESULT:      -7.5      1.312      1.694
REMARK  Name = 
REMARK  5 active torsions:
REMARK  status: ('A' for Active; 'I' for Inactive)
REMARK    1  A    between atoms: C_1  and  O_2
REMARK    2  A    between atoms: O_2  and  C_3
REMARK    3  A    between atoms: C_3  and  C_5
REMARK    4  A    between atoms: C_11  and  N_12
REMARK    5  A    between atoms: N_15  and  C_16
REMARK                            x       y       z     vdW  Elec       q    Type
REMARK                         _______ _______ _______ _____ _____    ______ ____
ROOT
ATOM      1  N   UNL     1       3.118   6.167  19.604  0.00  0.00    +0.000 N 
ATOM      2  C   UNL     1       2.292   7.246  19.308  0.00  0.00    +0.000 C 
ATOM      3  O   UNL     1       2.014   7.574  18.159  0.00  0.00    +0.000 OA
ATOM      4  N   UNL     1       1.851   7.924  20.433  0.00  0.00    +0.000 N 
ATOM      5  H   UNL     1       2.963   5.690  20.491  0.00  0.00    +0.000 HD
ATOM      6  H   UNL     1       2.323   7.712  21.300  0.00  0.00    +0.000 HD
ENDROOT
BRANCH   1  13
ATOM      7  C   UNL     1       3.388   4.264  18.026  0.00  0.00    +0.000 A 
ATOM      8  C   UNL     1       4.168   3.608  17.045  0.00  0.00    +0.000 A 
ATOM      9  C   UNL     1       5.400   4.118  16.640  0.00  0.00    +0.000 A 
ATOM     10  C   UNL     1       5.883   5.272  17.232  0.00  0.00    +0.000 A 
ATOM     11 CL   UNL     1       7.393   5.922  16.728  0.00  0.00    +0.000 Cl
ATOM     12  C   UNL     1       5.144   5.914  18.225  0.00  0.00    +0.000 A 
ATOM     13  C   UNL     1       3.873   5.452  18.620  0.00  0.00    +0.000 A 
BRANCH   7  14
ATOM     14  C   UNL     1       2.049   3.700  18.379  0.00  0.00    +0.000 C 
ATOM     15  O   UNL     1       1.070   3.751  17.650  0.00  0.00    +0.000 OA
BRANCH  14  17
ATOM     16  C   UNL     1       1.053   3.436  20.515  0.00  0.00    +0.000 C 
ATOM     17  O   UNL     1       2.108   3.125  19.605  0.00  0.00    +0.000 OA
ENDBRANCH  14  17
ENDBRANCH   7  14
ENDBRANCH   1  13
BRANCH   4  18
ATOM     18  C   UNL     1       1.061   9.108  20.397  0.00  0.00    +0.000 A 
ATOM     19  C   UNL     1       1.022   9.970  19.292  0.00  0.00    +0.000 A 
ATOM     20  C   UNL     1       0.315  11.175  19.329  0.00  0.00    +0.000 A 
ATOM     21  C   UNL     1      -0.391  11.529  20.472  0.00  0.00    +0.000 A 
ATOM     22  C   UNL     1      -0.404  10.660  21.559  0.00  0.00    +0.000 A 
ATOM     23 BR   UNL     1      -1.373  11.141  23.113  0.00  0.00    +0.000 Br
ATOM     24  C   UNL     1       0.306   9.448  21.523  0.00  0.00    +0.000 A 
ENDBRANCH   4  18
TORSDOF 4
ENDMDL
MODEL 7
REMARK VINA RESULT:      -7.5      5.510      6.644
REMARK  Name = 
REMARK  5 active torsions:
REMARK  status: ('A' for Active; 'I' for Inactive)
REMARK    1  A    between atoms: C_1  and  O_2
REMARK    2  A    between atoms: O_2  and  C_3
REMARK    3  A    between atoms: C_3  and  C_5
REMARK    4  A    between atoms: C_11  and  N_12
REMARK    5  A    between atoms: N_15  and  C_16
REMARK                            x       y       z     vdW  Elec       q    Type
REMARK                         _______ _______ _______ _____ _____    ______ ____
ROOT
ATOM      1  N   UNL     1       7.693   6.379  18.086  0.00  0.00    +0.000 N 
ATOM      2  C   UNL     1       7.779   7.764  17.994  0.00  0.00    +0.000 C 
ATOM      3  O   UNL     1       7.125   8.418  17.187  0.00  0.00    +0.000 OA
ATOM      4  N   UNL     1       8.694   8.317  18.874  0.00  0.00    +0.000 N 
ATOM      5  H   UNL     1       7.884   5.959  18.993  0.00  0.00    +0.000 HD
ATOM      6  H   UNL     1       9.334   7.675  19.320  0.00  0.00    +0.000 HD
ENDROOT
BRANCH   1  13
ATOM      7  C   UNL     1       5.871   4.786  17.514  0.00  0.00    +0.000 A 
ATOM      8  C   UNL     1       5.205   4.012  16.535  0.00  0.00    +0.000 A 
ATOM      9  C   UNL     1       5.622   4.011  15.205  0.00  0.00    +0.000 A 
ATOM     10  C   UNL     1       6.728   4.760  14.842  0.00  0.00    +0.000 A 
ATOM     11 CL   UNL     1       7.242   4.783  13.202  0.00  0.00    +0.000 Cl
ATOM     12  C   UNL     1       7.419   5.502  15.800  0.00  0.00    +0.000 A 
ATOM     13  C   UNL     1       6.992   5.563  17.141  0.00  0.00    +0.000 A 
BRANCH   7  14
ATOM     14  C   UNL     1       5.344   4.790  18.912  0.00  0.00    +0.000 C 
ATOM     15  O   UNL     1       4.841   5.764  19.453  0.00  0.00    +0.000 OA
BRANCH  14  17
ATOM     16  C   UNL     1       4.308   2.847  19.793  0.00  0.00    +0.000 C 
ATOM     17  O   UNL     1       5.499   3.559  19.459  0.00  0.00    +0.000 OA
ENDBRANCH  14  17
ENDBRANCH   7  14
ENDBRANCH   1  13
BRANCH   4  18
ATOM     18  C   UNL     1       9.025   9.701  18.923  0.00  0.00    +0.000 A 
ATOM     19  C   UNL     1       9.422  10.434  17.796  0.00  0.00    +0.000 A 
ATOM     20  C   UNL     1       9.836  11.765  17.898  0.00  0.00    +0.000 A 
ATOM     21  C   UNL     1       9.837  12.398  19.135  0.00  0.00    +0.000 A 
ATOM     22  C   UNL     1       9.397  11.699  20.256  0.00  0.00    +0.000 A 
ATOM     23 BR   UNL     1       9.391  12.565  21.939  0.00  0.00    +0.000 Br
ATOM     24  C   UNL     1       8.980  10.361  20.154  0.00  0.00    +0.000 A 
ENDBRANCH   4  18
TORSDOF 4
ENDMDL
MODEL 8
REMARK VINA RESULT:      -7.5      3.035      4.055
REMARK  Name = 
REMARK  5 active torsions:
REMARK  status: ('A' for Active; 'I' for Inactive)
REMARK    1  A    between atoms: C_1  and  O_2
REMARK    2  A    between atoms: O_2  and  C_3
REMARK    3  A    between atoms: C_3  and  C_5
REMARK    4  A    between atoms: C_11  and  N_12
REMARK    5  A    between atoms: N_15  and  C_16
REMARK                            x       y       z     vdW  Elec       q    Type
REMARK                         _______ _______ _______ _____ _____    ______ ____
ROOT
ATOM      1  N   UNL     1       3.361   6.505  17.831  0.00  0.00    +0.000 N 
ATOM      2  C   UNL     1       2.594   7.509  18.413  0.00  0.00    +0.000 C 
ATOM      3  O   UNL     1       2.020   7.367  19.487  0.00  0.00    +0.000 OA
ATOM      4  N   UNL     1       2.519   8.658  17.643  0.00  0.00    +0.000 N 
ATOM      5  H   UNL     1       4.127   6.794  17.226  0.00  0.00    +0.000 HD
ATOM      6  H   UNL     1       2.833   8.580  16.686  0.00  0.00    +0.000 HD
ENDROOT
BRANCH   1  13
ATOM      7  C   UNL     1       4.604   4.584  18.806  0.00  0.00    +0.000 A 
ATOM      8  C   UNL     1       4.589   3.255  19.292  0.00  0.00    +0.000 A 
ATOM      9  C   UNL     1       3.414   2.505  19.313  0.00  0.00    +0.000 A 
ATOM     10  C   UNL     1       2.246   3.062  18.822  0.00  0.00    +0.000 A 
ATOM     11 CL   UNL     1       0.786   2.155  18.860  0.00  0.00    +0.000 Cl
ATOM     12  C   UNL     1       2.249   4.358  18.307  0.00  0.00    +0.000 A 
ATOM     13  C   UNL     1       3.408   5.159  18.318  0.00  0.00    +0.000 A 
BRANCH   7  14
ATOM     14  C   UNL     1       5.882   5.357  18.859  0.00  0.00    +0.000 C 
ATOM     15  O   UNL     1       6.611   5.409  19.838  0.00  0.00    +0.000 OA
BRANCH  14  17
ATOM     16  C   UNL     1       7.301   6.717  17.532  0.00  0.00    +0.000 C 
ATOM     17  O   UNL     1       6.097   5.962  17.665  0.00  0.00    +0.000 OA
ENDBRANCH  14  17
ENDBRANCH   7  14
ENDBRANCH   1  13
BRANCH   4  18
ATOM     18  C   UNL     1       1.734   9.797  17.977  0.00  0.00    +0.000 A 
ATOM     19  C   UNL     1       2.288  11.016  18.390  0.00  0.00    +0.000 A 
ATOM     20  C   UNL     1       1.485  12.081  18.807  0.00  0.00    +0.000 A 
ATOM     21  C   UNL     1       0.102  11.952  18.794  0.00  0.00    +0.000 A 
ATOM     22  C   UNL     1      -0.466  10.766  18.338  0.00  0.00    +0.000 A 
ATOM     23 BR   UNL     1      -2.351  10.595  18.314  0.00  0.00    +0.000 Br
ATOM     24  C   UNL     1       0.341   9.695  17.919  0.00  0.00    +0.000 A 
ENDBRANCH   4  18
TORSDOF 4
ENDMDL
MODEL 9
REMARK VINA RESULT:      -7.5      1.972      2.216
REMARK  Name = 
REMARK  5 active torsions:
REMARK  status: ('A' for Active; 'I' for Inactive)
REMARK    1  A    between atoms: C_1  and  O_2
REMARK    2  A    between atoms: O_2  and  C_3
REMARK    3  A    between atoms: C_3  and  C_5
REMARK    4  A    between atoms: C_11  and  N_12
REMARK    5  A    between atoms: N_15  and  C_16
REMARK                            x       y       z     vdW  Elec       q    Type
REMARK                         _______ _______ _______ _____ _____    ______ ____
ROOT
ATOM      1  N   UNL     1       2.640   7.083  19.018  0.00  0.00    +0.000 N 
ATOM      2  C   UNL     1       2.012   8.200  18.478  0.00  0.00    +0.000 C 
ATOM      3  O   UNL     1       2.041   8.464  17.280  0.00  0.00    +0.000 OA
ATOM      4  N   UNL     1       1.390   8.993  19.428  0.00  0.00    +0.000 N 
ATOM      5  H   UNL     1       2.239   6.687  19.867  0.00  0.00    +0.000 HD
ATOM      6  H   UNL     1       1.626   8.809  20.393  0.00  0.00    +0.000 HD
ENDROOT
BRANCH   1  13
ATOM      7  C   UNL     1       3.133   4.966  17.811  0.00  0.00    +0.000 A 
ATOM      8  C   UNL     1       4.048   4.180  17.071  0.00  0.00    +0.000 A 
ATOM      9  C   UNL     1       5.330   4.643  16.781  0.00  0.00    +0.000 A 
ATOM     10  C   UNL     1       5.725   5.882  17.254  0.00  0.00    +0.000 A 
ATOM     11 CL   UNL     1       7.298   6.473  16.888  0.00  0.00    +0.000 Cl
ATOM     12  C   UNL     1       4.849   6.656  18.014  0.00  0.00    +0.000 A 
ATOM     13  C   UNL     1       3.531   6.238  18.280  0.00  0.00    +0.000 A 
BRANCH   7  14
ATOM     14  C   UNL     1       1.753   4.440  18.042  0.00  0.00    +0.000 C 
ATOM     15  O   UNL     1       0.994   4.092  17.150  0.00  0.00    +0.000 OA
BRANCH  14  17
ATOM     16  C   UNL     1       0.904   3.206  19.881  0.00  0.00    +0.000 C 
ATOM     17  O   UNL     1       1.499   4.400  19.373  0.00  0.00    +0.000 OA
ENDBRANCH  14  17
ENDBRANCH   7  14
ENDBRANCH   1  13
BRANCH   4  18
ATOM     18  C   UNL     1       0.748  10.231  19.143  0.00  0.00    +0.000 A 
ATOM     19  C   UNL     1      -0.624  10.340  18.877  0.00  0.00    +0.000 A 
ATOM     20  C   UNL     1      -1.203  11.555  18.502  0.00  0.00    +0.000 A 
ATOM     21  C   UNL     1      -0.417  12.698  18.412  0.00  0.00    +0.000 A 
ATOM     22  C   UNL     1       0.937  12.618  18.724  0.00  0.00    +0.000 A 
ATOM     23 BR   UNL     1       2.003  14.177  18.608  0.00  0.00    +0.000 Br
ATOM     24  C   UNL     1       1.519  11.396  19.100  0.00  0.00    +0.000 A 
ENDBRANCH   4  18
TORSDOF 4
ENDMDL
