MODEL 1
REMARK VINA RESULT:      -9.1      0.000      0.000
REMARK  Name = 
REMARK  4 active torsions:
REMARK  status: ('A' for Active; 'I' for Inactive)
REMARK    1  A    between atoms: C_1  and  C_2
REMARK    2  A    between atoms: C_5  and  N_6
REMARK    3  A    between atoms: N_9  and  C_10
REMARK    4  A    between atoms: N_13  and  C_14
REMARK                            x       y       z     vdW  Elec       q    Type
REMARK                         _______ _______ _______ _____ _____    ______ ____
ROOT
ATOM      1  C   UNL     1       6.400   6.586  17.089  0.00  0.00    +0.000 C 
ATOM      2  C   UNL     1       4.983   6.496  16.482  0.00  0.00    +0.000 C 
ATOM      3  C   UNL     1       3.881   6.072  17.451  0.00  0.00    +0.000 C 
ATOM      4  N   UNL     1       4.411   4.949  18.206  0.00  0.00    +0.000 N 
ATOM      5  C   UNL     1       5.430   5.360  19.165  0.00  0.00    +0.000 C 
ATOM      6  C   UNL     1       6.672   5.762  18.371  0.00  0.00    +0.000 C 
ENDROOT
BRANCH   4   7
ATOM      7  C   UNL     1       3.616   3.853  18.475  0.00  0.00    +0.000 A 
ATOM      8  N   UNL     1       3.984   2.608  18.064  0.00  0.00    +0.000 NA
ATOM      9  C   UNL     1       3.217   1.545  18.401  0.00  0.00    +0.000 A 
ATOM     10  N   UNL     1       2.096   1.527  19.143  0.00  0.00    +0.000 NA
ATOM     11  C   UNL     1       1.785   2.763  19.561  0.00  0.00    +0.000 A 
ATOM     12  N   UNL     1       0.739   3.110  20.364  0.00  0.00    +0.000 N 
ATOM     13  N   UNL     1       0.690   4.427  20.657  0.00  0.00    +0.000 NA
ATOM     14  C   UNL     1       1.752   4.916  20.004  0.00  0.00    +0.000 A 
ATOM     15  C   UNL     1       2.464   3.932  19.281  0.00  0.00    +0.000 A 
ATOM     16  H   UNL     1       0.039   2.492  20.755  0.00  0.00    +0.000 HD
ENDBRANCH   4   7
BRANCH   1  20
ATOM     17  N   UNL     1       8.212   9.734  17.725  0.00  0.00    +0.000 N 
ATOM     18  C   UNL     1       7.960   8.384  17.905  0.00  0.00    +0.000 C 
ATOM     19  O   UNL     1       8.582   7.610  18.625  0.00  0.00    +0.000 OA
ATOM     20  N   UNL     1       6.914   7.963  17.124  0.00  0.00    +0.000 N 
ATOM     21  H   UNL     1       7.609  10.219  17.080  0.00  0.00    +0.000 HD
ATOM     22  H   UNL     1       6.262   8.673  16.828  0.00  0.00    +0.000 HD
BRANCH  17  27
ATOM     23  C   UNL     1      12.331  12.833  20.258  0.00  0.00    +0.000 C 
ATOM     24  C   UNL     1      11.260  12.026  19.585  0.00  0.00    +0.000 A 
ATOM     25  C   UNL     1      11.232  11.900  18.195  0.00  0.00    +0.000 A 
ATOM     26  C   UNL     1      10.236  11.145  17.564  0.00  0.00    +0.000 A 
ATOM     27  C   UNL     1       9.245  10.503  18.306  0.00  0.00    +0.000 A 
ATOM     28  C   UNL     1       9.267  10.636  19.702  0.00  0.00    +0.000 A 
ATOM     29  C   UNL     1      10.268  11.388  20.337  0.00  0.00    +0.000 A 
ENDBRANCH  17  27
ENDBRANCH   1  20
TORSDOF 3
ENDMDL
MODEL 2
REMARK VINA RESULT:      -8.4      1.517      1.834
REMARK  Name = 
REMARK  4 active torsions:
REMARK  status: ('A' for Active; 'I' for Inactive)
REMARK    1  A    between atoms: C_1  and  C_2
REMARK    2  A    between atoms: C_5  and  N_6
REMARK    3  A    between atoms: N_9  and  C_10
REMARK    4  A    between atoms: N_13  and  C_14
REMARK                            x       y       z     vdW  Elec       q    Type
REMARK                         _______ _______ _______ _____ _____    ______ ____
ROOT
ATOM      1  C   UNL     1       7.586   6.515  18.132  0.00  0.00    +0.000 C 
ATOM      2  C   UNL     1       6.377   7.108  17.377  0.00  0.00    +0.000 C 
ATOM      3  C   UNL     1       5.011   6.817  17.996  0.00  0.00    +0.000 C 
ATOM      4  N   UNL     1       5.015   5.407  18.349  0.00  0.00    +0.000 N 
ATOM      5  C   UNL     1       5.866   5.129  19.501  0.00  0.00    +0.000 C 
ATOM      6  C   UNL     1       7.316   5.300  19.052  0.00  0.00    +0.000 C 
ENDROOT
BRANCH   4   7
ATOM      7  C   UNL     1       3.902   4.625  18.112  0.00  0.00    +0.000 A 
ATOM      8  N   UNL     1       3.867   3.765  17.057  0.00  0.00    +0.000 NA
ATOM      9  C   UNL     1       2.789   2.964  16.890  0.00  0.00    +0.000 A 
ATOM     10  N   UNL     1       1.694   2.866  17.666  0.00  0.00    +0.000 NA
ATOM     11  C   UNL     1       1.781   3.699  18.713  0.00  0.00    +0.000 A 
ATOM     12  N   UNL     1       0.872   3.834  19.721  0.00  0.00    +0.000 N 
ATOM     13  N   UNL     1       1.237   4.724  20.669  0.00  0.00    +0.000 NA
ATOM     14  C   UNL     1       2.422   5.161  20.225  0.00  0.00    +0.000 A 
ATOM     15  C   UNL     1       2.808   4.578  18.997  0.00  0.00    +0.000 A 
ATOM     16  H   UNL     1      -0.003   3.335  19.825  0.00  0.00    +0.000 HD
ENDBRANCH   4   7
BRANCH   1  20
ATOM     17  N   UNL     1       9.352   9.608  19.091  0.00  0.00    +0.000 N 
ATOM     18  C   UNL     1       8.425   8.876  18.366  0.00  0.00    +0.000 C 
ATOM     19  O   UNL     1       7.635   9.309  17.534  0.00  0.00    +0.000 OA
ATOM     20  N   UNL     1       8.448   7.551  18.720  0.00  0.00    +0.000 N 
ATOM     21  H   UNL     1       9.914   9.090  19.748  0.00  0.00    +0.000 HD
ATOM     22  H   UNL     1       9.302   7.214  19.138  0.00  0.00    +0.000 HD
BRANCH  17  27
ATOM     23  C   UNL     1      10.327  15.257  18.747  0.00  0.00    +0.000 C 
ATOM     24  C   UNL     1      10.067  13.782  18.848  0.00  0.00    +0.000 A 
ATOM     25  C   UNL     1       9.535  13.232  20.016  0.00  0.00    +0.000 A 
ATOM     26  C   UNL     1       9.289  11.857  20.112  0.00  0.00    +0.000 A 
ATOM     27  C   UNL     1       9.573  11.003  19.048  0.00  0.00    +0.000 A 
ATOM     28  C   UNL     1      10.116  11.552  17.879  0.00  0.00    +0.000 A 
ATOM     29  C   UNL     1      10.359  12.931  17.778  0.00  0.00    +0.000 A 
ENDBRANCH  17  27
ENDBRANCH   1  20
TORSDOF 3
ENDMDL
MODEL 3
REMARK VINA RESULT:      -8.3      1.206      1.211
REMARK  Name = 
REMARK  4 active torsions:
REMARK  status: ('A' for Active; 'I' for Inactive)
REMARK    1  A    between atoms: C_1  and  C_2
REMARK    2  A    between atoms: C_5  and  N_6
REMARK    3  A    between atoms: N_9  and  C_10
REMARK    4  A    between atoms: N_13  and  C_14
REMARK                            x       y       z     vdW  Elec       q    Type
REMARK                         _______ _______ _______ _____ _____    ______ ____
ROOT
ATOM      1  C   UNL     1       6.866   5.975  16.588  0.00  0.00    +0.000 C 
ATOM      2  C   UNL     1       5.443   6.384  16.150  0.00  0.00    +0.000 C 
ATOM      3  C   UNL     1       4.353   6.192  17.203  0.00  0.00    +0.000 C 
ATOM      4  N   UNL     1       4.575   4.879  17.786  0.00  0.00    +0.000 N 
ATOM      5  C   UNL     1       5.751   4.849  18.648  0.00  0.00    +0.000 C 
ATOM      6  C   UNL     1       6.982   4.959  17.749  0.00  0.00    +0.000 C 
ENDROOT
BRANCH   4   7
ATOM      7  C   UNL     1       3.508   4.043  18.050  0.00  0.00    +0.000 A 
ATOM      8  N   UNL     1       3.408   2.828  17.443  0.00  0.00    +0.000 NA
ATOM      9  C   UNL     1       2.386   2.004  17.772  0.00  0.00    +0.000 A 
ATOM     10  N   UNL     1       1.412   2.205  18.678  0.00  0.00    +0.000 NA
ATOM     11  C   UNL     1       1.564   3.393  19.281  0.00  0.00    +0.000 A 
ATOM     12  N   UNL     1       0.785   3.904  20.277  0.00  0.00    +0.000 N 
ATOM     13  N   UNL     1       1.195   5.110  20.725  0.00  0.00    +0.000 NA
ATOM     14  C   UNL     1       2.273   5.356  19.971  0.00  0.00    +0.000 A 
ATOM     15  C   UNL     1       2.545   4.334  19.034  0.00  0.00    +0.000 A 
ATOM     16  H   UNL     1      -0.026   3.471  20.701  0.00  0.00    +0.000 HD
ENDBRANCH   4   7
BRANCH   1  20
ATOM     17  N   UNL     1       8.649   9.094  17.423  0.00  0.00    +0.000 N 
ATOM     18  C   UNL     1       7.637   8.159  17.572  0.00  0.00    +0.000 C 
ATOM     19  O   UNL     1       6.731   8.183  18.397  0.00  0.00    +0.000 OA
ATOM     20  N   UNL     1       7.779   7.123  16.683  0.00  0.00    +0.000 N 
ATOM     21  H   UNL     1       9.325   8.908  16.699  0.00  0.00    +0.000 HD
ATOM     22  H   UNL     1       8.316   7.318  15.852  0.00  0.00    +0.000 HD
BRANCH  17  27
ATOM     23  C   UNL     1       9.586  13.701  20.721  0.00  0.00    +0.000 C 
ATOM     24  C   UNL     1       9.338  12.505  19.849  0.00  0.00    +0.000 A 
ATOM     25  C   UNL     1       8.917  12.662  18.528  0.00  0.00    +0.000 A 
ATOM     26  C   UNL     1       8.689  11.548  17.711  0.00  0.00    +0.000 A 
ATOM     27  C   UNL     1       8.871  10.254  18.197  0.00  0.00    +0.000 A 
ATOM     28  C   UNL     1       9.285  10.095  19.527  0.00  0.00    +0.000 A 
ATOM     29  C   UNL     1       9.520  11.210  20.346  0.00  0.00    +0.000 A 
ENDBRANCH  17  27
ENDBRANCH   1  20
TORSDOF 3
ENDMDL
MODEL 4
REMARK VINA RESULT:      -8.2      1.251      1.554
REMARK  Name = 
REMARK  4 active torsions:
REMARK  status: ('A' for Active; 'I' for Inactive)
REMARK    1  A    between atoms: C_1  and  C_2
REMARK    2  A    between atoms: C_5  and  N_6
REMARK    3  A    between atoms: N_9  and  C_10
REMARK    4  A    between atoms: N_13  and  C_14
REMARK                            x       y       z     vdW  Elec       q    Type
REMARK                         _______ _______ _______ _____ _____    ______ ____
ROOT
ATOM      1  C   UNL     1       7.055   6.715  17.149  0.00  0.00    +0.000 C 
ATOM      2  C   UNL     1       5.657   6.452  16.549  0.00  0.00    +0.000 C 
ATOM      3  C   UNL     1       4.584   6.026  17.551  0.00  0.00    +0.000 C 
ATOM      4  N   UNL     1       5.200   5.024  18.406  0.00  0.00    +0.000 N 
ATOM      5  C   UNL     1       6.171   5.605  19.326  0.00  0.00    +0.000 C 
ATOM      6  C   UNL     1       7.383   6.037  18.501  0.00  0.00    +0.000 C 
ENDROOT
BRANCH   4   7
ATOM      7  C   UNL     1       4.497   3.893  18.772  0.00  0.00    +0.000 A 
ATOM      8  N   UNL     1       5.049   2.970  19.607  0.00  0.00    +0.000 NA
ATOM      9  C   UNL     1       4.311   1.906  20.000  0.00  0.00    +0.000 A 
ATOM     10  N   UNL     1       3.033   1.618  19.694  0.00  0.00    +0.000 NA
ATOM     11  C   UNL     1       2.512   2.566  18.902  0.00  0.00    +0.000 A 
ATOM     12  N   UNL     1       1.233   2.619  18.431  0.00  0.00    +0.000 N 
ATOM     13  N   UNL     1       0.971   3.712  17.684  0.00  0.00    +0.000 NA
ATOM     14  C   UNL     1       2.141   4.363  17.691  0.00  0.00    +0.000 A 
ATOM     15  C   UNL     1       3.151   3.690  18.414  0.00  0.00    +0.000 A 
ATOM     16  H   UNL     1       0.492   1.949  18.600  0.00  0.00    +0.000 HD
ENDBRANCH   4   7
BRANCH   1  20
ATOM     17  N   UNL     1       8.430  10.104  17.630  0.00  0.00    +0.000 N 
ATOM     18  C   UNL     1       8.229   8.779  17.984  0.00  0.00    +0.000 C 
ATOM     19  O   UNL     1       8.693   8.200  18.960  0.00  0.00    +0.000 OA
ATOM     20  N   UNL     1       7.451   8.129  17.060  0.00  0.00    +0.000 N 
ATOM     21  H   UNL     1       7.983  10.413  16.782  0.00  0.00    +0.000 HD
ATOM     22  H   UNL     1       6.853   8.709  16.491  0.00  0.00    +0.000 HD
BRANCH  17  27
ATOM     23  C   UNL     1      11.648  14.114  20.189  0.00  0.00    +0.000 C 
ATOM     24  C   UNL     1      10.809  13.059  19.531  0.00  0.00    +0.000 A 
ATOM     25  C   UNL     1      10.594  11.828  20.155  0.00  0.00    +0.000 A 
ATOM     26  C   UNL     1       9.808  10.843  19.545  0.00  0.00    +0.000 A 
ATOM     27  C   UNL     1       9.225  11.062  18.298  0.00  0.00    +0.000 A 
ATOM     28  C   UNL     1       9.448  12.293  17.665  0.00  0.00    +0.000 A 
ATOM     29  C   UNL     1      10.231  13.285  18.278  0.00  0.00    +0.000 A 
ENDBRANCH  17  27
ENDBRANCH   1  20
TORSDOF 3
ENDMDL
MODEL 5
REMARK VINA RESULT:      -8.2      6.817      7.885
REMARK  Name = 
REMARK  4 active torsions:
REMARK  status: ('A' for Active; 'I' for Inactive)
REMARK    1  A    between atoms: C_1  and  C_2
REMARK    2  A    between atoms: C_5  and  N_6
REMARK    3  A    between atoms: N_9  and  C_10
REMARK    4  A    between atoms: N_13  and  C_14
REMARK                            x       y       z     vdW  Elec       q    Type
REMARK                         _______ _______ _______ _____ _____    ______ ____
ROOT
ATOM      1  C   UNL     1       0.958   9.337  19.062  0.00  0.00    +0.000 C 
ATOM      2  C   UNL     1       1.061   8.311  20.212  0.00  0.00    +0.000 C 
ATOM      3  C   UNL     1       2.280   7.392  20.163  0.00  0.00    +0.000 C 
ATOM      4  N   UNL     1       2.396   6.941  18.786  0.00  0.00    +0.000 N 
ATOM      5  C   UNL     1       2.857   8.000  17.895  0.00  0.00    +0.000 C 
ATOM      6  C   UNL     1       1.718   9.009  17.754  0.00  0.00    +0.000 C 
ENDROOT
BRANCH   4   7
ATOM      7  C   UNL     1       2.706   5.625  18.507  0.00  0.00    +0.000 A 
ATOM      8  N   UNL     1       1.816   4.820  17.863  0.00  0.00    +0.000 NA
ATOM      9  C   UNL     1       2.175   3.555  17.545  0.00  0.00    +0.000 A 
ATOM     10  N   UNL     1       3.354   2.944  17.758  0.00  0.00    +0.000 NA
ATOM     11  C   UNL     1       4.216   3.776  18.359  0.00  0.00    +0.000 A 
ATOM     12  N   UNL     1       5.512   3.505  18.687  0.00  0.00    +0.000 N 
ATOM     13  N   UNL     1       6.161   4.546  19.250  0.00  0.00    +0.000 NA
ATOM     14  C   UNL     1       5.224   5.503  19.274  0.00  0.00    +0.000 A 
ATOM     15  C   UNL     1       3.981   5.079  18.752  0.00  0.00    +0.000 A 
ATOM     16  H   UNL     1       6.011   2.637  18.537  0.00  0.00    +0.000 HD
ENDBRANCH   4   7
BRANCH   1  20
ATOM     17  N   UNL     1       0.672  12.946  19.765  0.00  0.00    +0.000 N 
ATOM     18  C   UNL     1       0.279  11.758  19.170  0.00  0.00    +0.000 C 
ATOM     19  O   UNL     1      -0.693  11.586  18.443  0.00  0.00    +0.000 OA
ATOM     20  N   UNL     1       1.107  10.723  19.528  0.00  0.00    +0.000 N 
ATOM     21  H   UNL     1       1.492  12.904  20.348  0.00  0.00    +0.000 HD
ATOM     22  H   UNL     1       2.033  10.977  19.836  0.00  0.00    +0.000 HD
BRANCH  17  27
ATOM     23  C   UNL     1      -1.803  18.108  19.310  0.00  0.00    +0.000 C 
ATOM     24  C   UNL     1      -1.165  16.756  19.438  0.00  0.00    +0.000 A 
ATOM     25  C   UNL     1      -1.636  15.833  20.372  0.00  0.00    +0.000 A 
ATOM     26  C   UNL     1      -1.045  14.569  20.492  0.00  0.00    +0.000 A 
ATOM     27  C   UNL     1       0.031  14.203  19.685  0.00  0.00    +0.000 A 
ATOM     28  C   UNL     1       0.512  15.133  18.753  0.00  0.00    +0.000 A 
ATOM     29  C   UNL     1      -0.083  16.398  18.627  0.00  0.00    +0.000 A 
ENDBRANCH  17  27
ENDBRANCH   1  20
TORSDOF 3
ENDMDL
MODEL 6
REMARK VINA RESULT:      -8.0      6.752      9.546
REMARK  Name = 
REMARK  4 active torsions:
REMARK  status: ('A' for Active; 'I' for Inactive)
REMARK    1  A    between atoms: C_1  and  C_2
REMARK    2  A    between atoms: C_5  and  N_6
REMARK    3  A    between atoms: N_9  and  C_10
REMARK    4  A    between atoms: N_13  and  C_14
REMARK                            x       y       z     vdW  Elec       q    Type
REMARK                         _______ _______ _______ _____ _____    ______ ____
ROOT
ATOM      1  C   UNL     1       0.590   9.189  20.204  0.00  0.00    +0.000 C 
ATOM      2  C   UNL     1       0.926  10.636  19.783  0.00  0.00    +0.000 C 
ATOM      3  C   UNL     1       0.966  11.656  20.919  0.00  0.00    +0.000 C 
ATOM      4  N   UNL     1      -0.207  11.401  21.738  0.00  0.00    +0.000 N 
ATOM      5  C   UNL     1      -0.082  10.172  22.514  0.00  0.00    +0.000 C 
ATOM      6  C   UNL     1      -0.175   9.001  21.536  0.00  0.00    +0.000 C 
ENDROOT
BRANCH   4   7
ATOM      7  C   UNL     1      -0.956  12.451  22.231  0.00  0.00    +0.000 A 
ATOM      8  N   UNL     1      -0.507  13.195  23.279  0.00  0.00    +0.000 NA
ATOM      9  C   UNL     1      -1.232  14.259  23.696  0.00  0.00    +0.000 A 
ATOM     10  N   UNL     1      -2.382  14.736  23.187  0.00  0.00    +0.000 NA
ATOM     11  C   UNL     1      -2.774  14.002  22.135  0.00  0.00    +0.000 A 
ATOM     12  N   UNL     1      -3.870  14.222  21.355  0.00  0.00    +0.000 N 
ATOM     13  N   UNL     1      -4.000  13.345  20.336  0.00  0.00    +0.000 NA
ATOM     14  C   UNL     1      -2.937  12.545  20.496  0.00  0.00    +0.000 A 
ATOM     15  C   UNL     1      -2.144  12.888  21.615  0.00  0.00    +0.000 A 
ATOM     16  H   UNL     1      -4.555  14.961  21.457  0.00  0.00    +0.000 HD
ENDBRANCH   4   7
BRANCH   1  20
ATOM     17  N   UNL     1       3.195   6.908  18.932  0.00  0.00    +0.000 N 
ATOM     18  C   UNL     1       2.099   7.745  18.799  0.00  0.00    +0.000 C 
ATOM     19  O   UNL     1       1.527   8.047  17.757  0.00  0.00    +0.000 OA
ATOM     20  N   UNL     1       1.719   8.267  20.010  0.00  0.00    +0.000 N 
ATOM     21  H   UNL     1       3.549   6.782  19.867  0.00  0.00    +0.000 HD
ATOM     22  H   UNL     1       1.997   7.747  20.828  0.00  0.00    +0.000 HD
BRANCH  17  27
ATOM     23  C   UNL     1       5.998   4.044  14.819  0.00  0.00    +0.000 C 
ATOM     24  C   UNL     1       5.271   4.803  15.890  0.00  0.00    +0.000 A 
ATOM     25  C   UNL     1       5.461   6.178  16.041  0.00  0.00    +0.000 A 
ATOM     26  C   UNL     1       4.781   6.889  17.037  0.00  0.00    +0.000 A 
ATOM     27  C   UNL     1       3.902   6.244  17.905  0.00  0.00    +0.000 A 
ATOM     28  C   UNL     1       3.718   4.862  17.761  0.00  0.00    +0.000 A 
ATOM     29  C   UNL     1       4.394   4.147  16.759  0.00  0.00    +0.000 A 
ENDBRANCH  17  27
ENDBRANCH   1  20
TORSDOF 3
ENDMDL
MODEL 7
REMARK VINA RESULT:      -7.8      6.753      8.075
REMARK  Name = 
REMARK  4 active torsions:
REMARK  status: ('A' for Active; 'I' for Inactive)
REMARK    1  A    between atoms: C_1  and  C_2
REMARK    2  A    between atoms: C_5  and  N_6
REMARK    3  A    between atoms: N_9  and  C_10
REMARK    4  A    between atoms: N_13  and  C_14
REMARK                            x       y       z     vdW  Elec       q    Type
REMARK                         _______ _______ _______ _____ _____    ______ ____
ROOT
ATOM      1  C   UNL     1       1.000   9.342  19.078  0.00  0.00    +0.000 C 
ATOM      2  C   UNL     1       1.080   8.298  20.212  0.00  0.00    +0.000 C 
ATOM      3  C   UNL     1       2.293   7.370  20.163  0.00  0.00    +0.000 C 
ATOM      4  N   UNL     1       2.422   6.940  18.781  0.00  0.00    +0.000 N 
ATOM      5  C   UNL     1       2.902   8.009  17.913  0.00  0.00    +0.000 C 
ATOM      6  C   UNL     1       1.773   9.029  17.774  0.00  0.00    +0.000 C 
ENDROOT
BRANCH   4   7
ATOM      7  C   UNL     1       2.725   5.626  18.485  0.00  0.00    +0.000 A 
ATOM      8  N   UNL     1       1.832   4.836  17.827  0.00  0.00    +0.000 NA
ATOM      9  C   UNL     1       2.184   3.573  17.492  0.00  0.00    +0.000 A 
ATOM     10  N   UNL     1       3.359   2.951  17.701  0.00  0.00    +0.000 NA
ATOM     11  C   UNL     1       4.224   3.770  18.317  0.00  0.00    +0.000 A 
ATOM     12  N   UNL     1       5.517   3.486  18.647  0.00  0.00    +0.000 N 
ATOM     13  N   UNL     1       6.170   4.516  19.227  0.00  0.00    +0.000 NA
ATOM     14  C   UNL     1       5.239   5.477  19.260  0.00  0.00    +0.000 A 
ATOM     15  C   UNL     1       3.996   5.069  18.728  0.00  0.00    +0.000 A 
ATOM     16  H   UNL     1       6.011   2.617  18.487  0.00  0.00    +0.000 HD
ENDBRANCH   4   7
BRANCH   1  20
ATOM     17  N   UNL     1       0.582  12.746  20.437  0.00  0.00    +0.000 N 
ATOM     18  C   UNL     1       0.130  11.492  20.055  0.00  0.00    +0.000 C 
ATOM     19  O   UNL     1      -1.014  11.062  20.154  0.00  0.00    +0.000 OA
ATOM     20  N   UNL     1       1.154  10.720  19.567  0.00  0.00    +0.000 N 
ATOM     21  H   UNL     1       1.563  12.928  20.298  0.00  0.00    +0.000 HD
ATOM     22  H   UNL     1       1.958  11.216  19.213  0.00  0.00    +0.000 HD
BRANCH  17  27
ATOM     23  C   UNL     1      -2.462  17.047  22.720  0.00  0.00    +0.000 C 
ATOM     24  C   UNL     1      -1.666  15.918  22.134  0.00  0.00    +0.000 A 
ATOM     25  C   UNL     1      -1.136  14.921  22.956  0.00  0.00    +0.000 A 
ATOM     26  C   UNL     1      -0.395  13.865  22.413  0.00  0.00    +0.000 A 
ATOM     27  C   UNL     1      -0.164  13.783  21.040  0.00  0.00    +0.000 A 
ATOM     28  C   UNL     1      -0.687  14.789  20.216  0.00  0.00    +0.000 A 
ATOM     29  C   UNL     1      -1.435  15.846  20.758  0.00  0.00    +0.000 A 
ENDBRANCH  17  27
ENDBRANCH   1  20
TORSDOF 3
ENDMDL
MODEL 8
REMARK VINA RESULT:      -7.8      6.908      9.670
REMARK  Name = 
REMARK  4 active torsions:
REMARK  status: ('A' for Active; 'I' for Inactive)
REMARK    1  A    between atoms: C_1  and  C_2
REMARK    2  A    between atoms: C_5  and  N_6
REMARK    3  A    between atoms: N_9  and  C_10
REMARK    4  A    between atoms: N_13  and  C_14
REMARK                            x       y       z     vdW  Elec       q    Type
REMARK                         _______ _______ _______ _____ _____    ______ ____
ROOT
ATOM      1  C   UNL     1       0.648   9.469  19.944  0.00  0.00    +0.000 C 
ATOM      2  C   UNL     1       1.178  10.871  19.576  0.00  0.00    +0.000 C 
ATOM      3  C   UNL     1       1.234  11.874  20.727  0.00  0.00    +0.000 C 
ATOM      4  N   UNL     1      -0.027  11.747  21.439  0.00  0.00    +0.000 N 
ATOM      5  C   UNL     1      -0.107  10.507  22.203  0.00  0.00    +0.000 C 
ATOM      6  C   UNL     1      -0.245   9.360  21.203  0.00  0.00    +0.000 C 
ENDROOT
BRANCH   4   7
ATOM      7  C   UNL     1      -0.693  12.872  21.883  0.00  0.00    +0.000 A 
ATOM      8  N   UNL     1      -0.068  13.785  22.677  0.00  0.00    +0.000 NA
ATOM      9  C   UNL     1      -0.726  14.910  23.040  0.00  0.00    +0.000 A 
ATOM     10  N   UNL     1      -1.968  15.298  22.697  0.00  0.00    +0.000 NA
ATOM     11  C   UNL     1      -2.538  14.394  21.887  0.00  0.00    +0.000 A 
ATOM     12  N   UNL     1      -3.773  14.481  21.315  0.00  0.00    +0.000 N 
ATOM     13  N   UNL     1      -4.076  13.441  20.509  0.00  0.00    +0.000 NA
ATOM     14  C   UNL     1      -2.980  12.675  20.589  0.00  0.00    +0.000 A 
ATOM     15  C   UNL     1      -1.992  13.203  21.450  0.00  0.00    +0.000 A 
ATOM     16  H   UNL     1      -4.444  15.231  21.423  0.00  0.00    +0.000 HD
ENDBRANCH   4   7
BRANCH   1  20
ATOM     17  N   UNL     1       3.072   6.907  18.864  0.00  0.00    +0.000 N 
ATOM     18  C   UNL     1       2.088   7.860  18.651  0.00  0.00    +0.000 C 
ATOM     19  O   UNL     1       1.632   8.217  17.570  0.00  0.00    +0.000 OA
ATOM     20  N   UNL     1       1.680   8.428  19.832  0.00  0.00    +0.000 N 
ATOM     21  H   UNL     1       3.340   6.748  19.822  0.00  0.00    +0.000 HD
ATOM     22  H   UNL     1       1.837   7.885  20.667  0.00  0.00    +0.000 HD
BRANCH  17  27
ATOM     23  C   UNL     1       6.012   4.046  14.845  0.00  0.00    +0.000 C 
ATOM     24  C   UNL     1       5.238   4.783  15.898  0.00  0.00    +0.000 A 
ATOM     25  C   UNL     1       4.320   4.111  16.707  0.00  0.00    +0.000 A 
ATOM     26  C   UNL     1       3.599   4.794  17.694  0.00  0.00    +0.000 A 
ATOM     27  C   UNL     1       3.776   6.163  17.890  0.00  0.00    +0.000 A 
ATOM     28  C   UNL     1       4.690   6.841  17.072  0.00  0.00    +0.000 A 
ATOM     29  C   UNL     1       5.418   6.156  16.086  0.00  0.00    +0.000 A 
ENDBRANCH  17  27
ENDBRANCH   1  20
TORSDOF 3
ENDMDL
MODEL 9
REMARK VINA RESULT:      -7.7      6.830      9.606
REMARK  Name = 
REMARK  4 active torsions:
REMARK  status: ('A' for Active; 'I' for Inactive)
REMARK    1  A    between atoms: C_1  and  C_2
REMARK    2  A    between atoms: C_5  and  N_6
REMARK    3  A    between atoms: N_9  and  C_10
REMARK    4  A    between atoms: N_13  and  C_14
REMARK                            x       y       z     vdW  Elec       q    Type
REMARK                         _______ _______ _______ _____ _____    ______ ____
ROOT
ATOM      1  C   UNL     1       0.558   9.377  20.196  0.00  0.00    +0.000 C 
ATOM      2  C   UNL     1       1.053  10.776  19.769  0.00  0.00    +0.000 C 
ATOM      3  C   UNL     1       1.205  11.791  20.900  0.00  0.00    +0.000 C 
ATOM      4  N   UNL     1       0.011  11.671  21.719  0.00  0.00    +0.000 N 
ATOM      5  C   UNL     1      -0.003  10.440  22.500  0.00  0.00    +0.000 C 
ATOM      6  C   UNL     1      -0.224   9.282  21.528  0.00  0.00    +0.000 C 
ENDROOT
BRANCH   4   7
ATOM      7  C   UNL     1      -0.617  12.801  22.206  0.00  0.00    +0.000 A 
ATOM      8  N   UNL     1      -0.142  14.043  21.912  0.00  0.00    +0.000 NA
ATOM      9  C   UNL     1      -0.817  15.132  22.348  0.00  0.00    +0.000 A 
ATOM     10  N   UNL     1      -1.965  15.176  23.047  0.00  0.00    +0.000 NA
ATOM     11  C   UNL     1      -2.422  13.938  23.286  0.00  0.00    +0.000 A 
ATOM     12  N   UNL     1      -3.578  13.609  23.930  0.00  0.00    +0.000 N 
ATOM     13  N   UNL     1      -3.808  12.280  23.993  0.00  0.00    +0.000 NA
ATOM     14  C   UNL     1      -2.746  11.765  23.362  0.00  0.00    +0.000 A 
ATOM     15  C   UNL     1      -1.831  12.746  22.916  0.00  0.00    +0.000 A 
ATOM     16  H   UNL     1      -4.256  14.245  24.332  0.00  0.00    +0.000 HD
ENDBRANCH   4   7
BRANCH   1  20
ATOM     17  N   UNL     1       2.984   6.905  18.929  0.00  0.00    +0.000 N 
ATOM     18  C   UNL     1       2.024   7.894  18.787  0.00  0.00    +0.000 C 
ATOM     19  O   UNL     1       1.617   8.378  17.737  0.00  0.00    +0.000 OA
ATOM     20  N   UNL     1       1.578   8.335  20.008  0.00  0.00    +0.000 N 
ATOM     21  H   UNL     1       3.212   6.635  19.873  0.00  0.00    +0.000 HD
ATOM     22  H   UNL     1       1.693   7.699  20.782  0.00  0.00    +0.000 HD
BRANCH  17  27
ATOM     23  C   UNL     1       5.887   4.120  14.830  0.00  0.00    +0.000 C 
ATOM     24  C   UNL     1       5.134   4.858  15.897  0.00  0.00    +0.000 A 
ATOM     25  C   UNL     1       5.302   6.234  16.064  0.00  0.00    +0.000 A 
ATOM     26  C   UNL     1       4.598   6.927  17.057  0.00  0.00    +0.000 A 
ATOM     27  C   UNL     1       3.716   6.261  17.906  0.00  0.00    +0.000 A 
ATOM     28  C   UNL     1       3.553   4.878  17.746  0.00  0.00    +0.000 A 
ATOM     29  C   UNL     1       4.253   4.182  16.747  0.00  0.00    +0.000 A 
ENDBRANCH  17  27
ENDBRANCH   1  20
TORSDOF 3
ENDMDL
