MODEL 1
REMARK VINA RESULT:      -7.1      0.000      0.000
REMARK  Name = 
REMARK  1 active torsions:
REMARK  status: ('A' for Active; 'I' for Inactive)
REMARK    1  A    between atoms: C_5  and  C_6
REMARK                            x       y       z     vdW  Elec       q    Type
REMARK                         _______ _______ _______ _____ _____    ______ ____
ROOT
ATOM      1  O   UNL     1       2.683   2.758  22.130  0.00  0.00    +0.000 OA
ATOM      2  C   UNL     1       2.413   2.997  20.962  0.00  0.00    +0.000 C 
ATOM      3  C   UNL     1       1.036   2.919  20.379  0.00  0.00    +0.000 C 
ATOM      4  C   UNL     1       1.185   3.418  18.954  0.00  0.00    +0.000 C 
ATOM      5  C   UNL     1       2.696   3.520  18.690  0.00  0.00    +0.000 C 
ATOM      6  N   UNL     1       3.181   2.497  17.731  0.00  0.00    +0.000 NA
ATOM      7  C   UNL     1       3.628   1.357  18.552  0.00  0.00    +0.000 C 
ATOM      8  C   UNL     1       4.237   2.043  19.759  0.00  0.00    +0.000 C 
ATOM      9  N   UNL     1       3.344   3.165  19.938  0.00  0.00    +0.000 N 
ATOM     10  H   UNL     1       4.024   2.895  17.312  0.00  0.00    +0.000 HD
ENDROOT
BRANCH   5  11
ATOM     11  C   UNL     1       3.000   4.944  18.208  0.00  0.00    +0.000 A 
ATOM     12  C   UNL     1       4.165   5.248  17.480  0.00  0.00    +0.000 A 
ATOM     13  C   UNL     1       4.501   6.571  17.171  0.00  0.00    +0.000 A 
ATOM     14  C   UNL     1       3.674   7.616  17.574  0.00  0.00    +0.000 A 
ATOM     15  C   UNL     1       2.504   7.344  18.281  0.00  0.00    +0.000 A 
ATOM     16  C   UNL     1       2.176   6.021  18.599  0.00  0.00    +0.000 A 
ENDBRANCH   5  11
TORSDOF 1
ENDMDL
MODEL 2
REMARK VINA RESULT:      -7.1      2.941      4.997
REMARK  Name = 
REMARK  1 active torsions:
REMARK  status: ('A' for Active; 'I' for Inactive)
REMARK    1  A    between atoms: C_5  and  C_6
REMARK                            x       y       z     vdW  Elec       q    Type
REMARK                         _______ _______ _______ _____ _____    ______ ____
ROOT
ATOM      1  O   UNL     1       5.356   6.706  14.909  0.00  0.00    +0.000 OA
ATOM      2  C   UNL     1       5.179   6.260  16.034  0.00  0.00    +0.000 C 
ATOM      3  C   UNL     1       4.976   7.101  17.256  0.00  0.00    +0.000 C 
ATOM      4  C   UNL     1       4.675   6.114  18.367  0.00  0.00    +0.000 C 
ATOM      5  C   UNL     1       4.975   4.718  17.794  0.00  0.00    +0.000 C 
ATOM      6  N   UNL     1       6.177   4.096  18.399  0.00  0.00    +0.000 NA
ATOM      7  C   UNL     1       7.303   4.455  17.518  0.00  0.00    +0.000 C 
ATOM      8  C   UNL     1       6.669   4.402  16.142  0.00  0.00    +0.000 C 
ATOM      9  N   UNL     1       5.349   4.928  16.409  0.00  0.00    +0.000 N 
ATOM     10  H   UNL     1       6.043   3.088  18.296  0.00  0.00    +0.000 HD
ENDROOT
BRANCH   5  11
ATOM     11  C   UNL     1       3.726   3.848  17.981  0.00  0.00    +0.000 A 
ATOM     12  C   UNL     1       2.428   4.377  17.853  0.00  0.00    +0.000 A 
ATOM     13  C   UNL     1       1.300   3.610  18.166  0.00  0.00    +0.000 A 
ATOM     14  C   UNL     1       1.445   2.296  18.603  0.00  0.00    +0.000 A 
ATOM     15  C   UNL     1       2.718   1.739  18.722  0.00  0.00    +0.000 A 
ATOM     16  C   UNL     1       3.846   2.512  18.420  0.00  0.00    +0.000 A 
ENDBRANCH   5  11
TORSDOF 1
ENDMDL
MODEL 3
REMARK VINA RESULT:      -7.0      2.984      5.128
REMARK  Name = 
REMARK  1 active torsions:
REMARK  status: ('A' for Active; 'I' for Inactive)
REMARK    1  A    between atoms: C_5  and  C_6
REMARK                            x       y       z     vdW  Elec       q    Type
REMARK                         _______ _______ _______ _____ _____    ______ ____
ROOT
ATOM      1  O   UNL     1       8.214   4.129  17.270  0.00  0.00    +0.000 OA
ATOM      2  C   UNL     1       7.103   4.404  16.840  0.00  0.00    +0.000 C 
ATOM      3  C   UNL     1       6.723   4.369  15.392  0.00  0.00    +0.000 C 
ATOM      4  C   UNL     1       5.235   4.659  15.369  0.00  0.00    +0.000 C 
ATOM      5  C   UNL     1       4.863   5.109  16.792  0.00  0.00    +0.000 C 
ATOM      6  N   UNL     1       4.520   6.550  16.867  0.00  0.00    +0.000 NA
ATOM      7  C   UNL     1       5.773   7.244  17.216  0.00  0.00    +0.000 C 
ATOM      8  C   UNL     1       6.432   6.266  18.169  0.00  0.00    +0.000 C 
ATOM      9  N   UNL     1       6.078   4.997  17.576  0.00  0.00    +0.000 N 
ATOM     10  H   UNL     1       3.907   6.642  17.679  0.00  0.00    +0.000 HD
ENDROOT
BRANCH   5  11
ATOM     11  C   UNL     1       3.713   4.222  17.286  0.00  0.00    +0.000 A 
ATOM     12  C   UNL     1       2.484   4.765  17.703  0.00  0.00    +0.000 A 
ATOM     13  C   UNL     1       1.497   3.960  18.285  0.00  0.00    +0.000 A 
ATOM     14  C   UNL     1       1.715   2.595  18.451  0.00  0.00    +0.000 A 
ATOM     15  C   UNL     1       2.917   2.026  18.031  0.00  0.00    +0.000 A 
ATOM     16  C   UNL     1       3.906   2.834  17.460  0.00  0.00    +0.000 A 
ENDBRANCH   5  11
TORSDOF 1
ENDMDL
MODEL 4
REMARK VINA RESULT:      -7.0      2.997      5.087
REMARK  Name = 
REMARK  1 active torsions:
REMARK  status: ('A' for Active; 'I' for Inactive)
REMARK    1  A    between atoms: C_5  and  C_6
REMARK                            x       y       z     vdW  Elec       q    Type
REMARK                         _______ _______ _______ _____ _____    ______ ____
ROOT
ATOM      1  O   UNL     1       6.730   5.424  14.842  0.00  0.00    +0.000 OA
ATOM      2  C   UNL     1       5.988   5.575  15.802  0.00  0.00    +0.000 C 
ATOM      3  C   UNL     1       5.166   6.801  16.052  0.00  0.00    +0.000 C 
ATOM      4  C   UNL     1       4.329   6.471  17.273  0.00  0.00    +0.000 C 
ATOM      5  C   UNL     1       4.893   5.156  17.838  0.00  0.00    +0.000 C 
ATOM      6  N   UNL     1       5.598   5.342  19.129  0.00  0.00    +0.000 NA
ATOM      7  C   UNL     1       7.017   5.543  18.787  0.00  0.00    +0.000 C 
ATOM      8  C   UNL     1       7.205   4.608  17.609  0.00  0.00    +0.000 C 
ATOM      9  N   UNL     1       5.941   4.746  16.922  0.00  0.00    +0.000 N 
ATOM     10  H   UNL     1       5.543   4.437  19.601  0.00  0.00    +0.000 HD
ENDROOT
BRANCH   5  11
ATOM     11  C   UNL     1       3.737   4.155  17.956  0.00  0.00    +0.000 A 
ATOM     12  C   UNL     1       2.392   4.566  17.910  0.00  0.00    +0.000 A 
ATOM     13  C   UNL     1       1.351   3.665  18.162  0.00  0.00    +0.000 A 
ATOM     14  C   UNL     1       1.632   2.333  18.454  0.00  0.00    +0.000 A 
ATOM     15  C   UNL     1       2.955   1.892  18.488  0.00  0.00    +0.000 A 
ATOM     16  C   UNL     1       3.995   2.798  18.248  0.00  0.00    +0.000 A 
ENDBRANCH   5  11
TORSDOF 1
ENDMDL
MODEL 5
REMARK VINA RESULT:      -7.0      3.010      4.969
REMARK  Name = 
REMARK  1 active torsions:
REMARK  status: ('A' for Active; 'I' for Inactive)
REMARK    1  A    between atoms: C_5  and  C_6
REMARK                            x       y       z     vdW  Elec       q    Type
REMARK                         _______ _______ _______ _____ _____    ______ ____
ROOT
ATOM      1  O   UNL     1       6.580   5.365  14.805  0.00  0.00    +0.000 OA
ATOM      2  C   UNL     1       5.919   5.549  15.817  0.00  0.00    +0.000 C 
ATOM      3  C   UNL     1       5.136   6.793  16.102  0.00  0.00    +0.000 C 
ATOM      4  C   UNL     1       4.395   6.502  17.393  0.00  0.00    +0.000 C 
ATOM      5  C   UNL     1       4.985   5.193  17.942  0.00  0.00    +0.000 C 
ATOM      6  N   UNL     1       5.793   5.397  19.169  0.00  0.00    +0.000 NA
ATOM      7  C   UNL     1       7.183   5.569  18.711  0.00  0.00    +0.000 C 
ATOM      8  C   UNL     1       7.264   4.605  17.544  0.00  0.00    +0.000 C 
ATOM      9  N   UNL     1       5.951   4.747  16.957  0.00  0.00    +0.000 N 
ATOM     10  H   UNL     1       5.764   4.504  19.665  0.00  0.00    +0.000 HD
ENDROOT
BRANCH   5  11
ATOM     11  C   UNL     1       3.829   4.211  18.176  0.00  0.00    +0.000 A 
ATOM     12  C   UNL     1       4.055   2.844  18.420  0.00  0.00    +0.000 A 
ATOM     13  C   UNL     1       2.992   1.936  18.488  0.00  0.00    +0.000 A 
ATOM     14  C   UNL     1       1.681   2.378  18.326  0.00  0.00    +0.000 A 
ATOM     15  C   UNL     1       1.426   3.730  18.101  0.00  0.00    +0.000 A 
ATOM     16  C   UNL     1       2.491   4.635  18.021  0.00  0.00    +0.000 A 
ENDBRANCH   5  11
TORSDOF 1
ENDMDL
MODEL 6
REMARK VINA RESULT:      -7.0      0.292      1.275
REMARK  Name = 
REMARK  1 active torsions:
REMARK  status: ('A' for Active; 'I' for Inactive)
REMARK    1  A    between atoms: C_5  and  C_6
REMARK                            x       y       z     vdW  Elec       q    Type
REMARK                         _______ _______ _______ _____ _____    ______ ____
ROOT
ATOM      1  O   UNL     1       2.291   2.820  21.989  0.00  0.00    +0.000 OA
ATOM      2  C   UNL     1       2.188   3.100  20.803  0.00  0.00    +0.000 C 
ATOM      3  C   UNL     1       0.901   3.084  20.039  0.00  0.00    +0.000 C 
ATOM      4  C   UNL     1       1.254   3.619  18.665  0.00  0.00    +0.000 C 
ATOM      5  C   UNL     1       2.790   3.679  18.608  0.00  0.00    +0.000 C 
ATOM      6  N   UNL     1       3.370   2.669  17.690  0.00  0.00    +0.000 NA
ATOM      7  C   UNL     1       3.669   1.491  18.525  0.00  0.00    +0.000 C 
ATOM      8  C   UNL     1       4.129   2.122  19.825  0.00  0.00    +0.000 C 
ATOM      9  N   UNL     1       3.253   3.268  19.919  0.00  0.00    +0.000 N 
ATOM     10  H   UNL     1       4.272   3.051  17.401  0.00  0.00    +0.000 HD
ENDROOT
BRANCH   5  11
ATOM     11  C   UNL     1       3.197   5.106  18.219  0.00  0.00    +0.000 A 
ATOM     12  C   UNL     1       2.449   6.227  18.623  0.00  0.00    +0.000 A 
ATOM     13  C   UNL     1       2.748   7.507  18.144  0.00  0.00    +0.000 A 
ATOM     14  C   UNL     1       3.807   7.695  17.260  0.00  0.00    +0.000 A 
ATOM     15  C   UNL     1       4.577   6.605  16.855  0.00  0.00    +0.000 A 
ATOM     16  C   UNL     1       4.269   5.324  17.327  0.00  0.00    +0.000 A 
ENDBRANCH   5  11
TORSDOF 1
ENDMDL
MODEL 7
REMARK VINA RESULT:      -7.0      3.132      5.057
REMARK  Name = 
REMARK  1 active torsions:
REMARK  status: ('A' for Active; 'I' for Inactive)
REMARK    1  A    between atoms: C_5  and  C_6
REMARK                            x       y       z     vdW  Elec       q    Type
REMARK                         _______ _______ _______ _____ _____    ______ ____
ROOT
ATOM      1  O   UNL     1       6.700   5.484  15.107  0.00  0.00    +0.000 OA
ATOM      2  C   UNL     1       6.081   5.540  16.159  0.00  0.00    +0.000 C 
ATOM      3  C   UNL     1       5.192   6.677  16.559  0.00  0.00    +0.000 C 
ATOM      4  C   UNL     1       4.557   6.239  17.865  0.00  0.00    +0.000 C 
ATOM      5  C   UNL     1       5.307   4.969  18.302  0.00  0.00    +0.000 C 
ATOM      6  N   UNL     1       6.157   5.188  19.498  0.00  0.00    +0.000 NA
ATOM      7  C   UNL     1       7.494   5.532  18.983  0.00  0.00    +0.000 C 
ATOM      8  C   UNL     1       7.609   4.648  17.757  0.00  0.00    +0.000 C 
ATOM      9  N   UNL     1       6.257   4.684  17.245  0.00  0.00    +0.000 N 
ATOM     10  H   UNL     1       6.247   4.271  19.939  0.00  0.00    +0.000 HD
ENDROOT
BRANCH   5  11
ATOM     11  C   UNL     1       4.272   3.860  18.532  0.00  0.00    +0.000 A 
ATOM     12  C   UNL     1       3.692   3.155  17.462  0.00  0.00    +0.000 A 
ATOM     13  C   UNL     1       2.648   2.248  17.675  0.00  0.00    +0.000 A 
ATOM     14  C   UNL     1       2.170   2.019  18.963  0.00  0.00    +0.000 A 
ATOM     15  C   UNL     1       2.738   2.691  20.045  0.00  0.00    +0.000 A 
ATOM     16  C   UNL     1       3.775   3.606  19.828  0.00  0.00    +0.000 A 
ENDBRANCH   5  11
TORSDOF 1
ENDMDL
MODEL 8
REMARK VINA RESULT:      -6.9      1.759      2.590
REMARK  Name = 
REMARK  1 active torsions:
REMARK  status: ('A' for Active; 'I' for Inactive)
REMARK    1  A    between atoms: C_5  and  C_6
REMARK                            x       y       z     vdW  Elec       q    Type
REMARK                         _______ _______ _______ _____ _____    ______ ____
ROOT
ATOM      1  O   UNL     1       2.583   2.706  22.049  0.00  0.00    +0.000 OA
ATOM      2  C   UNL     1       2.609   3.369  21.022  0.00  0.00    +0.000 C 
ATOM      3  C   UNL     1       2.225   4.814  20.937  0.00  0.00    +0.000 C 
ATOM      4  C   UNL     1       2.540   5.220  19.510  0.00  0.00    +0.000 C 
ATOM      5  C   UNL     1       2.852   3.919  18.752  0.00  0.00    +0.000 C 
ATOM      6  N   UNL     1       1.801   3.561  17.769  0.00  0.00    +0.000 NA
ATOM      7  C   UNL     1       0.875   2.662  18.480  0.00  0.00    +0.000 C 
ATOM      8  C   UNL     1       1.812   1.858  19.359  0.00  0.00    +0.000 C 
ATOM      9  N   UNL     1       2.786   2.857  19.737  0.00  0.00    +0.000 N 
ATOM     10  H   UNL     1       2.270   2.989  17.064  0.00  0.00    +0.000 HD
ENDROOT
BRANCH   5  11
ATOM     11  C   UNL     1       4.226   4.073  18.088  0.00  0.00    +0.000 A 
ATOM     12  C   UNL     1       5.346   4.536  18.801  0.00  0.00    +0.000 A 
ATOM     13  C   UNL     1       6.556   4.809  18.152  0.00  0.00    +0.000 A 
ATOM     14  C   UNL     1       6.674   4.612  16.779  0.00  0.00    +0.000 A 
ATOM     15  C   UNL     1       5.586   4.136  16.048  0.00  0.00    +0.000 A 
ATOM     16  C   UNL     1       4.373   3.876  16.698  0.00  0.00    +0.000 A 
ENDBRANCH   5  11
TORSDOF 1
ENDMDL
MODEL 9
REMARK VINA RESULT:      -6.9      1.374      1.991
REMARK  Name = 
REMARK  1 active torsions:
REMARK  status: ('A' for Active; 'I' for Inactive)
REMARK    1  A    between atoms: C_5  and  C_6
REMARK                            x       y       z     vdW  Elec       q    Type
REMARK                         _______ _______ _______ _____ _____    ______ ____
ROOT
ATOM      1  O   UNL     1       3.100   2.513  21.770  0.00  0.00    +0.000 OA
ATOM      2  C   UNL     1       2.729   3.275  20.888  0.00  0.00    +0.000 C 
ATOM      3  C   UNL     1       2.028   4.575  21.133  0.00  0.00    +0.000 C 
ATOM      4  C   UNL     1       1.890   5.210  19.762  0.00  0.00    +0.000 C 
ATOM      5  C   UNL     1       2.286   4.127  18.745  0.00  0.00    +0.000 C 
ATOM      6  N   UNL     1       1.132   3.632  17.956  0.00  0.00    +0.000 NA
ATOM      7  C   UNL     1       0.628   2.451  18.680  0.00  0.00    +0.000 C 
ATOM      8  C   UNL     1       1.904   1.814  19.194  0.00  0.00    +0.000 C 
ATOM      9  N   UNL     1       2.696   2.977  19.527  0.00  0.00    +0.000 N 
ATOM     10  H   UNL     1       1.530   3.283  17.082  0.00  0.00    +0.000 HD
ENDROOT
BRANCH   5  11
ATOM     11  C   UNL     1       3.389   4.700  17.846  0.00  0.00    +0.000 A 
ATOM     12  C   UNL     1       4.120   3.888  16.960  0.00  0.00    +0.000 A 
ATOM     13  C   UNL     1       5.217   4.393  16.252  0.00  0.00    +0.000 A 
ATOM     14  C   UNL     1       5.598   5.723  16.407  0.00  0.00    +0.000 A 
ATOM     15  C   UNL     1       4.881   6.557  17.264  0.00  0.00    +0.000 A 
ATOM     16  C   UNL     1       3.792   6.047  17.980  0.00  0.00    +0.000 A 
ENDBRANCH   5  11
TORSDOF 1
ENDMDL
