MODEL 1
REMARK VINA RESULT:      -8.8      0.000      0.000
REMARK  Name = 
REMARK  9 active torsions:
REMARK  status: ('A' for Active; 'I' for Inactive)
REMARK    1  A    between atoms: C_2  and  C_3
REMARK    2  A    between atoms: C_9  and  N_10
REMARK    3  A    between atoms: N_10  and  C_11
REMARK    4  A    between atoms: N_10  and  C_12
REMARK    5  A    between atoms: N_15  and  C_16
REMARK    6  A    between atoms: C_19  and  N_20
REMARK    7  A    between atoms: N_20  and  C_21
REMARK    8  A    between atoms: C_22  and  C_24
REMARK    9  A    between atoms: C_24  and  C_25
REMARK                            x       y       z     vdW  Elec       q    Type
REMARK                         _______ _______ _______ _____ _____    ______ ____
ROOT
ATOM      1  C   UNL     1       3.671   4.246  19.392  0.00  0.00    +0.000 A 
ATOM      2  N   UNL     1       3.597   5.599  19.163  0.00  0.00    +0.000 NA
ATOM      3  C   UNL     1       2.425   6.266  19.274  0.00  0.00    +0.000 A 
ATOM      4  N   UNL     1       2.447   7.636  18.990  0.00  0.00    +0.000 N 
ATOM      5  N   UNL     1       1.246   5.718  19.611  0.00  0.00    +0.000 NA
ATOM      6  C   UNL     1       1.336   4.412  19.841  0.00  0.00    +0.000 A 
ATOM      7  N   UNL     1       0.312   3.598  20.220  0.00  0.00    +0.000 N 
ATOM      8  C   UNL     1       0.823   2.340  20.362  0.00  0.00    +0.000 A 
ATOM      9  N   UNL     1       2.111   2.305  20.086  0.00  0.00    +0.000 NA
ATOM     10  C   UNL     1       2.455   3.609  19.755  0.00  0.00    +0.000 A 
ATOM     11  H   UNL     1       3.393   7.909  18.750  0.00  0.00    +0.000 HD
ATOM     12  H   UNL     1      -0.641   3.896  20.370  0.00  0.00    +0.000 HD
ENDROOT
BRANCH   4  13
ATOM     13  C   UNL     1       1.692   8.634  19.625  0.00  0.00    +0.000 A 
ATOM     14  C   UNL     1       1.573   8.717  21.013  0.00  0.00    +0.000 A 
ATOM     15  C   UNL     1       0.814   9.723  21.622  0.00  0.00    +0.000 A 
ATOM     16  C   UNL     1       0.143  10.699  20.876  0.00  0.00    +0.000 A 
ATOM     17  C   UNL     1       0.249  10.597  19.478  0.00  0.00    +0.000 A 
ATOM     18  C   UNL     1       1.018   9.589  18.864  0.00  0.00    +0.000 A 
BRANCH  16  19
ATOM     19  N   UNL     1      -0.611  11.754  21.518  0.00  0.00    +0.000 N 
ATOM     20  C   UNL     1      -0.606  13.089  20.922  0.00  0.00    +0.000 C 
ATOM     21  C   UNL     1      -1.316  11.530  22.724  0.00  0.00    +0.000 C 
ATOM     22  O   UNL     1      -1.350  10.462  23.336  0.00  0.00    +0.000 OA
BRANCH  21  23
ATOM     23  C   UNL     1      -2.036  12.741  23.321  0.00  0.00    +0.000 C 
ATOM     24  C   UNL     1      -3.443  12.396  23.794  0.00  0.00    +0.000 C 
ENDBRANCH  21  23
ENDBRANCH  16  19
ENDBRANCH   4  13
BRANCH   1  25
ATOM     25  N   UNL     1       4.899   3.598  19.236  0.00  0.00    +0.000 N 
ATOM     26  C   UNL     1       5.202   2.491  20.131  0.00  0.00    +0.000 C 
BRANCH  25  33
ATOM     27  C   UNL     1       6.864   4.973  14.951  0.00  0.00    +0.000 C 
ATOM     28  O   UNL     1       7.833   5.517  14.423  0.00  0.00    +0.000 OA
ATOM     29  N   UNL     1       6.380   5.340  16.199  0.00  0.00    +0.000 N 
ATOM     30  C   UNL     1       6.961   6.509  16.853  0.00  0.00    +0.000 C 
ATOM     31  C   UNL     1       7.591   6.127  18.190  0.00  0.00    +0.000 C 
ATOM     32  C   UNL     1       6.586   5.416  19.098  0.00  0.00    +0.000 C 
ATOM     33  C   UNL     1       5.938   4.211  18.389  0.00  0.00    +0.000 C 
ATOM     34  C   UNL     1       5.380   4.616  17.001  0.00  0.00    +0.000 C 
BRANCH  27  36
ATOM     35  C   UNL     1       6.323   3.707  12.916  0.00  0.00    +0.000 C 
ATOM     36  C   UNL     1       6.141   3.893  14.226  0.00  0.00    +0.000 C 
ENDBRANCH  27  36
ENDBRANCH  25  33
ENDBRANCH   1  25
TORSDOF 6
ENDMDL
MODEL 2
REMARK VINA RESULT:      -8.8      2.607     10.821
REMARK  Name = 
REMARK  9 active torsions:
REMARK  status: ('A' for Active; 'I' for Inactive)
REMARK    1  A    between atoms: C_2  and  C_3
REMARK    2  A    between atoms: C_9  and  N_10
REMARK    3  A    between atoms: N_10  and  C_11
REMARK    4  A    between atoms: N_10  and  C_12
REMARK    5  A    between atoms: N_15  and  C_16
REMARK    6  A    between atoms: C_19  and  N_20
REMARK    7  A    between atoms: N_20  and  C_21
REMARK    8  A    between atoms: C_22  and  C_24
REMARK    9  A    between atoms: C_24  and  C_25
REMARK                            x       y       z     vdW  Elec       q    Type
REMARK                         _______ _______ _______ _____ _____    ______ ____
ROOT
ATOM      1  C   UNL     1      -0.778  11.946  19.006  0.00  0.00    +0.000 A 
ATOM      2  N   UNL     1       0.184  11.115  19.528  0.00  0.00    +0.000 NA
ATOM      3  C   UNL     1       0.324   9.842  19.091  0.00  0.00    +0.000 A 
ATOM      4  N   UNL     1       1.312   9.066  19.707  0.00  0.00    +0.000 N 
ATOM      5  N   UNL     1      -0.420   9.261  18.135  0.00  0.00    +0.000 NA
ATOM      6  C   UNL     1      -1.338  10.081  17.632  0.00  0.00    +0.000 A 
ATOM      7  N   UNL     1      -2.218   9.776  16.638  0.00  0.00    +0.000 N 
ATOM      8  C   UNL     1      -2.974  10.889  16.409  0.00  0.00    +0.000 A 
ATOM      9  N   UNL     1      -2.633  11.881  17.207  0.00  0.00    +0.000 NA
ATOM     10  C   UNL     1      -1.595  11.389  17.988  0.00  0.00    +0.000 A 
ATOM     11  H   UNL     1       1.787   9.627  20.403  0.00  0.00    +0.000 HD
ATOM     12  H   UNL     1      -2.275   8.885  16.167  0.00  0.00    +0.000 HD
ENDROOT
BRANCH   4  13
ATOM     13  C   UNL     1       2.112   8.090  19.093  0.00  0.00    +0.000 A 
ATOM     14  C   UNL     1       2.337   6.837  19.663  0.00  0.00    +0.000 A 
ATOM     15  C   UNL     1       3.140   5.880  19.030  0.00  0.00    +0.000 A 
ATOM     16  C   UNL     1       3.750   6.126  17.794  0.00  0.00    +0.000 A 
ATOM     17  C   UNL     1       3.538   7.398  17.237  0.00  0.00    +0.000 A 
ATOM     18  C   UNL     1       2.725   8.359  17.869  0.00  0.00    +0.000 A 
BRANCH  16  19
ATOM     19  N   UNL     1       4.550   5.117  17.135  0.00  0.00    +0.000 N 
ATOM     20  C   UNL     1       4.492   3.740  17.622  0.00  0.00    +0.000 C 
ATOM     21  C   UNL     1       5.411   5.441  16.059  0.00  0.00    +0.000 C 
ATOM     22  O   UNL     1       5.573   6.572  15.600  0.00  0.00    +0.000 OA
BRANCH  21  23
ATOM     23  C   UNL     1       6.233   4.288  15.481  0.00  0.00    +0.000 C 
ATOM     24  C   UNL     1       5.941   4.061  14.002  0.00  0.00    +0.000 C 
ENDBRANCH  21  23
ENDBRANCH  16  19
ENDBRANCH   4  13
BRANCH   1  25
ATOM     25  N   UNL     1      -0.900  13.243  19.511  0.00  0.00    +0.000 N 
ATOM     26  C   UNL     1      -0.066  14.282  18.926  0.00  0.00    +0.000 C 
BRANCH  25  33
ATOM     27  C   UNL     1      -4.839  12.976  22.431  0.00  0.00    +0.000 C 
ATOM     28  O   UNL     1      -5.278  13.251  23.547  0.00  0.00    +0.000 OA
ATOM     29  N   UNL     1      -3.512  12.636  22.206  0.00  0.00    +0.000 N 
ATOM     30  C   UNL     1      -2.633  12.467  23.358  0.00  0.00    +0.000 C 
ATOM     31  C   UNL     1      -1.468  13.453  23.303  0.00  0.00    +0.000 C 
ATOM     32  C   UNL     1      -0.698  13.333  21.986  0.00  0.00    +0.000 C 
ATOM     33  C   UNL     1      -1.636  13.462  20.769  0.00  0.00    +0.000 C 
ATOM     34  C   UNL     1      -2.849  12.507  20.898  0.00  0.00    +0.000 C 
BRANCH  27  36
ATOM     35  C   UNL     1      -6.759  12.087  21.183  0.00  0.00    +0.000 C 
ATOM     36  C   UNL     1      -5.757  12.967  21.260  0.00  0.00    +0.000 C 
ENDBRANCH  27  36
ENDBRANCH  25  33
ENDBRANCH   1  25
TORSDOF 6
ENDMDL
MODEL 3
REMARK VINA RESULT:      -8.7      0.918      1.139
REMARK  Name = 
REMARK  9 active torsions:
REMARK  status: ('A' for Active; 'I' for Inactive)
REMARK    1  A    between atoms: C_2  and  C_3
REMARK    2  A    between atoms: C_9  and  N_10
REMARK    3  A    between atoms: N_10  and  C_11
REMARK    4  A    between atoms: N_10  and  C_12
REMARK    5  A    between atoms: N_15  and  C_16
REMARK    6  A    between atoms: C_19  and  N_20
REMARK    7  A    between atoms: N_20  and  C_21
REMARK    8  A    between atoms: C_22  and  C_24
REMARK    9  A    between atoms: C_24  and  C_25
REMARK                            x       y       z     vdW  Elec       q    Type
REMARK                         _______ _______ _______ _____ _____    ______ ____
ROOT
ATOM      1  C   UNL     1       3.597   4.193  19.447  0.00  0.00    +0.000 A 
ATOM      2  N   UNL     1       3.554   5.566  19.398  0.00  0.00    +0.000 NA
ATOM      3  C   UNL     1       2.389   6.236  19.551  0.00  0.00    +0.000 A 
ATOM      4  N   UNL     1       2.444   7.631  19.454  0.00  0.00    +0.000 N 
ATOM      5  N   UNL     1       1.188   5.674  19.764  0.00  0.00    +0.000 NA
ATOM      6  C   UNL     1       1.248   4.347  19.820  0.00  0.00    +0.000 A 
ATOM      7  N   UNL     1       0.196   3.512  20.046  0.00  0.00    +0.000 N 
ATOM      8  C   UNL     1       0.681   2.235  20.039  0.00  0.00    +0.000 A 
ATOM      9  N   UNL     1       1.979   2.210  19.812  0.00  0.00    +0.000 NA
ATOM     10  C   UNL     1       2.357   3.539  19.673  0.00  0.00    +0.000 A 
ATOM     11  H   UNL     1       3.403   7.914  19.291  0.00  0.00    +0.000 HD
ATOM     12  H   UNL     1      -0.758   3.807  20.196  0.00  0.00    +0.000 HD
ENDROOT
BRANCH   4  13
ATOM     13  C   UNL     1       1.678   8.552  20.186  0.00  0.00    +0.000 A 
ATOM     14  C   UNL     1       1.527   8.469  21.571  0.00  0.00    +0.000 A 
ATOM     15  C   UNL     1       0.757   9.401  22.278  0.00  0.00    +0.000 A 
ATOM     16  C   UNL     1       0.108  10.464  21.638  0.00  0.00    +0.000 A 
ATOM     17  C   UNL     1       0.246  10.528  20.241  0.00  0.00    +0.000 A 
ATOM     18  C   UNL     1       1.026   9.595  19.529  0.00  0.00    +0.000 A 
BRANCH  16  19
ATOM     19  N   UNL     1      -0.657  11.439  22.384  0.00  0.00    +0.000 N 
ATOM     20  C   UNL     1      -1.796  10.984  23.179  0.00  0.00    +0.000 C 
ATOM     21  C   UNL     1      -0.350  12.819  22.329  0.00  0.00    +0.000 C 
ATOM     22  O   UNL     1       0.554  13.317  21.657  0.00  0.00    +0.000 OA
BRANCH  21  23
ATOM     23  C   UNL     1      -1.265  13.747  23.131  0.00  0.00    +0.000 C 
ATOM     24  C   UNL     1      -2.075  14.671  22.230  0.00  0.00    +0.000 C 
ENDBRANCH  21  23
ENDBRANCH  16  19
ENDBRANCH   4  13
BRANCH   1  25
ATOM     25  N   UNL     1       4.820   3.546  19.255  0.00  0.00    +0.000 N 
ATOM     26  C   UNL     1       5.129   2.409  20.110  0.00  0.00    +0.000 C 
BRANCH  25  33
ATOM     27  C   UNL     1       6.741   5.051  14.994  0.00  0.00    +0.000 C 
ATOM     28  O   UNL     1       7.706   5.610  14.473  0.00  0.00    +0.000 OA
ATOM     29  N   UNL     1       6.273   5.380  16.259  0.00  0.00    +0.000 N 
ATOM     30  C   UNL     1       6.865   6.525  16.943  0.00  0.00    +0.000 C 
ATOM     31  C   UNL     1       7.510   6.099  18.260  0.00  0.00    +0.000 C 
ATOM     32  C   UNL     1       6.512   5.363  19.157  0.00  0.00    +0.000 C 
ATOM     33  C   UNL     1       5.852   4.183  18.417  0.00  0.00    +0.000 C 
ATOM     34  C   UNL     1       5.280   4.634  17.049  0.00  0.00    +0.000 C 
BRANCH  27  36
ATOM     35  C   UNL     1       6.340   3.694  12.987  0.00  0.00    +0.000 C 
ATOM     36  C   UNL     1       6.007   3.998  14.244  0.00  0.00    +0.000 C 
ENDBRANCH  27  36
ENDBRANCH  25  33
ENDBRANCH   1  25
TORSDOF 6
ENDMDL
MODEL 4
REMARK VINA RESULT:      -8.7      0.512      1.023
REMARK  Name = 
REMARK  9 active torsions:
REMARK  status: ('A' for Active; 'I' for Inactive)
REMARK    1  A    between atoms: C_2  and  C_3
REMARK    2  A    between atoms: C_9  and  N_10
REMARK    3  A    between atoms: N_10  and  C_11
REMARK    4  A    between atoms: N_10  and  C_12
REMARK    5  A    between atoms: N_15  and  C_16
REMARK    6  A    between atoms: C_19  and  N_20
REMARK    7  A    between atoms: N_20  and  C_21
REMARK    8  A    between atoms: C_22  and  C_24
REMARK    9  A    between atoms: C_24  and  C_25
REMARK                            x       y       z     vdW  Elec       q    Type
REMARK                         _______ _______ _______ _____ _____    ______ ____
ROOT
ATOM      1  C   UNL     1       3.707   4.216  19.293  0.00  0.00    +0.000 A 
ATOM      2  N   UNL     1       3.608   5.571  19.083  0.00  0.00    +0.000 NA
ATOM      3  C   UNL     1       2.408   6.195  19.087  0.00  0.00    +0.000 A 
ATOM      4  N   UNL     1       2.409   7.572  18.833  0.00  0.00    +0.000 N 
ATOM      5  N   UNL     1       1.220   5.601  19.291  0.00  0.00    +0.000 NA
ATOM      6  C   UNL     1       1.333   4.293  19.503  0.00  0.00    +0.000 A 
ATOM      7  N   UNL     1       0.306   3.438  19.760  0.00  0.00    +0.000 N 
ATOM      8  C   UNL     1       0.844   2.195  19.930  0.00  0.00    +0.000 A 
ATOM      9  N   UNL     1       2.154   2.209  19.786  0.00  0.00    +0.000 NA
ATOM     10  C   UNL     1       2.484   3.531  19.517  0.00  0.00    +0.000 A 
ATOM     11  H   UNL     1       3.364   7.882  18.696  0.00  0.00    +0.000 HD
ATOM     12  H   UNL     1      -0.667   3.700  19.818  0.00  0.00    +0.000 HD
ENDROOT
BRANCH   4  13
ATOM     13  C   UNL     1       1.558   8.529  19.406  0.00  0.00    +0.000 A 
ATOM     14  C   UNL     1       1.018   9.587  18.674  0.00  0.00    +0.000 A 
ATOM     15  C   UNL     1       0.171  10.529  19.269  0.00  0.00    +0.000 A 
ATOM     16  C   UNL     1      -0.185  10.456  20.622  0.00  0.00    +0.000 A 
ATOM     17  C   UNL     1       0.379   9.401  21.358  0.00  0.00    +0.000 A 
ATOM     18  C   UNL     1       1.227   8.448  20.758  0.00  0.00    +0.000 A 
BRANCH  16  19
ATOM     19  N   UNL     1      -1.088  11.416  21.217  0.00  0.00    +0.000 N 
ATOM     20  C   UNL     1      -1.924  12.237  20.341  0.00  0.00    +0.000 C 
ATOM     21  C   UNL     1      -1.151  11.603  22.618  0.00  0.00    +0.000 C 
ATOM     22  O   UNL     1      -0.462  11.003  23.443  0.00  0.00    +0.000 OA
BRANCH  21  23
ATOM     23  C   UNL     1      -2.117  12.682  23.113  0.00  0.00    +0.000 C 
ATOM     24  C   UNL     1      -1.385  13.926  23.603  0.00  0.00    +0.000 C 
ENDBRANCH  21  23
ENDBRANCH  16  19
ENDBRANCH   4  13
BRANCH   1  25
ATOM     25  N   UNL     1       4.966   3.614  19.250  0.00  0.00    +0.000 N 
ATOM     26  C   UNL     1       5.266   2.595  20.245  0.00  0.00    +0.000 C 
BRANCH  25  33
ATOM     27  C   UNL     1       7.005   4.906  14.974  0.00  0.00    +0.000 C 
ATOM     28  O   UNL     1       7.987   5.434  14.452  0.00  0.00    +0.000 OA
ATOM     29  N   UNL     1       6.508   5.297  16.210  0.00  0.00    +0.000 N 
ATOM     30  C   UNL     1       7.089   6.470  16.854  0.00  0.00    +0.000 C 
ATOM     31  C   UNL     1       7.697   6.103  18.205  0.00  0.00    +0.000 C 
ATOM     32  C   UNL     1       6.672   5.415  19.110  0.00  0.00    +0.000 C 
ATOM     33  C   UNL     1       6.023   4.205  18.410  0.00  0.00    +0.000 C 
ATOM     34  C   UNL     1       5.489   4.594  17.008  0.00  0.00    +0.000 C 
BRANCH  27  36
ATOM     35  C   UNL     1       6.159   3.848  12.926  0.00  0.00    +0.000 C 
ATOM     36  C   UNL     1       6.283   3.823  14.256  0.00  0.00    +0.000 C 
ENDBRANCH  27  36
ENDBRANCH  25  33
ENDBRANCH   1  25
TORSDOF 6
ENDMDL
MODEL 5
REMARK VINA RESULT:      -8.7      2.696     10.997
REMARK  Name = 
REMARK  9 active torsions:
REMARK  status: ('A' for Active; 'I' for Inactive)
REMARK    1  A    between atoms: C_2  and  C_3
REMARK    2  A    between atoms: C_9  and  N_10
REMARK    3  A    between atoms: N_10  and  C_11
REMARK    4  A    between atoms: N_10  and  C_12
REMARK    5  A    between atoms: N_15  and  C_16
REMARK    6  A    between atoms: C_19  and  N_20
REMARK    7  A    between atoms: N_20  and  C_21
REMARK    8  A    between atoms: C_22  and  C_24
REMARK    9  A    between atoms: C_24  and  C_25
REMARK                            x       y       z     vdW  Elec       q    Type
REMARK                         _______ _______ _______ _____ _____    ______ ____
ROOT
ATOM      1  C   UNL     1      -1.218  12.099  19.422  0.00  0.00    +0.000 A 
ATOM      2  N   UNL     1      -0.189  11.323  19.900  0.00  0.00    +0.000 NA
ATOM      3  C   UNL     1      -0.024  10.046  19.487  0.00  0.00    +0.000 A 
ATOM      4  N   UNL     1       1.035   9.329  20.055  0.00  0.00    +0.000 N 
ATOM      5  N   UNL     1      -0.803   9.407  18.598  0.00  0.00    +0.000 NA
ATOM      6  C   UNL     1      -1.787  10.174  18.137  0.00  0.00    +0.000 A 
ATOM      7  N   UNL     1      -2.716   9.805  17.213  0.00  0.00    +0.000 N 
ATOM      8  C   UNL     1      -3.534  10.879  17.007  0.00  0.00    +0.000 A 
ATOM      9  N   UNL     1      -3.184  11.906  17.754  0.00  0.00    +0.000 NA
ATOM     10  C   UNL     1      -2.076  11.480  18.476  0.00  0.00    +0.000 A 
ATOM     11  H   UNL     1       1.531   9.929  20.703  0.00  0.00    +0.000 HD
ATOM     12  H   UNL     1      -2.766   8.900  16.769  0.00  0.00    +0.000 HD
ENDROOT
BRANCH   4  13
ATOM     13  C   UNL     1       1.835   8.371  19.414  0.00  0.00    +0.000 A 
ATOM     14  C   UNL     1       2.367   8.568  18.139  0.00  0.00    +0.000 A 
ATOM     15  C   UNL     1       3.164   7.596  17.521  0.00  0.00    +0.000 A 
ATOM     16  C   UNL     1       3.474   6.384  18.149  0.00  0.00    +0.000 A 
ATOM     17  C   UNL     1       2.917   6.182  19.423  0.00  0.00    +0.000 A 
ATOM     18  C   UNL     1       2.121   7.162  20.049  0.00  0.00    +0.000 A 
BRANCH  16  19
ATOM     19  N   UNL     1       4.325   5.402  17.514  0.00  0.00    +0.000 N 
ATOM     20  C   UNL     1       3.761   4.100  17.163  0.00  0.00    +0.000 C 
ATOM     21  C   UNL     1       5.693   5.660  17.263  0.00  0.00    +0.000 C 
ATOM     22  O   UNL     1       6.283   6.701  17.559  0.00  0.00    +0.000 OA
BRANCH  21  23
ATOM     23  C   UNL     1       6.491   4.521  16.626  0.00  0.00    +0.000 C 
ATOM     24  C   UNL     1       6.895   4.836  15.191  0.00  0.00    +0.000 C 
ENDBRANCH  21  23
ENDBRANCH  16  19
ENDBRANCH   4  13
BRANCH   1  25
ATOM     25  N   UNL     1      -1.363  13.403  19.902  0.00  0.00    +0.000 N 
ATOM     26  C   UNL     1      -0.501  14.433  19.342  0.00  0.00    +0.000 C 
BRANCH  25  33
ATOM     27  C   UNL     1      -5.380  13.028  22.702  0.00  0.00    +0.000 C 
ATOM     28  O   UNL     1      -5.877  13.335  23.785  0.00  0.00    +0.000 OA
ATOM     29  N   UNL     1      -4.025  12.770  22.541  0.00  0.00    +0.000 N 
ATOM     30  C   UNL     1      -3.180  12.729  23.729  0.00  0.00    +0.000 C 
ATOM     31  C   UNL     1      -2.083  13.788  23.654  0.00  0.00    +0.000 C 
ATOM     32  C   UNL     1      -1.259  13.648  22.372  0.00  0.00    +0.000 C 
ATOM     33  C   UNL     1      -2.158  13.642  21.120  0.00  0.00    +0.000 C 
ATOM     34  C   UNL     1      -3.307  12.613  21.265  0.00  0.00    +0.000 C 
BRANCH  27  36
ATOM     35  C   UNL     1      -7.278  12.034  21.501  0.00  0.00    +0.000 C 
ATOM     36  C   UNL     1      -6.251  12.889  21.505  0.00  0.00    +0.000 C 
ENDBRANCH  27  36
ENDBRANCH  25  33
ENDBRANCH   1  25
TORSDOF 6
ENDMDL
MODEL 6
REMARK VINA RESULT:      -8.5      3.344     11.302
REMARK  Name = 
REMARK  9 active torsions:
REMARK  status: ('A' for Active; 'I' for Inactive)
REMARK    1  A    between atoms: C_2  and  C_3
REMARK    2  A    between atoms: C_9  and  N_10
REMARK    3  A    between atoms: N_10  and  C_11
REMARK    4  A    between atoms: N_10  and  C_12
REMARK    5  A    between atoms: N_15  and  C_16
REMARK    6  A    between atoms: C_19  and  N_20
REMARK    7  A    between atoms: N_20  and  C_21
REMARK    8  A    between atoms: C_22  and  C_24
REMARK    9  A    between atoms: C_24  and  C_25
REMARK                            x       y       z     vdW  Elec       q    Type
REMARK                         _______ _______ _______ _____ _____    ______ ____
ROOT
ATOM      1  C   UNL     1       1.086  14.077  20.072  0.00  0.00    +0.000 A 
ATOM      2  N   UNL     1       0.601  12.791  20.041  0.00  0.00    +0.000 NA
ATOM      3  C   UNL     1       1.152  11.854  19.237  0.00  0.00    +0.000 A 
ATOM      4  N   UNL     1       0.568  10.582  19.255  0.00  0.00    +0.000 N 
ATOM      5  N   UNL     1       2.193  12.049  18.411  0.00  0.00    +0.000 NA
ATOM      6  C   UNL     1       2.658  13.294  18.460  0.00  0.00    +0.000 A 
ATOM      7  N   UNL     1       3.716  13.776  17.752  0.00  0.00    +0.000 N 
ATOM      8  C   UNL     1       3.873  15.088  18.097  0.00  0.00    +0.000 A 
ATOM      9  N   UNL     1       2.968  15.470  18.976  0.00  0.00    +0.000 NA
ATOM     10  C   UNL     1       2.190  14.346  19.221  0.00  0.00    +0.000 A 
ATOM     11  H   UNL     1      -0.201  10.581  19.915  0.00  0.00    +0.000 HD
ATOM     12  H   UNL     1       4.273  13.240  17.103  0.00  0.00    +0.000 HD
ENDROOT
BRANCH   4  13
ATOM     13  C   UNL     1       1.234   9.353  19.128  0.00  0.00    +0.000 A 
ATOM     14  C   UNL     1       1.752   8.903  17.913  0.00  0.00    +0.000 A 
ATOM     15  C   UNL     1       2.413   7.673  17.813  0.00  0.00    +0.000 A 
ATOM     16  C   UNL     1       2.596   6.837  18.921  0.00  0.00    +0.000 A 
ATOM     17  C   UNL     1       2.053   7.287  20.136  0.00  0.00    +0.000 A 
ATOM     18  C   UNL     1       1.393   8.527  20.240  0.00  0.00    +0.000 A 
BRANCH  16  19
ATOM     19  N   UNL     1       3.311   5.584  18.811  0.00  0.00    +0.000 N 
ATOM     20  C   UNL     1       4.693   5.516  19.283  0.00  0.00    +0.000 C 
ATOM     21  C   UNL     1       2.716   4.442  18.226  0.00  0.00    +0.000 C 
ATOM     22  O   UNL     1       1.579   4.400  17.754  0.00  0.00    +0.000 OA
BRANCH  21  23
ATOM     23  C   UNL     1       3.596   3.194  18.132  0.00  0.00    +0.000 C 
ATOM     24  C   UNL     1       2.782   1.939  17.843  0.00  0.00    +0.000 C 
ENDBRANCH  21  23
ENDBRANCH  16  19
ENDBRANCH   4  13
BRANCH   1  25
ATOM     25  N   UNL     1       0.464  15.017  20.898  0.00  0.00    +0.000 N 
ATOM     26  C   UNL     1       1.254  15.609  21.967  0.00  0.00    +0.000 C 
BRANCH  25  33
ATOM     27  C   UNL     1      -4.125  14.101  22.383  0.00  0.00    +0.000 C 
ATOM     28  O   UNL     1      -5.312  14.354  22.181  0.00  0.00    +0.000 OA
ATOM     29  N   UNL     1      -3.113  15.029  22.185  0.00  0.00    +0.000 N 
ATOM     30  C   UNL     1      -3.482  16.401  21.851  0.00  0.00    +0.000 C 
ATOM     31  C   UNL     1      -2.910  16.804  20.495  0.00  0.00    +0.000 C 
ATOM     32  C   UNL     1      -1.393  16.604  20.448  0.00  0.00    +0.000 C 
ATOM     33  C   UNL     1      -1.001  15.168  20.848  0.00  0.00    +0.000 C 
ATOM     34  C   UNL     1      -1.664  14.762  22.188  0.00  0.00    +0.000 C 
BRANCH  27  36
ATOM     35  C   UNL     1      -3.881  12.452  24.188  0.00  0.00    +0.000 C 
ATOM     36  C   UNL     1      -3.736  12.760  22.896  0.00  0.00    +0.000 C 
ENDBRANCH  27  36
ENDBRANCH  25  33
ENDBRANCH   1  25
TORSDOF 6
ENDMDL
MODEL 7
REMARK VINA RESULT:      -8.5      3.317     10.385
REMARK  Name = 
REMARK  9 active torsions:
REMARK  status: ('A' for Active; 'I' for Inactive)
REMARK    1  A    between atoms: C_2  and  C_3
REMARK    2  A    between atoms: C_9  and  N_10
REMARK    3  A    between atoms: N_10  and  C_11
REMARK    4  A    between atoms: N_10  and  C_12
REMARK    5  A    between atoms: N_15  and  C_16
REMARK    6  A    between atoms: C_19  and  N_20
REMARK    7  A    between atoms: N_20  and  C_21
REMARK    8  A    between atoms: C_22  and  C_24
REMARK    9  A    between atoms: C_24  and  C_25
REMARK                            x       y       z     vdW  Elec       q    Type
REMARK                         _______ _______ _______ _____ _____    ______ ____
ROOT
ATOM      1  C   UNL     1       0.105  11.803  20.037  0.00  0.00    +0.000 A 
ATOM      2  N   UNL     1       0.892  10.733  20.391  0.00  0.00    +0.000 NA
ATOM      3  C   UNL     1       0.844   9.570  19.703  0.00  0.00    +0.000 A 
ATOM      4  N   UNL     1       1.661   8.530  20.161  0.00  0.00    +0.000 N 
ATOM      5  N   UNL     1       0.065   9.326  18.636  0.00  0.00    +0.000 NA
ATOM      6  C   UNL     1      -0.681  10.374  18.299  0.00  0.00    +0.000 A 
ATOM      7  N   UNL     1      -1.548  10.428  17.250  0.00  0.00    +0.000 N 
ATOM      8  C   UNL     1      -2.101  11.676  17.243  0.00  0.00    +0.000 A 
ATOM      9  N   UNL     1      -1.643  12.415  18.234  0.00  0.00    +0.000 NA
ATOM     10  C   UNL     1      -0.740  11.608  18.913  0.00  0.00    +0.000 A 
ATOM     11  H   UNL     1       2.186   8.851  20.966  0.00  0.00    +0.000 HD
ATOM     12  H   UNL     1      -1.725   9.673  16.604  0.00  0.00    +0.000 HD
ENDROOT
BRANCH   4  13
ATOM     13  C   UNL     1       2.322   7.576  19.373  0.00  0.00    +0.000 A 
ATOM     14  C   UNL     1       2.931   7.898  18.159  0.00  0.00    +0.000 A 
ATOM     15  C   UNL     1       3.586   6.927  17.391  0.00  0.00    +0.000 A 
ATOM     16  C   UNL     1       3.671   5.591  17.801  0.00  0.00    +0.000 A 
ATOM     17  C   UNL     1       3.038   5.270  19.013  0.00  0.00    +0.000 A 
ATOM     18  C   UNL     1       2.384   6.247  19.790  0.00  0.00    +0.000 A 
BRANCH  16  19
ATOM     19  N   UNL     1       4.379   4.605  17.014  0.00  0.00    +0.000 N 
ATOM     20  C   UNL     1       4.156   3.187  17.293  0.00  0.00    +0.000 C 
ATOM     21  C   UNL     1       5.306   4.982  16.014  0.00  0.00    +0.000 C 
ATOM     22  O   UNL     1       5.606   6.143  15.729  0.00  0.00    +0.000 OA
BRANCH  21  23
ATOM     23  C   UNL     1       6.018   3.840  15.287  0.00  0.00    +0.000 C 
ATOM     24  C   UNL     1       6.124   4.093  13.787  0.00  0.00    +0.000 C 
ENDBRANCH  21  23
ENDBRANCH  16  19
ENDBRANCH   4  13
BRANCH   1  25
ATOM     25  N   UNL     1       0.170  12.974  20.796  0.00  0.00    +0.000 N 
ATOM     26  C   UNL     1      -0.787  13.133  21.882  0.00  0.00    +0.000 C 
BRANCH  25  33
ATOM     27  C   UNL     1       0.845  17.395  18.770  0.00  0.00    +0.000 C 
ATOM     28  O   UNL     1       1.691  18.222  18.430  0.00  0.00    +0.000 OA
ATOM     29  N   UNL     1       1.003  16.566  19.872  0.00  0.00    +0.000 N 
ATOM     30  C   UNL     1       2.156  16.775  20.740  0.00  0.00    +0.000 C 
ATOM     31  C   UNL     1       3.036  15.528  20.786  0.00  0.00    +0.000 C 
ATOM     32  C   UNL     1       2.234  14.295  21.206  0.00  0.00    +0.000 C 
ATOM     33  C   UNL     1       0.988  14.102  20.319  0.00  0.00    +0.000 C 
ATOM     34  C   UNL     1       0.162  15.410  20.229  0.00  0.00    +0.000 C 
BRANCH  27  36
ATOM     35  C   UNL     1      -1.434  18.130  18.224  0.00  0.00    +0.000 C 
ATOM     36  C   UNL     1      -0.425  17.283  18.004  0.00  0.00    +0.000 C 
ENDBRANCH  27  36
ENDBRANCH  25  33
ENDBRANCH   1  25
TORSDOF 6
ENDMDL
MODEL 8
REMARK VINA RESULT:      -8.5      6.437     10.538
REMARK  Name = 
REMARK  9 active torsions:
REMARK  status: ('A' for Active; 'I' for Inactive)
REMARK    1  A    between atoms: C_2  and  C_3
REMARK    2  A    between atoms: C_9  and  N_10
REMARK    3  A    between atoms: N_10  and  C_11
REMARK    4  A    between atoms: N_10  and  C_12
REMARK    5  A    between atoms: N_15  and  C_16
REMARK    6  A    between atoms: C_19  and  N_20
REMARK    7  A    between atoms: N_20  and  C_21
REMARK    8  A    between atoms: C_22  and  C_24
REMARK    9  A    between atoms: C_24  and  C_25
REMARK                            x       y       z     vdW  Elec       q    Type
REMARK                         _______ _______ _______ _____ _____    ______ ____
ROOT
ATOM      1  C   UNL     1       9.554  12.495  18.546  0.00  0.00    +0.000 A 
ATOM      2  N   UNL     1       9.250  11.388  17.788  0.00  0.00    +0.000 NA
ATOM      3  C   UNL     1       8.961  10.201  18.367  0.00  0.00    +0.000 A 
ATOM      4  N   UNL     1       8.695   9.127  17.509  0.00  0.00    +0.000 N 
ATOM      5  N   UNL     1       8.930   9.964  19.689  0.00  0.00    +0.000 NA
ATOM      6  C   UNL     1       9.215  11.046  20.408  0.00  0.00    +0.000 A 
ATOM      7  N   UNL     1       9.238  11.113  21.768  0.00  0.00    +0.000 N 
ATOM      8  C   UNL     1       9.559  12.396  22.106  0.00  0.00    +0.000 A 
ATOM      9  N   UNL     1       9.752  13.146  21.040  0.00  0.00    +0.000 NA
ATOM     10  C   UNL     1       9.535  12.308  19.953  0.00  0.00    +0.000 A 
ATOM     11  H   UNL     1       8.756   9.447  16.550  0.00  0.00    +0.000 HD
ATOM     12  H   UNL     1       9.042  10.343  22.391  0.00  0.00    +0.000 HD
ENDROOT
BRANCH   4  13
ATOM     13  C   UNL     1       7.772   8.092  17.725  0.00  0.00    +0.000 A 
ATOM     14  C   UNL     1       6.494   8.099  17.166  0.00  0.00    +0.000 A 
ATOM     15  C   UNL     1       5.591   7.054  17.396  0.00  0.00    +0.000 A 
ATOM     16  C   UNL     1       5.924   5.948  18.189  0.00  0.00    +0.000 A 
ATOM     17  C   UNL     1       7.205   5.959  18.766  0.00  0.00    +0.000 A 
ATOM     18  C   UNL     1       8.116   7.007  18.530  0.00  0.00    +0.000 A 
BRANCH  16  19
ATOM     19  N   UNL     1       4.994   4.859  18.391  0.00  0.00    +0.000 N 
ATOM     20  C   UNL     1       4.272   4.774  19.660  0.00  0.00    +0.000 C 
ATOM     21  C   UNL     1       4.800   3.858  17.409  0.00  0.00    +0.000 C 
ATOM     22  O   UNL     1       5.389   3.805  16.329  0.00  0.00    +0.000 OA
BRANCH  21  23
ATOM     23  C   UNL     1       3.821   2.739  17.769  0.00  0.00    +0.000 C 
ATOM     24  C   UNL     1       2.402   3.049  17.309  0.00  0.00    +0.000 C 
ENDBRANCH  21  23
ENDBRANCH  16  19
ENDBRANCH   4  13
BRANCH   1  25
ATOM     25  N   UNL     1       9.874  13.691  17.900  0.00  0.00    +0.000 N 
ATOM     26  C   UNL     1      11.165  13.780  17.234  0.00  0.00    +0.000 C 
BRANCH  25  33
ATOM     27  C   UNL     1       5.636  16.064  18.621  0.00  0.00    +0.000 C 
ATOM     28  O   UNL     1       5.127  17.167  18.818  0.00  0.00    +0.000 OA
ATOM     29  N   UNL     1       6.890  15.716  19.104  0.00  0.00    +0.000 N 
ATOM     30  C   UNL     1       7.576  16.647  19.993  0.00  0.00    +0.000 C 
ATOM     31  C   UNL     1       8.906  17.094  19.393  0.00  0.00    +0.000 C 
ATOM     32  C   UNL     1       9.791  15.895  19.044  0.00  0.00    +0.000 C 
ATOM     33  C   UNL     1       9.049  14.888  18.144  0.00  0.00    +0.000 C 
ATOM     34  C   UNL     1       7.668  14.519  18.743  0.00  0.00    +0.000 C 
BRANCH  27  36
ATOM     35  C   UNL     1       3.664  15.289  17.378  0.00  0.00    +0.000 C 
ATOM     36  C   UNL     1       4.881  15.029  17.865  0.00  0.00    +0.000 C 
ENDBRANCH  27  36
ENDBRANCH  25  33
ENDBRANCH   1  25
TORSDOF 6
ENDMDL
MODEL 9
REMARK VINA RESULT:      -8.4      1.108      1.160
REMARK  Name = 
REMARK  9 active torsions:
REMARK  status: ('A' for Active; 'I' for Inactive)
REMARK    1  A    between atoms: C_2  and  C_3
REMARK    2  A    between atoms: C_9  and  N_10
REMARK    3  A    between atoms: N_10  and  C_11
REMARK    4  A    between atoms: N_10  and  C_12
REMARK    5  A    between atoms: N_15  and  C_16
REMARK    6  A    between atoms: C_19  and  N_20
REMARK    7  A    between atoms: N_20  and  C_21
REMARK    8  A    between atoms: C_22  and  C_24
REMARK    9  A    between atoms: C_24  and  C_25
REMARK                            x       y       z     vdW  Elec       q    Type
REMARK                         _______ _______ _______ _____ _____    ______ ____
ROOT
ATOM      1  C   UNL     1       3.722   4.325  19.325  0.00  0.00    +0.000 A 
ATOM      2  N   UNL     1       3.602   5.611  18.854  0.00  0.00    +0.000 NA
ATOM      3  C   UNL     1       2.445   6.299  18.981  0.00  0.00    +0.000 A 
ATOM      4  N   UNL     1       2.414   7.590  18.442  0.00  0.00    +0.000 N 
ATOM      5  N   UNL     1       1.323   5.838  19.558  0.00  0.00    +0.000 NA
ATOM      6  C   UNL     1       1.457   4.598  20.019  0.00  0.00    +0.000 A 
ATOM      7  N   UNL     1       0.498   3.882  20.668  0.00  0.00    +0.000 N 
ATOM      8  C   UNL     1       1.039   2.669  20.982  0.00  0.00    +0.000 A 
ATOM      9  N   UNL     1       2.284   2.568  20.561  0.00  0.00    +0.000 NA
ATOM     10  C   UNL     1       2.568   3.782  19.950  0.00  0.00    +0.000 A 
ATOM     11  H   UNL     1       3.319   7.803  18.040  0.00  0.00    +0.000 HD
ATOM     12  H   UNL     1      -0.433   4.213  20.875  0.00  0.00    +0.000 HD
ENDROOT
BRANCH   4  13
ATOM     13  C   UNL     1       1.729   8.698  18.964  0.00  0.00    +0.000 A 
ATOM     14  C   UNL     1       1.307   8.762  20.293  0.00  0.00    +0.000 A 
ATOM     15  C   UNL     1       0.626   9.880  20.790  0.00  0.00    +0.000 A 
ATOM     16  C   UNL     1       0.341  10.991  19.987  0.00  0.00    +0.000 A 
ATOM     17  C   UNL     1       0.749  10.911  18.645  0.00  0.00    +0.000 A 
ATOM     18  C   UNL     1       1.440   9.790  18.145  0.00  0.00    +0.000 A 
BRANCH  16  19
ATOM     19  N   UNL     1      -0.334  12.154  20.521  0.00  0.00    +0.000 N 
ATOM     20  C   UNL     1       0.385  13.022  21.452  0.00  0.00    +0.000 C 
ATOM     21  C   UNL     1      -1.679  12.445  20.192  0.00  0.00    +0.000 C 
ATOM     22  O   UNL     1      -2.392  11.760  19.458  0.00  0.00    +0.000 OA
BRANCH  21  23
ATOM     23  C   UNL     1      -2.286  13.681  20.860  0.00  0.00    +0.000 C 
ATOM     24  C   UNL     1      -3.376  13.314  21.860  0.00  0.00    +0.000 C 
ENDBRANCH  21  23
ENDBRANCH  16  19
ENDBRANCH   4  13
BRANCH   1  25
ATOM     25  N   UNL     1       4.929   3.646  19.145  0.00  0.00    +0.000 N 
ATOM     26  C   UNL     1       5.212   2.518  20.019  0.00  0.00    +0.000 C 
BRANCH  25  33
ATOM     27  C   UNL     1       6.888   5.022  14.857  0.00  0.00    +0.000 C 
ATOM     28  O   UNL     1       7.865   5.549  14.326  0.00  0.00    +0.000 OA
ATOM     29  N   UNL     1       6.425   5.387  16.114  0.00  0.00    +0.000 N 
ATOM     30  C   UNL     1       7.039   6.534  16.775  0.00  0.00    +0.000 C 
ATOM     31  C   UNL     1       7.673   6.122  18.101  0.00  0.00    +0.000 C 
ATOM     32  C   UNL     1       6.659   5.425  19.011  0.00  0.00    +0.000 C 
ATOM     33  C   UNL     1       5.975   4.244  18.295  0.00  0.00    +0.000 C 
ATOM     34  C   UNL     1       5.415   4.678  16.917  0.00  0.00    +0.000 C 
BRANCH  27  36
ATOM     35  C   UNL     1       6.421   3.675  12.857  0.00  0.00    +0.000 C 
ATOM     36  C   UNL     1       6.132   3.969  14.127  0.00  0.00    +0.000 C 
ENDBRANCH  27  36
ENDBRANCH  25  33
ENDBRANCH   1  25
TORSDOF 6
ENDMDL
