MODEL 1
REMARK VINA RESULT:      -8.5      0.000      0.000
REMARK  Name = 
REMARK  10 active torsions:
REMARK  status: ('A' for Active; 'I' for Inactive)
REMARK    1  A    between atoms: C_1  and  C_2
REMARK    2  A    between atoms: C_5  and  O_6
REMARK    3  A    between atoms: C_7  and  N_8
REMARK    4  A    between atoms: N_8  and  C_9
REMARK    5  A    between atoms: C_9  and  C_10
REMARK    6  A    between atoms: C_10  and  C_11
REMARK    7  A    between atoms: C_11  and  N_12
REMARK    8  A    between atoms: N_15  and  C_16
REMARK    9  A    between atoms: C_16  and  C_17
REMARK   10  A    between atoms: C_16  and  C_23
REMARK                            x       y       z     vdW  Elec       q    Type
REMARK                         _______ _______ _______ _____ _____    ______ ____
ROOT
ATOM      1  N   UNL     1       4.047   4.461  19.646  0.00  0.00    +0.000 NA
ATOM      2  C   UNL     1       4.802   3.437  18.910  0.00  0.00    +0.000 C 
ATOM      3  C   UNL     1       4.267   3.254  17.472  0.00  0.00    +0.000 C 
ATOM      4  N   UNL     1       4.517   4.447  16.618  0.00  0.00    +0.000 NA
ATOM      5  C   UNL     1       3.893   5.602  17.307  0.00  0.00    +0.000 C 
ATOM      6  C   UNL     1       4.076   5.719  18.854  0.00  0.00    +0.000 C 
ENDROOT
BRANCH   1   7
ATOM      7  C   UNL     1       2.678   4.014  19.968  0.00  0.00    +0.000 C 
BRANCH   7   8
ATOM      8  C   UNL     1       2.024   4.749  21.158  0.00  0.00    +0.000 C 
BRANCH   8   9
ATOM      9  C   UNL     1       1.160   5.945  20.745  0.00  0.00    +0.000 C 
BRANCH   9  10
ATOM     10  N   UNL     1       1.905   7.174  21.009  0.00  0.00    +0.000 N 
ATOM     11  H   UNL     1       2.472   7.145  21.860  0.00  0.00    +0.000 HD
BRANCH  10  17
ATOM     12  C   UNL     1      -1.025  10.615  23.094  0.00  0.00    +0.000 C 
ATOM     13  C   UNL     1      -0.238  10.110  21.916  0.00  0.00    +0.000 A 
ATOM     14  C   UNL     1      -0.238  10.802  20.703  0.00  0.00    +0.000 A 
ATOM     15  C   UNL     1       0.483  10.306  19.616  0.00  0.00    +0.000 A 
ATOM     16  C   UNL     1       1.207   9.123  19.758  0.00  0.00    +0.000 A 
ATOM     17  C   UNL     1       1.245   8.412  20.971  0.00  0.00    +0.000 A 
ATOM     18  C   UNL     1       0.498   8.921  22.039  0.00  0.00    +0.000 A 
BRANCH  16  19
ATOM     19  O   UNL     1       1.935   8.628  18.701  0.00  0.00    +0.000 OA
ATOM     20  H   UNL     1       2.633   9.270  18.492  0.00  0.00    +0.000 HD
ENDBRANCH  16  19
ENDBRANCH  10  17
ENDBRANCH   9  10
ENDBRANCH   8   9
ENDBRANCH   7   8
ENDBRANCH   1   7
BRANCH   4  21
ATOM     21  C   UNL     1       5.980   4.547  16.337  0.00  0.00    +0.000 C 
BRANCH  21  22
ATOM     22  C   UNL     1       6.751   5.665  17.041  0.00  0.00    +0.000 A 
ATOM     23  C   UNL     1       6.592   6.988  16.571  0.00  0.00    +0.000 A 
ATOM     24  C   UNL     1       7.250   8.060  17.177  0.00  0.00    +0.000 A 
ATOM     25  C   UNL     1       8.071   7.824  18.274  0.00  0.00    +0.000 A 
ATOM     26 CL   UNL     1       8.876   9.143  19.029  0.00  0.00    +0.000 Cl
ATOM     27  C   UNL     1       8.245   6.528  18.757  0.00  0.00    +0.000 A 
ATOM     28  C   UNL     1       7.593   5.452  18.143  0.00  0.00    +0.000 A 
ENDBRANCH  21  22
BRANCH  21  29
ATOM     29  C   UNL     1       6.219   4.528  14.812  0.00  0.00    +0.000 A 
ATOM     30  C   UNL     1       5.440   3.726  13.956  0.00  0.00    +0.000 A 
ATOM     31  C   UNL     1       5.823   3.518  12.628  0.00  0.00    +0.000 A 
ATOM     32  C   UNL     1       6.988   4.102  12.137  0.00  0.00    +0.000 A 
ATOM     33  C   UNL     1       7.759   4.916  12.963  0.00  0.00    +0.000 A 
ATOM     34  C   UNL     1       7.372   5.139  14.286  0.00  0.00    +0.000 A 
ENDBRANCH  21  29
ENDBRANCH   4  21
TORSDOF 9
ENDMDL
MODEL 2
REMARK VINA RESULT:      -7.8      1.240      1.926
REMARK  Name = 
REMARK  10 active torsions:
REMARK  status: ('A' for Active; 'I' for Inactive)
REMARK    1  A    between atoms: C_1  and  C_2
REMARK    2  A    between atoms: C_5  and  O_6
REMARK    3  A    between atoms: C_7  and  N_8
REMARK    4  A    between atoms: N_8  and  C_9
REMARK    5  A    between atoms: C_9  and  C_10
REMARK    6  A    between atoms: C_10  and  C_11
REMARK    7  A    between atoms: C_11  and  N_12
REMARK    8  A    between atoms: N_15  and  C_16
REMARK    9  A    between atoms: C_16  and  C_17
REMARK   10  A    between atoms: C_16  and  C_23
REMARK                            x       y       z     vdW  Elec       q    Type
REMARK                         _______ _______ _______ _____ _____    ______ ____
ROOT
ATOM      1  N   UNL     1       3.761   5.265  19.711  0.00  0.00    +0.000 NA
ATOM      2  C   UNL     1       4.483   4.072  19.245  0.00  0.00    +0.000 C 
ATOM      3  C   UNL     1       4.087   3.690  17.801  0.00  0.00    +0.000 C 
ATOM      4  N   UNL     1       4.544   4.695  16.804  0.00  0.00    +0.000 NA
ATOM      5  C   UNL     1       3.971   5.997  17.217  0.00  0.00    +0.000 C 
ATOM      6  C   UNL     1       4.000   6.362  18.736  0.00  0.00    +0.000 C 
ENDROOT
BRANCH   1   7
ATOM      7  C   UNL     1       2.327   4.993  19.932  0.00  0.00    +0.000 C 
BRANCH   7   8
ATOM      8  C   UNL     1       1.651   5.914  20.970  0.00  0.00    +0.000 C 
BRANCH   8   9
ATOM      9  C   UNL     1       1.530   7.373  20.515  0.00  0.00    +0.000 C 
BRANCH   9  10
ATOM     10  N   UNL     1       1.226   8.202  21.679  0.00  0.00    +0.000 N 
ATOM     11  H   UNL     1       0.935   7.674  22.504  0.00  0.00    +0.000 HD
BRANCH  10  17
ATOM     12  C   UNL     1      -0.979  11.694  18.900  0.00  0.00    +0.000 C 
ATOM     13  C   UNL     1      -0.697  11.079  20.244  0.00  0.00    +0.000 A 
ATOM     14  C   UNL     1      -1.188  11.659  21.416  0.00  0.00    +0.000 A 
ATOM     15  C   UNL     1      -0.898  11.085  22.654  0.00  0.00    +0.000 A 
ATOM     16  C   UNL     1      -0.126   9.925  22.706  0.00  0.00    +0.000 A 
ATOM     17  C   UNL     1       0.367   9.303  21.544  0.00  0.00    +0.000 A 
ATOM     18  C   UNL     1       0.078   9.911  20.317  0.00  0.00    +0.000 A 
BRANCH  16  19
ATOM     19  O   UNL     1       0.156   9.338  23.917  0.00  0.00    +0.000 OA
ATOM     20  H   UNL     1      -0.685   9.151  24.362  0.00  0.00    +0.000 HD
ENDBRANCH  16  19
ENDBRANCH  10  17
ENDBRANCH   9  10
ENDBRANCH   8   9
ENDBRANCH   7   8
ENDBRANCH   1   7
BRANCH   4  21
ATOM     21  C   UNL     1       6.031   4.626  16.689  0.00  0.00    +0.000 C 
BRANCH  21  22
ATOM     22  C   UNL     1       6.834   5.765  17.319  0.00  0.00    +0.000 A 
ATOM     23  C   UNL     1       6.768   7.043  16.718  0.00  0.00    +0.000 A 
ATOM     24  C   UNL     1       7.458   8.134  17.250  0.00  0.00    +0.000 A 
ATOM     25  C   UNL     1       8.220   7.963  18.400  0.00  0.00    +0.000 A 
ATOM     26 CL   UNL     1       9.065   9.307  19.064  0.00  0.00    +0.000 Cl
ATOM     27  C   UNL     1       8.302   6.714  19.012  0.00  0.00    +0.000 A 
ATOM     28  C   UNL     1       7.617   5.618  18.474  0.00  0.00    +0.000 A 
ENDBRANCH  21  22
BRANCH  21  29
ATOM     29  C   UNL     1       6.428   4.357  15.222  0.00  0.00    +0.000 A 
ATOM     30  C   UNL     1       7.523   5.011  14.625  0.00  0.00    +0.000 A 
ATOM     31  C   UNL     1       7.719   4.960  13.243  0.00  0.00    +0.000 A 
ATOM     32  C   UNL     1       6.824   4.261  12.436  0.00  0.00    +0.000 A 
ATOM     33  C   UNL     1       5.748   3.590  13.011  0.00  0.00    +0.000 A 
ATOM     34  C   UNL     1       5.557   3.626  14.393  0.00  0.00    +0.000 A 
ENDBRANCH  21  29
ENDBRANCH   4  21
TORSDOF 9
ENDMDL
MODEL 3
REMARK VINA RESULT:      -7.8      0.954      1.684
REMARK  Name = 
REMARK  10 active torsions:
REMARK  status: ('A' for Active; 'I' for Inactive)
REMARK    1  A    between atoms: C_1  and  C_2
REMARK    2  A    between atoms: C_5  and  O_6
REMARK    3  A    between atoms: C_7  and  N_8
REMARK    4  A    between atoms: N_8  and  C_9
REMARK    5  A    between atoms: C_9  and  C_10
REMARK    6  A    between atoms: C_10  and  C_11
REMARK    7  A    between atoms: C_11  and  N_12
REMARK    8  A    between atoms: N_15  and  C_16
REMARK    9  A    between atoms: C_16  and  C_17
REMARK   10  A    between atoms: C_16  and  C_23
REMARK                            x       y       z     vdW  Elec       q    Type
REMARK                         _______ _______ _______ _____ _____    ______ ____
ROOT
ATOM      1  N   UNL     1       4.035   4.803  19.721  0.00  0.00    +0.000 NA
ATOM      2  C   UNL     1       4.830   3.755  19.064  0.00  0.00    +0.000 C 
ATOM      3  C   UNL     1       4.306   3.442  17.645  0.00  0.00    +0.000 C 
ATOM      4  N   UNL     1       4.512   4.575  16.703  0.00  0.00    +0.000 NA
ATOM      5  C   UNL     1       3.844   5.754  17.301  0.00  0.00    +0.000 C 
ATOM      6  C   UNL     1       4.019   5.997  18.835  0.00  0.00    +0.000 C 
ENDROOT
BRANCH   1   7
ATOM      7  C   UNL     1       2.683   4.330  20.077  0.00  0.00    +0.000 C 
BRANCH   7   8
ATOM      8  C   UNL     1       1.564   5.375  19.878  0.00  0.00    +0.000 C 
BRANCH   8   9
ATOM      9  C   UNL     1       1.346   6.284  21.093  0.00  0.00    +0.000 C 
BRANCH   9  10
ATOM     10  N   UNL     1       1.927   7.595  20.807  0.00  0.00    +0.000 N 
ATOM     11  H   UNL     1       2.718   7.841  21.406  0.00  0.00    +0.000 HD
BRANCH  10  17
ATOM     12  C   UNL     1      -1.103  10.547  18.186  0.00  0.00    +0.000 C 
ATOM     13  C   UNL     1      -0.352  10.241  19.453  0.00  0.00    +0.000 A 
ATOM     14  C   UNL     1      -0.366  11.132  20.529  0.00  0.00    +0.000 A 
ATOM     15  C   UNL     1       0.354  10.838  21.687  0.00  0.00    +0.000 A 
ATOM     16  C   UNL     1       1.075   9.647  21.762  0.00  0.00    +0.000 A 
ATOM     17  C   UNL     1       1.094   8.719  20.704  0.00  0.00    +0.000 A 
ATOM     18  C   UNL     1       0.379   9.047  19.547  0.00  0.00    +0.000 A 
BRANCH  16  19
ATOM     19  O   UNL     1       1.778   9.335  22.902  0.00  0.00    +0.000 OA
ATOM     20  H   UNL     1       2.627   9.804  22.868  0.00  0.00    +0.000 HD
ENDBRANCH  16  19
ENDBRANCH  10  17
ENDBRANCH   9  10
ENDBRANCH   8   9
ENDBRANCH   7   8
ENDBRANCH   1   7
BRANCH   4  21
ATOM     21  C   UNL     1       5.971   4.708  16.413  0.00  0.00    +0.000 C 
BRANCH  21  22
ATOM     22  C   UNL     1       6.708   5.879  17.067  0.00  0.00    +0.000 A 
ATOM     23  C   UNL     1       7.532   5.611  18.184  0.00  0.00    +0.000 A 
ATOM     24  C   UNL     1       8.249   6.627  18.818  0.00  0.00    +0.000 A 
ATOM     25  C   UNL     1       8.161   7.928  18.336  0.00  0.00    +0.000 A 
ATOM     26 CL   UNL     1       9.050   9.181  19.110  0.00  0.00    +0.000 Cl
ATOM     27  C   UNL     1       7.355   8.218  17.237  0.00  0.00    +0.000 A 
ATOM     28  C   UNL     1       6.628   7.201  16.605  0.00  0.00    +0.000 A 
ENDBRANCH  21  22
BRANCH  21  29
ATOM     29  C   UNL     1       6.209   4.630  14.890  0.00  0.00    +0.000 A 
ATOM     30  C   UNL     1       5.423   3.804  14.065  0.00  0.00    +0.000 A 
ATOM     31  C   UNL     1       5.804   3.544  12.746  0.00  0.00    +0.000 A 
ATOM     32  C   UNL     1       6.973   4.100  12.233  0.00  0.00    +0.000 A 
ATOM     33  C   UNL     1       7.750   4.938  13.027  0.00  0.00    +0.000 A 
ATOM     34  C   UNL     1       7.366   5.213  14.341  0.00  0.00    +0.000 A 
ENDBRANCH  21  29
ENDBRANCH   4  21
TORSDOF 9
ENDMDL
MODEL 4
REMARK VINA RESULT:      -7.7      4.638      7.737
REMARK  Name = 
REMARK  10 active torsions:
REMARK  status: ('A' for Active; 'I' for Inactive)
REMARK    1  A    between atoms: C_1  and  C_2
REMARK    2  A    between atoms: C_5  and  O_6
REMARK    3  A    between atoms: C_7  and  N_8
REMARK    4  A    between atoms: N_8  and  C_9
REMARK    5  A    between atoms: C_9  and  C_10
REMARK    6  A    between atoms: C_10  and  C_11
REMARK    7  A    between atoms: C_11  and  N_12
REMARK    8  A    between atoms: N_15  and  C_16
REMARK    9  A    between atoms: C_16  and  C_17
REMARK   10  A    between atoms: C_16  and  C_23
REMARK                            x       y       z     vdW  Elec       q    Type
REMARK                         _______ _______ _______ _____ _____    ______ ____
ROOT
ATOM      1  N   UNL     1       8.087   6.862  17.806  0.00  0.00    +0.000 NA
ATOM      2  C   UNL     1       7.756   5.605  18.493  0.00  0.00    +0.000 C 
ATOM      3  C   UNL     1       6.361   5.664  19.155  0.00  0.00    +0.000 C 
ATOM      4  N   UNL     1       5.262   5.728  18.153  0.00  0.00    +0.000 NA
ATOM      5  C   UNL     1       5.529   6.910  17.302  0.00  0.00    +0.000 C 
ATOM      6  C   UNL     1       7.000   7.161  16.837  0.00  0.00    +0.000 C 
ENDROOT
BRANCH   1   7
ATOM      7  C   UNL     1       8.332   7.964  18.757  0.00  0.00    +0.000 C 
BRANCH   7   8
ATOM      8  C   UNL     1       8.363   9.369  18.117  0.00  0.00    +0.000 C 
BRANCH   8   9
ATOM      9  C   UNL     1       9.003  10.439  19.009  0.00  0.00    +0.000 C 
BRANCH   9  10
ATOM     10  N   UNL     1       9.737  11.376  18.162  0.00  0.00    +0.000 N 
ATOM     11  H   UNL     1      10.371  10.929  17.496  0.00  0.00    +0.000 HD
BRANCH  10  17
ATOM     12  C   UNL     1       9.894  15.237  21.299  0.00  0.00    +0.000 C 
ATOM     13  C   UNL     1      10.530  14.404  20.220  0.00  0.00    +0.000 A 
ATOM     14  C   UNL     1      11.769  14.755  19.679  0.00  0.00    +0.000 A 
ATOM     15  C   UNL     1      12.333  13.981  18.664  0.00  0.00    +0.000 A 
ATOM     16  C   UNL     1      11.653  12.852  18.207  0.00  0.00    +0.000 A 
ATOM     17  C   UNL     1      10.413  12.459  18.744  0.00  0.00    +0.000 A 
ATOM     18  C   UNL     1       9.862  13.264  19.747  0.00  0.00    +0.000 A 
BRANCH  16  19
ATOM     19  O   UNL     1      12.201  12.069  17.218  0.00  0.00    +0.000 OA
ATOM     20  H   UNL     1      13.074  11.772  17.522  0.00  0.00    +0.000 HD
ENDBRANCH  16  19
ENDBRANCH  10  17
ENDBRANCH   9  10
ENDBRANCH   8   9
ENDBRANCH   7   8
ENDBRANCH   1   7
BRANCH   4  21
ATOM     21  C   UNL     1       5.160   4.411  17.457  0.00  0.00    +0.000 C 
BRANCH  21  22
ATOM     22  C   UNL     1       5.577   4.366  15.986  0.00  0.00    +0.000 A 
ATOM     23  C   UNL     1       6.957   4.377  15.681  0.00  0.00    +0.000 A 
ATOM     24  C   UNL     1       7.411   4.318  14.362  0.00  0.00    +0.000 A 
ATOM     25  C   UNL     1       6.487   4.236  13.326  0.00  0.00    +0.000 A 
ATOM     26 CL   UNL     1       7.042   4.154  11.700  0.00  0.00    +0.000 Cl
ATOM     27  C   UNL     1       5.120   4.223  13.600  0.00  0.00    +0.000 A 
ATOM     28  C   UNL     1       4.665   4.291  14.922  0.00  0.00    +0.000 A 
ENDBRANCH  21  22
BRANCH  21  29
ATOM     29  C   UNL     1       3.763   3.800  17.700  0.00  0.00    +0.000 A 
ATOM     30  C   UNL     1       2.637   4.611  17.935  0.00  0.00    +0.000 A 
ATOM     31  C   UNL     1       1.443   4.057  18.403  0.00  0.00    +0.000 A 
ATOM     32  C   UNL     1       1.356   2.688  18.646  0.00  0.00    +0.000 A 
ATOM     33  C   UNL     1       2.453   1.867  18.397  0.00  0.00    +0.000 A 
ATOM     34  C   UNL     1       3.643   2.415  17.915  0.00  0.00    +0.000 A 
ENDBRANCH  21  29
ENDBRANCH   4  21
TORSDOF 9
ENDMDL
MODEL 5
REMARK VINA RESULT:      -7.6      4.433      7.236
REMARK  Name = 
REMARK  10 active torsions:
REMARK  status: ('A' for Active; 'I' for Inactive)
REMARK    1  A    between atoms: C_1  and  C_2
REMARK    2  A    between atoms: C_5  and  O_6
REMARK    3  A    between atoms: C_7  and  N_8
REMARK    4  A    between atoms: N_8  and  C_9
REMARK    5  A    between atoms: C_9  and  C_10
REMARK    6  A    between atoms: C_10  and  C_11
REMARK    7  A    between atoms: C_11  and  N_12
REMARK    8  A    between atoms: N_15  and  C_16
REMARK    9  A    between atoms: C_16  and  C_17
REMARK   10  A    between atoms: C_16  and  C_23
REMARK                            x       y       z     vdW  Elec       q    Type
REMARK                         _______ _______ _______ _____ _____    ______ ____
ROOT
ATOM      1  N   UNL     1       8.023   6.828  17.858  0.00  0.00    +0.000 NA
ATOM      2  C   UNL     1       7.658   5.590  18.560  0.00  0.00    +0.000 C 
ATOM      3  C   UNL     1       6.239   5.672  19.167  0.00  0.00    +0.000 C 
ATOM      4  N   UNL     1       5.179   5.719  18.123  0.00  0.00    +0.000 NA
ATOM      5  C   UNL     1       5.486   6.880  17.255  0.00  0.00    +0.000 C 
ATOM      6  C   UNL     1       6.975   7.111  16.841  0.00  0.00    +0.000 C 
ENDROOT
BRANCH   1   7
ATOM      7  C   UNL     1       8.238   7.951  18.791  0.00  0.00    +0.000 C 
BRANCH   7   8
ATOM      8  C   UNL     1       8.341   9.337  18.117  0.00  0.00    +0.000 C 
BRANCH   8   9
ATOM      9  C   UNL     1       9.310  10.294  18.819  0.00  0.00    +0.000 C 
BRANCH   9  10
ATOM     10  N   UNL     1       9.747  11.305  17.859  0.00  0.00    +0.000 N 
ATOM     11  H   UNL     1      10.757  11.326  17.704  0.00  0.00    +0.000 HD
BRANCH  10  17
ATOM     12  C   UNL     1       6.128  14.719  17.726  0.00  0.00    +0.000 C 
ATOM     13  C   UNL     1       7.580  14.361  17.880  0.00  0.00    +0.000 A 
ATOM     14  C   UNL     1       8.551  15.353  18.041  0.00  0.00    +0.000 A 
ATOM     15  C   UNL     1       9.895  15.001  18.162  0.00  0.00    +0.000 A 
ATOM     16  C   UNL     1      10.256  13.654  18.131  0.00  0.00    +0.000 A 
ATOM     17  C   UNL     1       9.302  12.629  17.990  0.00  0.00    +0.000 A 
ATOM     18  C   UNL     1       7.963  13.011  17.852  0.00  0.00    +0.000 A 
BRANCH  16  19
ATOM     19  O   UNL     1      11.575  13.289  18.264  0.00  0.00    +0.000 OA
ATOM     20  H   UNL     1      12.007  13.409  17.404  0.00  0.00    +0.000 HD
ENDBRANCH  16  19
ENDBRANCH  10  17
ENDBRANCH   9  10
ENDBRANCH   8   9
ENDBRANCH   7   8
ENDBRANCH   1   7
BRANCH   4  21
ATOM     21  C   UNL     1       5.095   4.387  17.454  0.00  0.00    +0.000 C 
BRANCH  21  22
ATOM     22  C   UNL     1       5.536   4.312  15.991  0.00  0.00    +0.000 A 
ATOM     23  C   UNL     1       6.921   4.282  15.710  0.00  0.00    +0.000 A 
ATOM     24  C   UNL     1       7.396   4.195  14.400  0.00  0.00    +0.000 A 
ATOM     25  C   UNL     1       6.489   4.125  13.349  0.00  0.00    +0.000 A 
ATOM     26 CL   UNL     1       7.070   4.008  11.734  0.00  0.00    +0.000 Cl
ATOM     27  C   UNL     1       5.118   4.152  13.599  0.00  0.00    +0.000 A 
ATOM     28  C   UNL     1       4.641   4.249  14.912  0.00  0.00    +0.000 A 
ENDBRANCH  21  22
BRANCH  21  29
ATOM     29  C   UNL     1       3.697   3.774  17.687  0.00  0.00    +0.000 A 
ATOM     30  C   UNL     1       2.550   4.582  17.799  0.00  0.00    +0.000 A 
ATOM     31  C   UNL     1       1.344   4.049  18.261  0.00  0.00    +0.000 A 
ATOM     32  C   UNL     1       1.266   2.705  18.619  0.00  0.00    +0.000 A 
ATOM     33  C   UNL     1       2.384   1.886  18.493  0.00  0.00    +0.000 A 
ATOM     34  C   UNL     1       3.588   2.411  18.018  0.00  0.00    +0.000 A 
ENDBRANCH  21  29
ENDBRANCH   4  21
TORSDOF 9
ENDMDL
MODEL 6
REMARK VINA RESULT:      -7.5      4.284      7.252
REMARK  Name = 
REMARK  10 active torsions:
REMARK  status: ('A' for Active; 'I' for Inactive)
REMARK    1  A    between atoms: C_1  and  C_2
REMARK    2  A    between atoms: C_5  and  O_6
REMARK    3  A    between atoms: C_7  and  N_8
REMARK    4  A    between atoms: N_8  and  C_9
REMARK    5  A    between atoms: C_9  and  C_10
REMARK    6  A    between atoms: C_10  and  C_11
REMARK    7  A    between atoms: C_11  and  N_12
REMARK    8  A    between atoms: N_15  and  C_16
REMARK    9  A    between atoms: C_16  and  C_17
REMARK   10  A    between atoms: C_16  and  C_23
REMARK                            x       y       z     vdW  Elec       q    Type
REMARK                         _______ _______ _______ _____ _____    ______ ____
ROOT
ATOM      1  N   UNL     1       8.089   6.882  17.857  0.00  0.00    +0.000 NA
ATOM      2  C   UNL     1       7.732   5.657  18.587  0.00  0.00    +0.000 C 
ATOM      3  C   UNL     1       6.309   5.741  19.184  0.00  0.00    +0.000 C 
ATOM      4  N   UNL     1       5.255   5.752  18.134  0.00  0.00    +0.000 NA
ATOM      5  C   UNL     1       5.556   6.895  17.241  0.00  0.00    +0.000 C 
ATOM      6  C   UNL     1       7.045   7.131  16.828  0.00  0.00    +0.000 C 
ENDROOT
BRANCH   1   7
ATOM      7  C   UNL     1       8.290   8.029  18.764  0.00  0.00    +0.000 C 
BRANCH   7   8
ATOM      8  C   UNL     1       8.195   9.411  18.083  0.00  0.00    +0.000 C 
BRANCH   8   9
ATOM      9  C   UNL     1       9.349  10.355  18.441  0.00  0.00    +0.000 C 
BRANCH   9  10
ATOM     10  N   UNL     1       9.373  10.534  19.891  0.00  0.00    +0.000 N 
ATOM     11  H   UNL     1       8.611  10.064  20.383  0.00  0.00    +0.000 HD
BRANCH  10  17
ATOM     12  C   UNL     1      11.038  15.217  19.629  0.00  0.00    +0.000 C 
ATOM     13  C   UNL     1      10.353  14.115  20.390  0.00  0.00    +0.000 A 
ATOM     14  C   UNL     1       9.935  14.306  21.709  0.00  0.00    +0.000 A 
ATOM     15  C   UNL     1       9.320  13.265  22.404  0.00  0.00    +0.000 A 
ATOM     16  C   UNL     1       9.119  12.041  21.766  0.00  0.00    +0.000 A 
ATOM     17  C   UNL     1       9.509  11.821  20.432  0.00  0.00    +0.000 A 
ATOM     18  C   UNL     1      10.141  12.876  19.765  0.00  0.00    +0.000 A 
BRANCH  16  19
ATOM     19  O   UNL     1       8.500  11.009  22.432  0.00  0.00    +0.000 OA
ATOM     20  H   UNL     1       9.080  10.232  22.386  0.00  0.00    +0.000 HD
ENDBRANCH  16  19
ENDBRANCH  10  17
ENDBRANCH   9  10
ENDBRANCH   8   9
ENDBRANCH   7   8
ENDBRANCH   1   7
BRANCH   4  21
ATOM     21  C   UNL     1       5.186   4.404  17.497  0.00  0.00    +0.000 C 
BRANCH  21  22
ATOM     22  C   UNL     1       5.686   4.288  16.055  0.00  0.00    +0.000 A 
ATOM     23  C   UNL     1       4.728   4.203  15.020  0.00  0.00    +0.000 A 
ATOM     24  C   UNL     1       5.111   4.114  13.680  0.00  0.00    +0.000 A 
ATOM     25  C   UNL     1       6.462   4.120  13.356  0.00  0.00    +0.000 A 
ATOM     26 CL   UNL     1       6.938   4.019  11.706  0.00  0.00    +0.000 Cl
ATOM     27  C   UNL     1       7.427   4.202  14.358  0.00  0.00    +0.000 A 
ATOM     28  C   UNL     1       7.043   4.282  15.702  0.00  0.00    +0.000 A 
ENDBRANCH  21  22
BRANCH  21  29
ATOM     29  C   UNL     1       3.776   3.808  17.689  0.00  0.00    +0.000 A 
ATOM     30  C   UNL     1       2.639   4.631  17.801  0.00  0.00    +0.000 A 
ATOM     31  C   UNL     1       1.416   4.105  18.227  0.00  0.00    +0.000 A 
ATOM     32  C   UNL     1       1.311   2.754  18.549  0.00  0.00    +0.000 A 
ATOM     33  C   UNL     1       2.419   1.921  18.422  0.00  0.00    +0.000 A 
ATOM     34  C   UNL     1       3.639   2.439  17.983  0.00  0.00    +0.000 A 
ENDBRANCH  21  29
ENDBRANCH   4  21
TORSDOF 9
ENDMDL
MODEL 7
REMARK VINA RESULT:      -7.4      4.444     10.667
REMARK  Name = 
REMARK  10 active torsions:
REMARK  status: ('A' for Active; 'I' for Inactive)
REMARK    1  A    between atoms: C_1  and  C_2
REMARK    2  A    between atoms: C_5  and  O_6
REMARK    3  A    between atoms: C_7  and  N_8
REMARK    4  A    between atoms: N_8  and  C_9
REMARK    5  A    between atoms: C_9  and  C_10
REMARK    6  A    between atoms: C_10  and  C_11
REMARK    7  A    between atoms: C_11  and  N_12
REMARK    8  A    between atoms: N_15  and  C_16
REMARK    9  A    between atoms: C_16  and  C_17
REMARK   10  A    between atoms: C_16  and  C_23
REMARK                            x       y       z     vdW  Elec       q    Type
REMARK                         _______ _______ _______ _____ _____    ______ ____
ROOT
ATOM      1  N   UNL     1       0.700  10.051  19.268  0.00  0.00    +0.000 NA
ATOM      2  C   UNL     1       1.505  11.267  19.452  0.00  0.00    +0.000 C 
ATOM      3  C   UNL     1       0.991  12.432  18.577  0.00  0.00    +0.000 C 
ATOM      4  N   UNL     1      -0.346  12.920  19.012  0.00  0.00    +0.000 NA
ATOM      5  C   UNL     1      -1.256  11.751  18.981  0.00  0.00    +0.000 C 
ATOM      6  C   UNL     1      -0.722  10.391  19.537  0.00  0.00    +0.000 C 
ENDROOT
BRANCH   1   7
ATOM      7  C   UNL     1       0.907   9.446  17.938  0.00  0.00    +0.000 C 
BRANCH   7   8
ATOM      8  C   UNL     1       2.255   8.712  17.768  0.00  0.00    +0.000 C 
BRANCH   8   9
ATOM      9  C   UNL     1       2.428   7.515  18.710  0.00  0.00    +0.000 C 
BRANCH   9  10
ATOM     10  N   UNL     1       3.157   6.464  18.002  0.00  0.00    +0.000 N 
ATOM     11  H   UNL     1       3.147   6.562  16.984  0.00  0.00    +0.000 HD
BRANCH  10  17
ATOM     12  C   UNL     1       1.141   2.954  20.898  0.00  0.00    +0.000 C 
ATOM     13  C   UNL     1       2.000   3.347  19.726  0.00  0.00    +0.000 A 
ATOM     14  C   UNL     1       2.678   2.382  18.979  0.00  0.00    +0.000 A 
ATOM     15  C   UNL     1       3.485   2.769  17.908  0.00  0.00    +0.000 A 
ATOM     16  C   UNL     1       3.598   4.122  17.590  0.00  0.00    +0.000 A 
ATOM     17  C   UNL     1       2.912   5.118  18.309  0.00  0.00    +0.000 A 
ATOM     18  C   UNL     1       2.124   4.704  19.390  0.00  0.00    +0.000 A 
BRANCH  16  19
ATOM     19  O   UNL     1       4.377   4.519  16.528  0.00  0.00    +0.000 OA
ATOM     20  H   UNL     1       4.042   5.374  16.214  0.00  0.00    +0.000 HD
ENDBRANCH  16  19
ENDBRANCH  10  17
ENDBRANCH   9  10
ENDBRANCH   8   9
ENDBRANCH   7   8
ENDBRANCH   1   7
BRANCH   4  21
ATOM     21  C   UNL     1      -0.206  13.624  20.321  0.00  0.00    +0.000 C 
BRANCH  21  22
ATOM     22  C   UNL     1      -1.225  13.283  21.410  0.00  0.00    +0.000 A 
ATOM     23  C   UNL     1      -2.521  13.838  21.312  0.00  0.00    +0.000 A 
ATOM     24  C   UNL     1      -3.507  13.555  22.259  0.00  0.00    +0.000 A 
ATOM     25  C   UNL     1      -3.212  12.700  23.315  0.00  0.00    +0.000 A 
ATOM     26 CL   UNL     1      -4.427  12.341  24.479  0.00  0.00    +0.000 Cl
ATOM     27  C   UNL     1      -1.942  12.139  23.434  0.00  0.00    +0.000 A 
ATOM     28  C   UNL     1      -0.950  12.430  22.490  0.00  0.00    +0.000 A 
ENDBRANCH  21  22
BRANCH  21  29
ATOM     29  C   UNL     1      -0.075  15.144  20.083  0.00  0.00    +0.000 A 
ATOM     30  C   UNL     1       0.276  16.023  21.124  0.00  0.00    +0.000 A 
ATOM     31  C   UNL     1       0.143  17.405  20.967  0.00  0.00    +0.000 A 
ATOM     32  C   UNL     1      -0.345  17.929  19.773  0.00  0.00    +0.000 A 
ATOM     33  C   UNL     1      -0.676  17.075  18.724  0.00  0.00    +0.000 A 
ATOM     34  C   UNL     1      -0.531  15.695  18.871  0.00  0.00    +0.000 A 
ENDBRANCH  21  29
ENDBRANCH   4  21
TORSDOF 9
ENDMDL
MODEL 8
REMARK VINA RESULT:      -7.4      4.841     10.763
REMARK  Name = 
REMARK  10 active torsions:
REMARK  status: ('A' for Active; 'I' for Inactive)
REMARK    1  A    between atoms: C_1  and  C_2
REMARK    2  A    between atoms: C_5  and  O_6
REMARK    3  A    between atoms: C_7  and  N_8
REMARK    4  A    between atoms: N_8  and  C_9
REMARK    5  A    between atoms: C_9  and  C_10
REMARK    6  A    between atoms: C_10  and  C_11
REMARK    7  A    between atoms: C_11  and  N_12
REMARK    8  A    between atoms: N_15  and  C_16
REMARK    9  A    between atoms: C_16  and  C_17
REMARK   10  A    between atoms: C_16  and  C_23
REMARK                            x       y       z     vdW  Elec       q    Type
REMARK                         _______ _______ _______ _____ _____    ______ ____
ROOT
ATOM      1  N   UNL     1       0.723  10.662  19.520  0.00  0.00    +0.000 NA
ATOM      2  C   UNL     1       1.458  11.897  19.214  0.00  0.00    +0.000 C 
ATOM      3  C   UNL     1       0.627  12.854  18.330  0.00  0.00    +0.000 C 
ATOM      4  N   UNL     1      -0.554  13.407  19.049  0.00  0.00    +0.000 NA
ATOM      5  C   UNL     1      -1.346  12.247  19.521  0.00  0.00    +0.000 C 
ATOM      6  C   UNL     1      -0.577  11.035  20.137  0.00  0.00    +0.000 C 
ENDROOT
BRANCH   1   7
ATOM      7  C   UNL     1       0.571   9.800  18.332  0.00  0.00    +0.000 C 
BRANCH   7   8
ATOM      8  C   UNL     1       1.886   9.177  17.816  0.00  0.00    +0.000 C 
BRANCH   8   9
ATOM      9  C   UNL     1       2.355   7.965  18.629  0.00  0.00    +0.000 C 
BRANCH   9  10
ATOM     10  N   UNL     1       3.366   7.246  17.856  0.00  0.00    +0.000 N 
ATOM     11  H   UNL     1       3.562   7.656  16.941  0.00  0.00    +0.000 HD
BRANCH  10  17
ATOM     12  C   UNL     1       1.000   2.936  18.632  0.00  0.00    +0.000 C 
ATOM     13  C   UNL     1       2.179   3.701  18.094  0.00  0.00    +0.000 A 
ATOM     14  C   UNL     1       3.265   3.036  17.521  0.00  0.00    +0.000 A 
ATOM     15  C   UNL     1       4.357   3.762  17.047  0.00  0.00    +0.000 A 
ATOM     16  C   UNL     1       4.347   5.154  17.142  0.00  0.00    +0.000 A 
ATOM     17  C   UNL     1       3.261   5.856  17.695  0.00  0.00    +0.000 A 
ATOM     18  C   UNL     1       2.187   5.102  18.180  0.00  0.00    +0.000 A 
BRANCH  16  19
ATOM     19  O   UNL     1       5.409   5.886  16.665  0.00  0.00    +0.000 OA
ATOM     20  H   UNL     1       5.144   6.283  15.820  0.00  0.00    +0.000 HD
ENDBRANCH  16  19
ENDBRANCH  10  17
ENDBRANCH   9  10
ENDBRANCH   8   9
ENDBRANCH   7   8
ENDBRANCH   1   7
BRANCH   4  21
ATOM     21  C   UNL     1      -0.084  14.365  20.093  0.00  0.00    +0.000 C 
BRANCH  21  22
ATOM     22  C   UNL     1      -0.979  14.556  21.318  0.00  0.00    +0.000 A 
ATOM     23  C   UNL     1      -0.446  14.253  22.591  0.00  0.00    +0.000 A 
ATOM     24  C   UNL     1      -1.199  14.421  23.755  0.00  0.00    +0.000 A 
ATOM     25  C   UNL     1      -2.498  14.908  23.662  0.00  0.00    +0.000 A 
ATOM     26 CL   UNL     1      -3.426  15.126  25.094  0.00  0.00    +0.000 Cl
ATOM     27  C   UNL     1      -3.048  15.215  22.418  0.00  0.00    +0.000 A 
ATOM     28  C   UNL     1      -2.296  15.037  21.251  0.00  0.00    +0.000 A 
ENDBRANCH  21  22
BRANCH  21  29
ATOM     29  C   UNL     1       0.314  15.702  19.431  0.00  0.00    +0.000 A 
ATOM     30  C   UNL     1      -0.565  16.387  18.572  0.00  0.00    +0.000 A 
ATOM     31  C   UNL     1      -0.111  17.448  17.784  0.00  0.00    +0.000 A 
ATOM     32  C   UNL     1       1.225  17.838  17.840  0.00  0.00    +0.000 A 
ATOM     33  C   UNL     1       2.104  17.187  18.701  0.00  0.00    +0.000 A 
ATOM     34  C   UNL     1       1.651  16.135  19.501  0.00  0.00    +0.000 A 
ENDBRANCH  21  29
ENDBRANCH   4  21
TORSDOF 9
ENDMDL
MODEL 9
REMARK VINA RESULT:      -7.4      4.512     10.829
REMARK  Name = 
REMARK  10 active torsions:
REMARK  status: ('A' for Active; 'I' for Inactive)
REMARK    1  A    between atoms: C_1  and  C_2
REMARK    2  A    between atoms: C_5  and  O_6
REMARK    3  A    between atoms: C_7  and  N_8
REMARK    4  A    between atoms: N_8  and  C_9
REMARK    5  A    between atoms: C_9  and  C_10
REMARK    6  A    between atoms: C_10  and  C_11
REMARK    7  A    between atoms: C_11  and  N_12
REMARK    8  A    between atoms: N_15  and  C_16
REMARK    9  A    between atoms: C_16  and  C_17
REMARK   10  A    between atoms: C_16  and  C_23
REMARK                            x       y       z     vdW  Elec       q    Type
REMARK                         _______ _______ _______ _____ _____    ______ ____
ROOT
ATOM      1  N   UNL     1       1.084  10.459  19.237  0.00  0.00    +0.000 NA
ATOM      2  C   UNL     1       1.698  11.785  19.390  0.00  0.00    +0.000 C 
ATOM      3  C   UNL     1       0.985  12.850  18.526  0.00  0.00    +0.000 C 
ATOM      4  N   UNL     1      -0.397  13.131  19.000  0.00  0.00    +0.000 NA
ATOM      5  C   UNL     1      -1.118  11.836  19.003  0.00  0.00    +0.000 C 
ATOM      6  C   UNL     1      -0.365  10.580  19.548  0.00  0.00    +0.000 C 
ENDROOT
BRANCH   1   7
ATOM      7  C   UNL     1       1.341   9.880  17.903  0.00  0.00    +0.000 C 
BRANCH   7   8
ATOM      8  C   UNL     1       2.293   8.665  17.903  0.00  0.00    +0.000 C 
BRANCH   8   9
ATOM      9  C   UNL     1       2.123   7.748  19.119  0.00  0.00    +0.000 C 
BRANCH   9  10
ATOM     10  N   UNL     1       3.180   6.738  19.095  0.00  0.00    +0.000 N 
ATOM     11  H   UNL     1       4.077   7.081  18.745  0.00  0.00    +0.000 HD
BRANCH  10  17
ATOM     12  C   UNL     1       0.637   2.467  18.841  0.00  0.00    +0.000 C 
ATOM     13  C   UNL     1       1.765   3.346  18.373  0.00  0.00    +0.000 A 
ATOM     14  C   UNL     1       2.679   2.893  17.418  0.00  0.00    +0.000 A 
ATOM     15  C   UNL     1       3.730   3.716  17.012  0.00  0.00    +0.000 A 
ATOM     16  C   UNL     1       3.850   4.993  17.560  0.00  0.00    +0.000 A 
ATOM     17  C   UNL     1       2.935   5.488  18.508  0.00  0.00    +0.000 A 
ATOM     18  C   UNL     1       1.902   4.634  18.912  0.00  0.00    +0.000 A 
BRANCH  16  19
ATOM     19  O   UNL     1       4.870   5.823  17.159  0.00  0.00    +0.000 OA
ATOM     20  H   UNL     1       5.267   5.444  16.359  0.00  0.00    +0.000 HD
ENDBRANCH  16  19
ENDBRANCH  10  17
ENDBRANCH   9  10
ENDBRANCH   8   9
ENDBRANCH   7   8
ENDBRANCH   1   7
BRANCH   4  21
ATOM     21  C   UNL     1      -0.327  13.861  20.300  0.00  0.00    +0.000 C 
BRANCH  21  22
ATOM     22  C   UNL     1      -1.397  13.532  21.344  0.00  0.00    +0.000 A 
ATOM     23  C   UNL     1      -1.029  12.735  22.452  0.00  0.00    +0.000 A 
ATOM     24  C   UNL     1      -1.948  12.411  23.452  0.00  0.00    +0.000 A 
ATOM     25  C   UNL     1      -3.249  12.891  23.363  0.00  0.00    +0.000 A 
ATOM     26 CL   UNL     1      -4.382  12.501  24.598  0.00  0.00    +0.000 Cl
ATOM     27  C   UNL     1      -3.638  13.678  22.280  0.00  0.00    +0.000 A 
ATOM     28  C   UNL     1      -2.719  13.995  21.273  0.00  0.00    +0.000 A 
ENDBRANCH  21  22
BRANCH  21  29
ATOM     29  C   UNL     1      -0.195  15.376  20.041  0.00  0.00    +0.000 A 
ATOM     30  C   UNL     1       0.122  16.275  21.077  0.00  0.00    +0.000 A 
ATOM     31  C   UNL     1      -0.011  17.653  20.893  0.00  0.00    +0.000 A 
ATOM     32  C   UNL     1      -0.465  18.155  19.675  0.00  0.00    +0.000 A 
ATOM     33  C   UNL     1      -0.761  17.282  18.631  0.00  0.00    +0.000 A 
ATOM     34  C   UNL     1      -0.615  15.905  18.806  0.00  0.00    +0.000 A 
ENDBRANCH  21  29
ENDBRANCH   4  21
TORSDOF 9
ENDMDL
