MODEL 1
REMARK VINA RESULT:      -8.6      0.000      0.000
REMARK  Name = 
REMARK  10 active torsions:
REMARK  status: ('A' for Active; 'I' for Inactive)
REMARK    1  A    between atoms: C_1  and  O_2
REMARK    2  A    between atoms: O_2  and  C_3
REMARK    3  A    between atoms: C_5  and  C_6
REMARK    4  A    between atoms: C_9  and  C_10
REMARK    5  A    between atoms: N_11  and  C_12
REMARK    6  A    between atoms: C_15  and  C_16
REMARK    7  A    between atoms: C_29  and  O_30
REMARK    8  A    between atoms: O_30  and  C_31
REMARK    9  A    between atoms: C_32  and  O_33
REMARK   10  A    between atoms: O_33  and  C_34
REMARK                            x       y       z     vdW  Elec       q    Type
REMARK                         _______ _______ _______ _____ _____    ______ ____
ROOT
ATOM      1  C   UNL     1       3.814   3.525  18.330  0.00  0.00    +0.000 A 
ATOM      2  C   UNL     1       3.685   2.147  18.200  0.00  0.00    +0.000 A 
ATOM      3  C   UNL     1       2.447   1.758  18.733  0.00  0.00    +0.000 A 
ATOM      4  C   UNL     1       1.808   2.891  19.197  0.00  0.00    +0.000 A 
ATOM      5  C   UNL     1       0.517   2.907  19.944  0.00  0.00    +0.000 C 
ATOM      6  N   UNL     1       2.625   3.995  18.938  0.00  0.00    +0.000 N 
ENDROOT
BRANCH   1   9
ATOM      7  C   UNL     1       6.211   5.509  16.147  0.00  0.00    +0.000 A 
ATOM      8  C   UNL     1       5.248   4.567  16.544  0.00  0.00    +0.000 A 
ATOM      9  C   UNL     1       4.976   4.321  17.891  0.00  0.00    +0.000 A 
ATOM     10  C   UNL     1       5.825   4.880  18.844  0.00  0.00    +0.000 A 
ATOM     11  C   UNL     1       6.847   5.769  18.485  0.00  0.00    +0.000 A 
ATOM     12  C   UNL     1       7.023   6.129  17.130  0.00  0.00    +0.000 A 
BRANCH   7  14
ATOM     13  C   UNL     1       6.983   4.938  13.915  0.00  0.00    +0.000 C 
ATOM     14  O   UNL     1       6.398   5.854  14.834  0.00  0.00    +0.000 OA
ENDBRANCH   7  14
BRANCH  11  15
ATOM     15  O   UNL     1       7.535   6.196  19.594  0.00  0.00    +0.000 OA
ATOM     16  C   UNL     1       8.410   5.308  20.270  0.00  0.00    +0.000 C 
ENDBRANCH  11  15
BRANCH  12  17
ATOM     17  O   UNL     1       8.011   7.048  16.888  0.00  0.00    +0.000 OA
ATOM     18  C   UNL     1       7.945   8.355  17.432  0.00  0.00    +0.000 C 
ENDBRANCH  12  17
ENDBRANCH   1   9
BRANCH   6  19
ATOM     19  C   UNL     1       2.305   5.365  19.283  0.00  0.00    +0.000 A 
ATOM     20  C   UNL     1       2.388   6.409  18.351  0.00  0.00    +0.000 A 
ATOM     21  C   UNL     1       1.945   7.704  18.673  0.00  0.00    +0.000 A 
ATOM     22  C   UNL     1       1.482   8.005  19.958  0.00  0.00    +0.000 A 
ATOM     23  C   UNL     1       1.459   6.969  20.901  0.00  0.00    +0.000 A 
ATOM     24  C   UNL     1       1.833   5.666  20.562  0.00  0.00    +0.000 A 
BRANCH  22  25
ATOM     25  C   UNL     1       0.964   9.321  20.364  0.00  0.00    +0.000 A 
ATOM     26  N   UNL     1       0.351   9.520  21.515  0.00  0.00    +0.000 NA
ATOM     27  C   UNL     1      -0.046  10.833  21.635  0.00  0.00    +0.000 A 
ATOM     28  C   UNL     1      -0.751  11.377  22.729  0.00  0.00    +0.000 A 
ATOM     29  C   UNL     1      -1.115  12.724  22.711  0.00  0.00    +0.000 A 
ATOM     30  C   UNL     1      -0.771  13.517  21.626  0.00  0.00    +0.000 A 
ATOM     31  F   UNL     1      -1.131  14.806  21.625  0.00  0.00    +0.000 F 
ATOM     32  C   UNL     1      -0.067  13.014  20.533  0.00  0.00    +0.000 A 
ATOM     33  C   UNL     1       0.282  11.655  20.558  0.00  0.00    +0.000 A 
ATOM     34  S   UNL     1       1.127  10.722  19.381  0.00  0.00    +0.000 S 
ENDBRANCH  22  25
ENDBRANCH   6  19
TORSDOF 6
ENDMDL
MODEL 2
REMARK VINA RESULT:      -8.5      5.506     10.526
REMARK  Name = 
REMARK  10 active torsions:
REMARK  status: ('A' for Active; 'I' for Inactive)
REMARK    1  A    between atoms: C_1  and  O_2
REMARK    2  A    between atoms: O_2  and  C_3
REMARK    3  A    between atoms: C_5  and  C_6
REMARK    4  A    between atoms: C_9  and  C_10
REMARK    5  A    between atoms: N_11  and  C_12
REMARK    6  A    between atoms: C_15  and  C_16
REMARK    7  A    between atoms: C_29  and  O_30
REMARK    8  A    between atoms: O_30  and  C_31
REMARK    9  A    between atoms: C_32  and  O_33
REMARK   10  A    between atoms: O_33  and  C_34
REMARK                            x       y       z     vdW  Elec       q    Type
REMARK                         _______ _______ _______ _____ _____    ______ ____
ROOT
ATOM      1  C   UNL     1      -0.741  13.300  19.345  0.00  0.00    +0.000 A 
ATOM      2  C   UNL     1      -0.568  14.677  19.426  0.00  0.00    +0.000 A 
ATOM      3  C   UNL     1       0.802  14.951  19.566  0.00  0.00    +0.000 A 
ATOM      4  C   UNL     1       1.477  13.747  19.575  0.00  0.00    +0.000 A 
ATOM      5  C   UNL     1       2.939  13.582  19.822  0.00  0.00    +0.000 C 
ATOM      6  N   UNL     1       0.546  12.718  19.418  0.00  0.00    +0.000 N 
ENDROOT
BRANCH   1   9
ATOM      7  C   UNL     1      -4.329  12.190  19.933  0.00  0.00    +0.000 A 
ATOM      8  C   UNL     1      -3.024  12.648  20.179  0.00  0.00    +0.000 A 
ATOM      9  C   UNL     1      -2.036  12.610  19.193  0.00  0.00    +0.000 A 
ATOM     10  C   UNL     1      -2.311  11.916  18.017  0.00  0.00    +0.000 A 
ATOM     11  C   UNL     1      -3.579  11.378  17.761  0.00  0.00    +0.000 A 
ATOM     12  C   UNL     1      -4.620  11.548  18.702  0.00  0.00    +0.000 A 
BRANCH   7  14
ATOM     13  C   UNL     1      -5.806  13.631  21.216  0.00  0.00    +0.000 C 
ATOM     14  O   UNL     1      -5.340  12.338  20.845  0.00  0.00    +0.000 OA
ENDBRANCH   7  14
BRANCH  11  15
ATOM     15  O   UNL     1      -3.609  10.757  16.536  0.00  0.00    +0.000 OA
ATOM     16  C   UNL     1      -2.540   9.912  16.145  0.00  0.00    +0.000 C 
ENDBRANCH  11  15
BRANCH  12  17
ATOM     17  O   UNL     1      -5.836  11.036  18.335  0.00  0.00    +0.000 OA
ATOM     18  C   UNL     1      -6.861  11.874  17.827  0.00  0.00    +0.000 C 
ENDBRANCH  12  17
ENDBRANCH   1   9
BRANCH   6  19
ATOM     19  C   UNL     1       0.866  11.305  19.383  0.00  0.00    +0.000 A 
ATOM     20  C   UNL     1       1.372  10.681  18.233  0.00  0.00    +0.000 A 
ATOM     21  C   UNL     1       1.799   9.343  18.264  0.00  0.00    +0.000 A 
ATOM     22  C   UNL     1       1.658   8.571  19.423  0.00  0.00    +0.000 A 
ATOM     23  C   UNL     1       1.097   9.186  20.550  0.00  0.00    +0.000 A 
ATOM     24  C   UNL     1       0.736  10.536  20.541  0.00  0.00    +0.000 A 
BRANCH  22  25
ATOM     25  C   UNL     1       2.116   7.178  19.551  0.00  0.00    +0.000 A 
ATOM     26  N   UNL     1       1.699   6.378  20.512  0.00  0.00    +0.000 NA
ATOM     27  C   UNL     1       2.295   5.141  20.408  0.00  0.00    +0.000 A 
ATOM     28  C   UNL     1       2.092   4.059  21.292  0.00  0.00    +0.000 A 
ATOM     29  C   UNL     1       2.781   2.864  21.084  0.00  0.00    +0.000 A 
ATOM     30  C   UNL     1       3.649   2.745  20.009  0.00  0.00    +0.000 A 
ATOM     31  F   UNL     1       4.304   1.593  19.827  0.00  0.00    +0.000 F 
ATOM     32  C   UNL     1       3.866   3.791  19.112  0.00  0.00    +0.000 A 
ATOM     33  C   UNL     1       3.176   4.991  19.339  0.00  0.00    +0.000 A 
ATOM     34  S   UNL     1       3.224   6.465  18.446  0.00  0.00    +0.000 S 
ENDBRANCH  22  25
ENDBRANCH   6  19
TORSDOF 6
ENDMDL
MODEL 3
REMARK VINA RESULT:      -8.4      1.099      1.775
REMARK  Name = 
REMARK  10 active torsions:
REMARK  status: ('A' for Active; 'I' for Inactive)
REMARK    1  A    between atoms: C_1  and  O_2
REMARK    2  A    between atoms: O_2  and  C_3
REMARK    3  A    between atoms: C_5  and  C_6
REMARK    4  A    between atoms: C_9  and  C_10
REMARK    5  A    between atoms: N_11  and  C_12
REMARK    6  A    between atoms: C_15  and  C_16
REMARK    7  A    between atoms: C_29  and  O_30
REMARK    8  A    between atoms: O_30  and  C_31
REMARK    9  A    between atoms: C_32  and  O_33
REMARK   10  A    between atoms: O_33  and  C_34
REMARK                            x       y       z     vdW  Elec       q    Type
REMARK                         _______ _______ _______ _____ _____    ______ ____
ROOT
ATOM      1  C   UNL     1       3.764   3.466  18.360  0.00  0.00    +0.000 A 
ATOM      2  C   UNL     1       3.674   2.080  18.301  0.00  0.00    +0.000 A 
ATOM      3  C   UNL     1       2.409   1.690  18.765  0.00  0.00    +0.000 A 
ATOM      4  C   UNL     1       1.714   2.832  19.115  0.00  0.00    +0.000 A 
ATOM      5  C   UNL     1       0.372   2.857  19.766  0.00  0.00    +0.000 C 
ATOM      6  N   UNL     1       2.524   3.939  18.853  0.00  0.00    +0.000 N 
ENDROOT
BRANCH   1   9
ATOM      7  C   UNL     1       6.216   5.476  16.263  0.00  0.00    +0.000 A 
ATOM      8  C   UNL     1       5.242   4.531  16.624  0.00  0.00    +0.000 A 
ATOM      9  C   UNL     1       4.938   4.265  17.960  0.00  0.00    +0.000 A 
ATOM     10  C   UNL     1       5.766   4.808  18.941  0.00  0.00    +0.000 A 
ATOM     11  C   UNL     1       6.798   5.699  18.619  0.00  0.00    +0.000 A 
ATOM     12  C   UNL     1       7.007   6.079  17.274  0.00  0.00    +0.000 A 
BRANCH   7  14
ATOM     13  C   UNL     1       6.961   4.909  14.021  0.00  0.00    +0.000 C 
ATOM     14  O   UNL     1       6.435   5.839  14.961  0.00  0.00    +0.000 OA
ENDBRANCH   7  14
BRANCH  11  15
ATOM     15  O   UNL     1       7.462   6.108  19.751  0.00  0.00    +0.000 OA
ATOM     16  C   UNL     1       8.496   5.304  20.294  0.00  0.00    +0.000 C 
ENDBRANCH  11  15
BRANCH  12  17
ATOM     17  O   UNL     1       8.002   6.998  17.069  0.00  0.00    +0.000 OA
ATOM     18  C   UNL     1       7.864   8.338  17.511  0.00  0.00    +0.000 C 
ENDBRANCH  12  17
ENDBRANCH   1   9
BRANCH   6  19
ATOM     19  C   UNL     1       2.150   5.318  19.093  0.00  0.00    +0.000 A 
ATOM     20  C   UNL     1       1.843   5.797  20.375  0.00  0.00    +0.000 A 
ATOM     21  C   UNL     1       1.613   7.165  20.601  0.00  0.00    +0.000 A 
ATOM     22  C   UNL     1       1.608   8.076  19.539  0.00  0.00    +0.000 A 
ATOM     23  C   UNL     1       1.857   7.580  18.253  0.00  0.00    +0.000 A 
ATOM     24  C   UNL     1       2.155   6.231  18.037  0.00  0.00    +0.000 A 
BRANCH  22  25
ATOM     25  C   UNL     1       1.418   9.527  19.695  0.00  0.00    +0.000 A 
ATOM     26  N   UNL     1       1.679  10.387  18.730  0.00  0.00    +0.000 NA
ATOM     27  C   UNL     1       1.430  11.676  19.145  0.00  0.00    +0.000 A 
ATOM     28  C   UNL     1       1.631  12.837  18.370  0.00  0.00    +0.000 A 
ATOM     29  C   UNL     1       1.360  14.089  18.924  0.00  0.00    +0.000 A 
ATOM     30  C   UNL     1       0.887  14.180  20.225  0.00  0.00    +0.000 A 
ATOM     31  F   UNL     1       0.637  15.389  20.741  0.00  0.00    +0.000 F 
ATOM     32  C   UNL     1       0.670  13.052  21.015  0.00  0.00    +0.000 A 
ATOM     33  C   UNL     1       0.958  11.801  20.451  0.00  0.00    +0.000 A 
ATOM     34  S   UNL     1       0.819  10.230  21.146  0.00  0.00    +0.000 S 
ENDBRANCH  22  25
ENDBRANCH   6  19
TORSDOF 6
ENDMDL
MODEL 4
REMARK VINA RESULT:      -8.4      0.735      1.117
REMARK  Name = 
REMARK  10 active torsions:
REMARK  status: ('A' for Active; 'I' for Inactive)
REMARK    1  A    between atoms: C_1  and  O_2
REMARK    2  A    between atoms: O_2  and  C_3
REMARK    3  A    between atoms: C_5  and  C_6
REMARK    4  A    between atoms: C_9  and  C_10
REMARK    5  A    between atoms: N_11  and  C_12
REMARK    6  A    between atoms: C_15  and  C_16
REMARK    7  A    between atoms: C_29  and  O_30
REMARK    8  A    between atoms: O_30  and  C_31
REMARK    9  A    between atoms: C_32  and  O_33
REMARK   10  A    between atoms: O_33  and  C_34
REMARK                            x       y       z     vdW  Elec       q    Type
REMARK                         _______ _______ _______ _____ _____    ______ ____
ROOT
ATOM      1  C   UNL     1       3.802   3.468  18.351  0.00  0.00    +0.000 A 
ATOM      2  C   UNL     1       3.652   2.100  18.154  0.00  0.00    +0.000 A 
ATOM      3  C   UNL     1       2.374   1.719  18.591  0.00  0.00    +0.000 A 
ATOM      4  C   UNL     1       1.732   2.847  19.061  0.00  0.00    +0.000 A 
ATOM      5  C   UNL     1       0.396   2.863  19.725  0.00  0.00    +0.000 C 
ATOM      6  N   UNL     1       2.587   3.941  18.902  0.00  0.00    +0.000 N 
ENDROOT
BRANCH   1   9
ATOM      7  C   UNL     1       6.373   5.487  16.411  0.00  0.00    +0.000 A 
ATOM      8  C   UNL     1       5.367   4.553  16.705  0.00  0.00    +0.000 A 
ATOM      9  C   UNL     1       5.007   4.253  18.020  0.00  0.00    +0.000 A 
ATOM     10  C   UNL     1       5.807   4.748  19.048  0.00  0.00    +0.000 A 
ATOM     11  C   UNL     1       6.869   5.626  18.793  0.00  0.00    +0.000 A 
ATOM     12  C   UNL     1       7.137   6.042  17.469  0.00  0.00    +0.000 A 
BRANCH   7  14
ATOM     13  C   UNL     1       7.104   4.951  14.157  0.00  0.00    +0.000 C 
ATOM     14  O   UNL     1       6.649   5.885  15.130  0.00  0.00    +0.000 OA
ENDBRANCH   7  14
BRANCH  11  15
ATOM     15  O   UNL     1       7.497   5.986  19.961  0.00  0.00    +0.000 OA
ATOM     16  C   UNL     1       8.630   5.260  20.408  0.00  0.00    +0.000 C 
ENDBRANCH  11  15
BRANCH  12  17
ATOM     17  O   UNL     1       8.157   6.946  17.330  0.00  0.00    +0.000 OA
ATOM     18  C   UNL     1       7.949   8.328  17.562  0.00  0.00    +0.000 C 
ENDBRANCH  12  17
ENDBRANCH   1   9
BRANCH   6  19
ATOM     19  C   UNL     1       2.274   5.303  19.284  0.00  0.00    +0.000 A 
ATOM     20  C   UNL     1       2.457   6.385  18.411  0.00  0.00    +0.000 A 
ATOM     21  C   UNL     1       2.022   7.676  18.757  0.00  0.00    +0.000 A 
ATOM     22  C   UNL     1       1.467   7.933  20.015  0.00  0.00    +0.000 A 
ATOM     23  C   UNL     1       1.343   6.857  20.904  0.00  0.00    +0.000 A 
ATOM     24  C   UNL     1       1.711   5.560  20.535  0.00  0.00    +0.000 A 
BRANCH  22  25
ATOM     25  C   UNL     1       0.950   9.243  20.440  0.00  0.00    +0.000 A 
ATOM     26  N   UNL     1       0.986  10.308  19.663  0.00  0.00    +0.000 NA
ATOM     27  C   UNL     1       0.455  11.401  20.310  0.00  0.00    +0.000 A 
ATOM     28  C   UNL     1       0.365  12.704  19.775  0.00  0.00    +0.000 A 
ATOM     29  C   UNL     1      -0.175  13.730  20.551  0.00  0.00    +0.000 A 
ATOM     30  C   UNL     1      -0.627  13.460  21.833  0.00  0.00    +0.000 A 
ATOM     31  F   UNL     1      -1.139  14.457  22.565  0.00  0.00    +0.000 F 
ATOM     32  C   UNL     1      -0.561  12.183  22.390  0.00  0.00    +0.000 A 
ATOM     33  C   UNL     1      -0.005  11.163  21.604  0.00  0.00    +0.000 A 
ATOM     34  S   UNL     1       0.237   9.499  21.984  0.00  0.00    +0.000 S 
ENDBRANCH  22  25
ENDBRANCH   6  19
TORSDOF 6
ENDMDL
MODEL 5
REMARK VINA RESULT:      -8.3      0.924      1.386
REMARK  Name = 
REMARK  10 active torsions:
REMARK  status: ('A' for Active; 'I' for Inactive)
REMARK    1  A    between atoms: C_1  and  O_2
REMARK    2  A    between atoms: O_2  and  C_3
REMARK    3  A    between atoms: C_5  and  C_6
REMARK    4  A    between atoms: C_9  and  C_10
REMARK    5  A    between atoms: N_11  and  C_12
REMARK    6  A    between atoms: C_15  and  C_16
REMARK    7  A    between atoms: C_29  and  O_30
REMARK    8  A    between atoms: O_30  and  C_31
REMARK    9  A    between atoms: C_32  and  O_33
REMARK   10  A    between atoms: O_33  and  C_34
REMARK                            x       y       z     vdW  Elec       q    Type
REMARK                         _______ _______ _______ _____ _____    ______ ____
ROOT
ATOM      1  C   UNL     1       3.859   3.501  18.522  0.00  0.00    +0.000 A 
ATOM      2  C   UNL     1       3.797   2.112  18.565  0.00  0.00    +0.000 A 
ATOM      3  C   UNL     1       2.553   1.733  19.092  0.00  0.00    +0.000 A 
ATOM      4  C   UNL     1       1.845   2.883  19.379  0.00  0.00    +0.000 A 
ATOM      5  C   UNL     1       0.520   2.929  20.065  0.00  0.00    +0.000 C 
ATOM      6  N   UNL     1       2.624   3.984  19.015  0.00  0.00    +0.000 N 
ENDROOT
BRANCH   1   9
ATOM      7  C   UNL     1       6.177   5.457  16.231  0.00  0.00    +0.000 A 
ATOM      8  C   UNL     1       5.230   4.519  16.674  0.00  0.00    +0.000 A 
ATOM      9  C   UNL     1       5.005   4.291  18.032  0.00  0.00    +0.000 A 
ATOM     10  C   UNL     1       5.886   4.862  18.948  0.00  0.00    +0.000 A 
ATOM     11  C   UNL     1       6.894   5.747  18.542  0.00  0.00    +0.000 A 
ATOM     12  C   UNL     1       7.023   6.090  17.177  0.00  0.00    +0.000 A 
BRANCH   7  14
ATOM     13  C   UNL     1       6.802   4.832  13.968  0.00  0.00    +0.000 C 
ATOM     14  O   UNL     1       6.318   5.784  14.909  0.00  0.00    +0.000 OA
ENDBRANCH   7  14
BRANCH  11  15
ATOM     15  O   UNL     1       7.620   6.189  19.621  0.00  0.00    +0.000 OA
ATOM     16  C   UNL     1       8.504   5.304  20.290  0.00  0.00    +0.000 C 
ENDBRANCH  11  15
BRANCH  12  17
ATOM     17  O   UNL     1       8.001   7.005  16.889  0.00  0.00    +0.000 OA
ATOM     18  C   UNL     1       7.943   8.325  17.403  0.00  0.00    +0.000 C 
ENDBRANCH  12  17
ENDBRANCH   1   9
BRANCH   6  19
ATOM     19  C   UNL     1       2.228   5.369  19.167  0.00  0.00    +0.000 A 
ATOM     20  C   UNL     1       1.902   5.921  20.414  0.00  0.00    +0.000 A 
ATOM     21  C   UNL     1       1.651   7.297  20.554  0.00  0.00    +0.000 A 
ATOM     22  C   UNL     1       1.641   8.141  19.439  0.00  0.00    +0.000 A 
ATOM     23  C   UNL     1       1.908   7.570  18.187  0.00  0.00    +0.000 A 
ATOM     24  C   UNL     1       2.227   6.216  18.057  0.00  0.00    +0.000 A 
BRANCH  22  25
ATOM     25  C   UNL     1       1.428   9.596  19.503  0.00  0.00    +0.000 A 
ATOM     26  N   UNL     1       0.917  10.193  20.562  0.00  0.00    +0.000 NA
ATOM     27  C   UNL     1       0.811  11.550  20.352  0.00  0.00    +0.000 A 
ATOM     28  C   UNL     1       0.280  12.481  21.270  0.00  0.00    +0.000 A 
ATOM     29  C   UNL     1       0.209  13.829  20.918  0.00  0.00    +0.000 A 
ATOM     30  C   UNL     1       0.669  14.244  19.678  0.00  0.00    +0.000 A 
ATOM     31  F   UNL     1       0.590  15.540  19.356  0.00  0.00    +0.000 F 
ATOM     32  C   UNL     1       1.207  13.352  18.750  0.00  0.00    +0.000 A 
ATOM     33  C   UNL     1       1.262  11.998  19.111  0.00  0.00    +0.000 A 
ATOM     34  S   UNL     1       1.844  10.649  18.210  0.00  0.00    +0.000 S 
ENDBRANCH  22  25
ENDBRANCH   6  19
TORSDOF 6
ENDMDL
MODEL 6
REMARK VINA RESULT:      -8.1      5.398     10.293
REMARK  Name = 
REMARK  10 active torsions:
REMARK  status: ('A' for Active; 'I' for Inactive)
REMARK    1  A    between atoms: C_1  and  O_2
REMARK    2  A    between atoms: O_2  and  C_3
REMARK    3  A    between atoms: C_5  and  C_6
REMARK    4  A    between atoms: C_9  and  C_10
REMARK    5  A    between atoms: N_11  and  C_12
REMARK    6  A    between atoms: C_15  and  C_16
REMARK    7  A    between atoms: C_29  and  O_30
REMARK    8  A    between atoms: O_30  and  C_31
REMARK    9  A    between atoms: C_32  and  O_33
REMARK   10  A    between atoms: O_33  and  C_34
REMARK                            x       y       z     vdW  Elec       q    Type
REMARK                         _______ _______ _______ _____ _____    ______ ____
ROOT
ATOM      1  C   UNL     1      -0.653  13.434  19.685  0.00  0.00    +0.000 A 
ATOM      2  C   UNL     1      -0.463  14.786  19.943  0.00  0.00    +0.000 A 
ATOM      3  C   UNL     1       0.873  14.990  20.320  0.00  0.00    +0.000 A 
ATOM      4  C   UNL     1       1.512  13.766  20.299  0.00  0.00    +0.000 A 
ATOM      5  C   UNL     1       2.913  13.519  20.748  0.00  0.00    +0.000 C 
ATOM      6  N   UNL     1       0.594  12.796  19.889  0.00  0.00    +0.000 N 
ENDROOT
BRANCH   1   9
ATOM      7  C   UNL     1      -3.164  11.227  17.877  0.00  0.00    +0.000 A 
ATOM      8  C   UNL     1      -2.017  11.993  18.136  0.00  0.00    +0.000 A 
ATOM      9  C   UNL     1      -1.923  12.814  19.262  0.00  0.00    +0.000 A 
ATOM     10  C   UNL     1      -3.073  13.020  20.020  0.00  0.00    +0.000 A 
ATOM     11  C   UNL     1      -4.263  12.331  19.750  0.00  0.00    +0.000 A 
ATOM     12  C   UNL     1      -4.309  11.389  18.698  0.00  0.00    +0.000 A 
BRANCH   7  14
ATOM     13  C   UNL     1      -3.186  10.753  15.494  0.00  0.00    +0.000 C 
ATOM     14  O   UNL     1      -3.222  10.322  16.850  0.00  0.00    +0.000 OA
ENDBRANCH   7  14
BRANCH  11  15
ATOM     15  O   UNL     1      -5.248  12.689  20.639  0.00  0.00    +0.000 OA
ATOM     16  C   UNL     1      -4.987  12.662  22.032  0.00  0.00    +0.000 C 
ENDBRANCH  11  15
BRANCH  12  17
ATOM     17  O   UNL     1      -5.499  10.726  18.551  0.00  0.00    +0.000 OA
ATOM     18  C   UNL     1      -6.639  11.375  18.015  0.00  0.00    +0.000 C 
ENDBRANCH  12  17
ENDBRANCH   1   9
BRANCH   6  19
ATOM     19  C   UNL     1       0.884  11.383  19.748  0.00  0.00    +0.000 A 
ATOM     20  C   UNL     1       1.409  10.842  18.566  0.00  0.00    +0.000 A 
ATOM     21  C   UNL     1       1.805   9.496  18.500  0.00  0.00    +0.000 A 
ATOM     22  C   UNL     1       1.614   8.637  19.588  0.00  0.00    +0.000 A 
ATOM     23  C   UNL     1       1.034   9.172  20.745  0.00  0.00    +0.000 A 
ATOM     24  C   UNL     1       0.704  10.527  20.836  0.00  0.00    +0.000 A 
BRANCH  22  25
ATOM     25  C   UNL     1       2.038   7.228  19.615  0.00  0.00    +0.000 A 
ATOM     26  N   UNL     1       1.716   6.407  20.595  0.00  0.00    +0.000 NA
ATOM     27  C   UNL     1       2.252   5.157  20.380  0.00  0.00    +0.000 A 
ATOM     28  C   UNL     1       2.124   4.052  21.248  0.00  0.00    +0.000 A 
ATOM     29  C   UNL     1       2.742   2.845  20.919  0.00  0.00    +0.000 A 
ATOM     30  C   UNL     1       3.466   2.739  19.741  0.00  0.00    +0.000 A 
ATOM     31  F   UNL     1       4.055   1.574  19.444  0.00  0.00    +0.000 F 
ATOM     32  C   UNL     1       3.606   3.808  18.857  0.00  0.00    +0.000 A 
ATOM     33  C   UNL     1       2.990   5.019  19.205  0.00  0.00    +0.000 A 
ATOM     34  S   UNL     1       2.976   6.521  18.359  0.00  0.00    +0.000 S 
ENDBRANCH  22  25
ENDBRANCH   6  19
TORSDOF 6
ENDMDL
MODEL 7
REMARK VINA RESULT:      -8.1      5.498     10.657
REMARK  Name = 
REMARK  10 active torsions:
REMARK  status: ('A' for Active; 'I' for Inactive)
REMARK    1  A    between atoms: C_1  and  O_2
REMARK    2  A    between atoms: O_2  and  C_3
REMARK    3  A    between atoms: C_5  and  C_6
REMARK    4  A    between atoms: C_9  and  C_10
REMARK    5  A    between atoms: N_11  and  C_12
REMARK    6  A    between atoms: C_15  and  C_16
REMARK    7  A    between atoms: C_29  and  O_30
REMARK    8  A    between atoms: O_30  and  C_31
REMARK    9  A    between atoms: C_32  and  O_33
REMARK   10  A    between atoms: O_33  and  C_34
REMARK                            x       y       z     vdW  Elec       q    Type
REMARK                         _______ _______ _______ _____ _____    ______ ____
ROOT
ATOM      1  C   UNL     1      -0.906  13.278  19.629  0.00  0.00    +0.000 A 
ATOM      2  C   UNL     1      -0.787  14.635  19.907  0.00  0.00    +0.000 A 
ATOM      3  C   UNL     1       0.568  14.935  20.116  0.00  0.00    +0.000 A 
ATOM      4  C   UNL     1       1.289  13.766  19.973  0.00  0.00    +0.000 A 
ATOM      5  C   UNL     1       2.751  13.620  20.230  0.00  0.00    +0.000 C 
ATOM      6  N   UNL     1       0.401  12.737  19.650  0.00  0.00    +0.000 N 
ENDROOT
BRANCH   1   9
ATOM      7  C   UNL     1      -4.571  12.275  19.704  0.00  0.00    +0.000 A 
ATOM      8  C   UNL     1      -3.322  12.769  20.113  0.00  0.00    +0.000 A 
ATOM      9  C   UNL     1      -2.170  12.570  19.351  0.00  0.00    +0.000 A 
ATOM     10  C   UNL     1      -2.242  11.692  18.272  0.00  0.00    +0.000 A 
ATOM     11  C   UNL     1      -3.456  11.117  17.874  0.00  0.00    +0.000 A 
ATOM     12  C   UNL     1      -4.648  11.439  18.562  0.00  0.00    +0.000 A 
BRANCH   7  14
ATOM     13  C   UNL     1      -6.241  13.899  20.398  0.00  0.00    +0.000 C 
ATOM     14  O   UNL     1      -5.729  12.571  20.374  0.00  0.00    +0.000 OA
ENDBRANCH   7  14
BRANCH  11  15
ATOM     15  O   UNL     1      -3.276  10.303  16.781  0.00  0.00    +0.000 OA
ATOM     16  C   UNL     1      -2.771  10.842  15.572  0.00  0.00    +0.000 C 
ENDBRANCH  11  15
BRANCH  12  17
ATOM     17  O   UNL     1      -5.790  10.872  18.060  0.00  0.00    +0.000 OA
ATOM     18  C   UNL     1      -6.611  10.042  18.864  0.00  0.00    +0.000 C 
ENDBRANCH  12  17
ENDBRANCH   1   9
BRANCH   6  19
ATOM     19  C   UNL     1       0.777  11.356  19.425  0.00  0.00    +0.000 A 
ATOM     20  C   UNL     1       1.336  10.920  18.215  0.00  0.00    +0.000 A 
ATOM     21  C   UNL     1       1.813   9.607  18.069  0.00  0.00    +0.000 A 
ATOM     22  C   UNL     1       1.671   8.673  19.102  0.00  0.00    +0.000 A 
ATOM     23  C   UNL     1       1.057   9.101  20.286  0.00  0.00    +0.000 A 
ATOM     24  C   UNL     1       0.646  10.425  20.458  0.00  0.00    +0.000 A 
BRANCH  22  25
ATOM     25  C   UNL     1       2.179   7.293  19.045  0.00  0.00    +0.000 A 
ATOM     26  N   UNL     1       2.857   6.826  18.015  0.00  0.00    +0.000 NA
ATOM     27  C   UNL     1       3.197   5.507  18.213  0.00  0.00    +0.000 A 
ATOM     28  C   UNL     1       3.899   4.697  17.296  0.00  0.00    +0.000 A 
ATOM     29  C   UNL     1       4.158   3.363  17.614  0.00  0.00    +0.000 A 
ATOM     30  C   UNL     1       3.733   2.849  18.830  0.00  0.00    +0.000 A 
ATOM     31  F   UNL     1       3.987   1.567  19.116  0.00  0.00    +0.000 F 
ATOM     32  C   UNL     1       3.044   3.623  19.762  0.00  0.00    +0.000 A 
ATOM     33  C   UNL     1       2.780   4.959  19.425  0.00  0.00    +0.000 A 
ATOM     34  S   UNL     1       1.951   6.171  20.327  0.00  0.00    +0.000 S 
ENDBRANCH  22  25
ENDBRANCH   6  19
TORSDOF 6
ENDMDL
MODEL 8
REMARK VINA RESULT:      -8.1      1.509      2.975
REMARK  Name = 
REMARK  10 active torsions:
REMARK  status: ('A' for Active; 'I' for Inactive)
REMARK    1  A    between atoms: C_1  and  O_2
REMARK    2  A    between atoms: O_2  and  C_3
REMARK    3  A    between atoms: C_5  and  C_6
REMARK    4  A    between atoms: C_9  and  C_10
REMARK    5  A    between atoms: N_11  and  C_12
REMARK    6  A    between atoms: C_15  and  C_16
REMARK    7  A    between atoms: C_29  and  O_30
REMARK    8  A    between atoms: O_30  and  C_31
REMARK    9  A    between atoms: C_32  and  O_33
REMARK   10  A    between atoms: O_33  and  C_34
REMARK                            x       y       z     vdW  Elec       q    Type
REMARK                         _______ _______ _______ _____ _____    ______ ____
ROOT
ATOM      1  C   UNL     1       3.816   3.518  17.824  0.00  0.00    +0.000 A 
ATOM      2  C   UNL     1       3.658   2.148  18.003  0.00  0.00    +0.000 A 
ATOM      3  C   UNL     1       2.564   1.929  18.854  0.00  0.00    +0.000 A 
ATOM      4  C   UNL     1       2.046   3.159  19.206  0.00  0.00    +0.000 A 
ATOM      5  C   UNL     1       0.948   3.380  20.192  0.00  0.00    +0.000 C 
ATOM      6  N   UNL     1       2.790   4.151  18.564  0.00  0.00    +0.000 N 
ENDROOT
BRANCH   1   9
ATOM      7  C   UNL     1       6.819   5.601  16.778  0.00  0.00    +0.000 A 
ATOM      8  C   UNL     1       5.688   5.166  17.489  0.00  0.00    +0.000 A 
ATOM      9  C   UNL     1       4.857   4.157  16.997  0.00  0.00    +0.000 A 
ATOM     10  C   UNL     1       5.052   3.729  15.686  0.00  0.00    +0.000 A 
ATOM     11  C   UNL     1       6.126   4.194  14.914  0.00  0.00    +0.000 A 
ATOM     12  C   UNL     1       7.051   5.106  15.470  0.00  0.00    +0.000 A 
BRANCH   7  14
ATOM     13  C   UNL     1       7.387   7.877  17.411  0.00  0.00    +0.000 C 
ATOM     14  O   UNL     1       7.713   6.496  17.304  0.00  0.00    +0.000 OA
ENDBRANCH   7  14
BRANCH  11  15
ATOM     15  O   UNL     1       6.116   3.618  13.667  0.00  0.00    +0.000 OA
ATOM     16  C   UNL     1       4.932   3.640  12.886  0.00  0.00    +0.000 C 
ENDBRANCH  11  15
BRANCH  12  17
ATOM     17  O   UNL     1       8.096   5.454  14.656  0.00  0.00    +0.000 OA
ATOM     18  C   UNL     1       7.935   5.537  13.251  0.00  0.00    +0.000 C 
ENDBRANCH  12  17
ENDBRANCH   1   9
BRANCH   6  19
ATOM     19  C   UNL     1       2.556   5.576  18.687  0.00  0.00    +0.000 A 
ATOM     20  C   UNL     1       2.430   6.412  17.568  0.00  0.00    +0.000 A 
ATOM     21  C   UNL     1       2.072   7.764  17.711  0.00  0.00    +0.000 A 
ATOM     22  C   UNL     1       1.909   8.332  18.979  0.00  0.00    +0.000 A 
ATOM     23  C   UNL     1       2.096   7.504  20.093  0.00  0.00    +0.000 A 
ATOM     24  C   UNL     1       2.383   6.144  19.951  0.00  0.00    +0.000 A 
BRANCH  22  25
ATOM     25  C   UNL     1       1.495   9.725  19.215  0.00  0.00    +0.000 A 
ATOM     26  N   UNL     1       1.858  10.718  18.427  0.00  0.00    +0.000 NA
ATOM     27  C   UNL     1       1.349  11.913  18.883  0.00  0.00    +0.000 A 
ATOM     28  C   UNL     1       1.569  13.175  18.290  0.00  0.00    +0.000 A 
ATOM     29  C   UNL     1       1.012  14.314  18.872  0.00  0.00    +0.000 A 
ATOM     30  C   UNL     1       0.240  14.196  20.018  0.00  0.00    +0.000 A 
ATOM     31  F   UNL     1      -0.283  15.300  20.565  0.00  0.00    +0.000 F 
ATOM     32  C   UNL     1      -0.003  12.964  20.625  0.00  0.00    +0.000 A 
ATOM     33  C   UNL     1       0.572  11.829  20.037  0.00  0.00    +0.000 A 
ATOM     34  S   UNL     1       0.486  10.179  20.530  0.00  0.00    +0.000 S 
ENDBRANCH  22  25
ENDBRANCH   6  19
TORSDOF 6
ENDMDL
MODEL 9
REMARK VINA RESULT:      -8.0      5.435     10.609
REMARK  Name = 
REMARK  10 active torsions:
REMARK  status: ('A' for Active; 'I' for Inactive)
REMARK    1  A    between atoms: C_1  and  O_2
REMARK    2  A    between atoms: O_2  and  C_3
REMARK    3  A    between atoms: C_5  and  C_6
REMARK    4  A    between atoms: C_9  and  C_10
REMARK    5  A    between atoms: N_11  and  C_12
REMARK    6  A    between atoms: C_15  and  C_16
REMARK    7  A    between atoms: C_29  and  O_30
REMARK    8  A    between atoms: O_30  and  C_31
REMARK    9  A    between atoms: C_32  and  O_33
REMARK   10  A    between atoms: O_33  and  C_34
REMARK                            x       y       z     vdW  Elec       q    Type
REMARK                         _______ _______ _______ _____ _____    ______ ____
ROOT
ATOM      1  C   UNL     1      -0.465  13.389  19.092  0.00  0.00    +0.000 A 
ATOM      2  C   UNL     1      -0.343  14.774  19.058  0.00  0.00    +0.000 A 
ATOM      3  C   UNL     1       1.018  15.108  19.138  0.00  0.00    +0.000 A 
ATOM      4  C   UNL     1       1.740  13.934  19.227  0.00  0.00    +0.000 A 
ATOM      5  C   UNL     1       3.213  13.844  19.448  0.00  0.00    +0.000 C 
ATOM      6  N   UNL     1       0.846  12.862  19.178  0.00  0.00    +0.000 N 
ENDROOT
BRANCH   1   9
ATOM      7  C   UNL     1      -4.021  12.254  19.806  0.00  0.00    +0.000 A 
ATOM      8  C   UNL     1      -2.735  12.786  19.994  0.00  0.00    +0.000 A 
ATOM      9  C   UNL     1      -1.735  12.641  19.031  0.00  0.00    +0.000 A 
ATOM     10  C   UNL     1      -1.973  11.779  17.963  0.00  0.00    +0.000 A 
ATOM     11  C   UNL     1      -3.220  11.168  17.777  0.00  0.00    +0.000 A 
ATOM     12  C   UNL     1      -4.277  11.435  18.677  0.00  0.00    +0.000 A 
BRANCH   7  14
ATOM     13  C   UNL     1      -5.573  13.810  20.844  0.00  0.00    +0.000 C 
ATOM     14  O   UNL     1      -5.047  12.497  20.680  0.00  0.00    +0.000 OA
ENDBRANCH   7  14
BRANCH  11  15
ATOM     15  O   UNL     1      -3.215  10.379  16.652  0.00  0.00    +0.000 OA
ATOM     16  C   UNL     1      -3.571  10.934  15.397  0.00  0.00    +0.000 C 
ENDBRANCH  11  15
BRANCH  12  17
ATOM     17  O   UNL     1      -5.472  10.836  18.377  0.00  0.00    +0.000 OA
ATOM     18  C   UNL     1      -6.531  11.569  17.786  0.00  0.00    +0.000 C 
ENDBRANCH  12  17
ENDBRANCH   1   9
BRANCH   6  19
ATOM     19  C   UNL     1       1.220  11.464  19.248  0.00  0.00    +0.000 A 
ATOM     20  C   UNL     1       0.946  10.673  20.373  0.00  0.00    +0.000 A 
ATOM     21  C   UNL     1       1.199   9.290  20.364  0.00  0.00    +0.000 A 
ATOM     22  C   UNL     1       1.805   8.679  19.261  0.00  0.00    +0.000 A 
ATOM     23  C   UNL     1       2.130   9.488  18.165  0.00  0.00    +0.000 A 
ATOM     24  C   UNL     1       1.815  10.849  18.145  0.00  0.00    +0.000 A 
BRANCH  22  25
ATOM     25  C   UNL     1       2.066   7.234  19.156  0.00  0.00    +0.000 A 
ATOM     26  N   UNL     1       2.624   6.688  18.093  0.00  0.00    +0.000 NA
ATOM     27  C   UNL     1       2.737   5.325  18.248  0.00  0.00    +0.000 A 
ATOM     28  C   UNL     1       3.263   4.433  17.290  0.00  0.00    +0.000 A 
ATOM     29  C   UNL     1       3.297   3.066  17.567  0.00  0.00    +0.000 A 
ATOM     30  C   UNL     1       2.825   2.598  18.784  0.00  0.00    +0.000 A 
ATOM     31  F   UNL     1       2.862   1.283  19.032  0.00  0.00    +0.000 F 
ATOM     32  C   UNL     1       2.306   3.451  19.757  0.00  0.00    +0.000 A 
ATOM     33  C   UNL     1       2.267   4.822  19.461  0.00  0.00    +0.000 A 
ATOM     34  S   UNL     1       1.684   6.131  20.418  0.00  0.00    +0.000 S 
ENDBRANCH  22  25
ENDBRANCH   6  19
TORSDOF 6
ENDMDL
