MODEL 1
REMARK VINA RESULT:      -6.9      0.000      0.000
REMARK  Name = 
REMARK  7 active torsions:
REMARK  status: ('A' for Active; 'I' for Inactive)
REMARK    1  A    between atoms: C_1  and  N_2
REMARK    2  A    between atoms: N_2  and  C_3
REMARK    3  A    between atoms: N_2  and  C_4
REMARK    4  A    between atoms: C_4  and  N_6
REMARK    5  A    between atoms: N_6  and  N_7
REMARK    6  A    between atoms: C_8  and  C_9
REMARK    7  A    between atoms: C_10  and  O_11
REMARK                            x       y       z     vdW  Elec       q    Type
REMARK                         _______ _______ _______ _____ _____    ______ ____
ROOT
ATOM      1  C   UNL     1       4.402   4.741  16.856  0.00  0.00    +0.000 A 
ATOM      2  C   UNL     1       4.614   6.126  16.898  0.00  0.00    +0.000 A 
ATOM      3  C   UNL     1       3.799   6.937  17.676  0.00  0.00    +0.000 A 
ATOM      4  C   UNL     1       2.772   6.370  18.430  0.00  0.00    +0.000 A 
ATOM      5  C   UNL     1       2.531   4.988  18.399  0.00  0.00    +0.000 A 
ATOM      6  C   UNL     1       1.477   4.442  19.161  0.00  0.00    +0.000 A 
ATOM      7  C   UNL     1       1.198   3.076  19.135  0.00  0.00    +0.000 A 
ATOM      8  C   UNL     1       1.966   2.236  18.348  0.00  0.00    +0.000 A 
ATOM      9  C   UNL     1       3.014   2.761  17.590  0.00  0.00    +0.000 A 
ATOM     10  C   UNL     1       3.340   4.144  17.598  0.00  0.00    +0.000 A 
ENDROOT
BRANCH   1  12
ATOM     11  N   UNL     1       5.413   4.171  14.751  0.00  0.00    +0.000 NA
ATOM     12  C   UNL     1       5.299   3.918  16.011  0.00  0.00    +0.000 C 
BRANCH  11  13
ATOM     13  N   UNL     1       6.296   3.431  14.024  0.00  0.00    +0.000 N 
ATOM     14  H   UNL     1       6.963   2.866  14.528  0.00  0.00    +0.000 HD
BRANCH  13  15
ATOM     15  C   UNL     1       6.418   3.638  12.649  0.00  0.00    +0.000 C 
ATOM     16  S   UNL     1       7.421   4.840  12.004  0.00  0.00    +0.000 S 
BRANCH  15  18
ATOM     17  C   UNL     1       4.279   3.239  11.428  0.00  0.00    +0.000 C 
ATOM     18  N   UNL     1       5.610   2.799  11.854  0.00  0.00    +0.000 N 
ATOM     19  C   UNL     1       6.026   1.476  11.405  0.00  0.00    +0.000 C 
ENDBRANCH  15  18
ENDBRANCH  13  15
ENDBRANCH  11  13
ENDBRANCH   1  12
BRANCH   2  20
ATOM     20  O   UNL     1       5.621   6.764  16.226  0.00  0.00    +0.000 OA
ATOM     21  H   UNL     1       5.491   7.725  16.299  0.00  0.00    +0.000 HD
ENDBRANCH   2  20
TORSDOF 5
ENDMDL
MODEL 2
REMARK VINA RESULT:      -6.9      2.813      4.414
REMARK  Name = 
REMARK  7 active torsions:
REMARK  status: ('A' for Active; 'I' for Inactive)
REMARK    1  A    between atoms: C_1  and  N_2
REMARK    2  A    between atoms: N_2  and  C_3
REMARK    3  A    between atoms: N_2  and  C_4
REMARK    4  A    between atoms: C_4  and  N_6
REMARK    5  A    between atoms: N_6  and  N_7
REMARK    6  A    between atoms: C_8  and  C_9
REMARK    7  A    between atoms: C_10  and  O_11
REMARK                            x       y       z     vdW  Elec       q    Type
REMARK                         _______ _______ _______ _____ _____    ______ ____
ROOT
ATOM      1  C   UNL     1       2.741   3.826  18.438  0.00  0.00    +0.000 A 
ATOM      2  C   UNL     1       2.304   2.607  18.974  0.00  0.00    +0.000 A 
ATOM      3  C   UNL     1       1.523   2.584  20.123  0.00  0.00    +0.000 A 
ATOM      4  C   UNL     1       1.161   3.782  20.738  0.00  0.00    +0.000 A 
ATOM      5  C   UNL     1       1.592   5.017  20.229  0.00  0.00    +0.000 A 
ATOM      6  C   UNL     1       1.221   6.212  20.880  0.00  0.00    +0.000 A 
ATOM      7  C   UNL     1       1.651   7.453  20.411  0.00  0.00    +0.000 A 
ATOM      8  C   UNL     1       2.457   7.518  19.288  0.00  0.00    +0.000 A 
ATOM      9  C   UNL     1       2.831   6.344  18.632  0.00  0.00    +0.000 A 
ATOM     10  C   UNL     1       2.404   5.061  19.068  0.00  0.00    +0.000 A 
ENDROOT
BRANCH   1  12
ATOM     11  N   UNL     1       4.808   3.432  17.276  0.00  0.00    +0.000 NA
ATOM     12  C   UNL     1       3.571   3.797  17.212  0.00  0.00    +0.000 C 
BRANCH  11  13
ATOM     13  N   UNL     1       5.516   3.359  16.115  0.00  0.00    +0.000 N 
ATOM     14  H   UNL     1       5.542   2.472  15.633  0.00  0.00    +0.000 HD
BRANCH  13  15
ATOM     15  C   UNL     1       6.362   4.407  15.744  0.00  0.00    +0.000 C 
ATOM     16  S   UNL     1       6.829   4.662  14.137  0.00  0.00    +0.000 S 
BRANCH  15  18
ATOM     17  C   UNL     1       7.766   4.645  17.793  0.00  0.00    +0.000 C 
ATOM     18  N   UNL     1       6.823   5.198  16.817  0.00  0.00    +0.000 N 
ATOM     19  C   UNL     1       6.417   6.582  17.025  0.00  0.00    +0.000 C 
ENDBRANCH  15  18
ENDBRANCH  13  15
ENDBRANCH  11  13
ENDBRANCH   1  12
BRANCH   2  20
ATOM     20  O   UNL     1       2.576   1.387  18.416  0.00  0.00    +0.000 OA
ATOM     21  H   UNL     1       1.816   1.110  17.877  0.00  0.00    +0.000 HD
ENDBRANCH   2  20
TORSDOF 5
ENDMDL
MODEL 3
REMARK VINA RESULT:      -6.7      2.362      3.748
REMARK  Name = 
REMARK  7 active torsions:
REMARK  status: ('A' for Active; 'I' for Inactive)
REMARK    1  A    between atoms: C_1  and  N_2
REMARK    2  A    between atoms: N_2  and  C_3
REMARK    3  A    between atoms: N_2  and  C_4
REMARK    4  A    between atoms: C_4  and  N_6
REMARK    5  A    between atoms: N_6  and  N_7
REMARK    6  A    between atoms: C_8  and  C_9
REMARK    7  A    between atoms: C_10  and  O_11
REMARK                            x       y       z     vdW  Elec       q    Type
REMARK                         _______ _______ _______ _____ _____    ______ ____
ROOT
ATOM      1  C   UNL     1       2.916   3.815  18.333  0.00  0.00    +0.000 A 
ATOM      2  C   UNL     1       2.518   2.597  18.903  0.00  0.00    +0.000 A 
ATOM      3  C   UNL     1       1.757   2.582  20.065  0.00  0.00    +0.000 A 
ATOM      4  C   UNL     1       1.376   3.784  20.660  0.00  0.00    +0.000 A 
ATOM      5  C   UNL     1       1.769   5.017  20.118  0.00  0.00    +0.000 A 
ATOM      6  C   UNL     1       1.381   6.218  20.749  0.00  0.00    +0.000 A 
ATOM      7  C   UNL     1       1.773   7.457  20.246  0.00  0.00    +0.000 A 
ATOM      8  C   UNL     1       2.557   7.517  19.108  0.00  0.00    +0.000 A 
ATOM      9  C   UNL     1       2.949   6.338  18.471  0.00  0.00    +0.000 A 
ATOM     10  C   UNL     1       2.560   5.055  18.942  0.00  0.00    +0.000 A 
ENDROOT
BRANCH   1  12
ATOM     11  N   UNL     1       4.969   3.437  17.142  0.00  0.00    +0.000 NA
ATOM     12  C   UNL     1       3.726   3.779  17.093  0.00  0.00    +0.000 C 
BRANCH  11  13
ATOM     13  N   UNL     1       5.660   3.356  15.971  0.00  0.00    +0.000 N 
ATOM     14  H   UNL     1       5.761   2.446  15.546  0.00  0.00    +0.000 HD
BRANCH  13  15
ATOM     15  C   UNL     1       6.395   4.452  15.514  0.00  0.00    +0.000 C 
ATOM     16  S   UNL     1       6.875   5.708  16.543  0.00  0.00    +0.000 S 
BRANCH  15  18
ATOM     17  C   UNL     1       5.863   3.612  13.226  0.00  0.00    +0.000 C 
ATOM     18  N   UNL     1       6.661   4.444  14.129  0.00  0.00    +0.000 N 
ATOM     19  C   UNL     1       7.712   5.243  13.511  0.00  0.00    +0.000 C 
ENDBRANCH  15  18
ENDBRANCH  13  15
ENDBRANCH  11  13
ENDBRANCH   1  12
BRANCH   2  20
ATOM     20  O   UNL     1       2.809   1.373  18.366  0.00  0.00    +0.000 OA
ATOM     21  H   UNL     1       3.775   1.262  18.336  0.00  0.00    +0.000 HD
ENDBRANCH   2  20
TORSDOF 5
ENDMDL
MODEL 4
REMARK VINA RESULT:      -6.6      3.579      4.624
REMARK  Name = 
REMARK  7 active torsions:
REMARK  status: ('A' for Active; 'I' for Inactive)
REMARK    1  A    between atoms: C_1  and  N_2
REMARK    2  A    between atoms: N_2  and  C_3
REMARK    3  A    between atoms: N_2  and  C_4
REMARK    4  A    between atoms: C_4  and  N_6
REMARK    5  A    between atoms: N_6  and  N_7
REMARK    6  A    between atoms: C_8  and  C_9
REMARK    7  A    between atoms: C_10  and  O_11
REMARK                            x       y       z     vdW  Elec       q    Type
REMARK                         _______ _______ _______ _____ _____    ______ ____
ROOT
ATOM      1  C   UNL     1       4.103   3.885  19.366  0.00  0.00    +0.000 A 
ATOM      2  C   UNL     1       4.064   2.666  20.057  0.00  0.00    +0.000 A 
ATOM      3  C   UNL     1       3.156   2.473  21.090  0.00  0.00    +0.000 A 
ATOM      4  C   UNL     1       2.269   3.492  21.433  0.00  0.00    +0.000 A 
ATOM      5  C   UNL     1       2.292   4.726  20.765  0.00  0.00    +0.000 A 
ATOM      6  C   UNL     1       1.391   5.745  21.142  0.00  0.00    +0.000 A 
ATOM      7  C   UNL     1       1.404   6.989  20.513  0.00  0.00    +0.000 A 
ATOM      8  C   UNL     1       2.314   7.234  19.499  0.00  0.00    +0.000 A 
ATOM      9  C   UNL     1       3.210   6.236  19.114  0.00  0.00    +0.000 A 
ATOM     10  C   UNL     1       3.222   4.950  19.719  0.00  0.00    +0.000 A 
ENDROOT
BRANCH   1  12
ATOM     11  N   UNL     1       6.331   4.261  18.547  0.00  0.00    +0.000 NA
ATOM     12  C   UNL     1       5.089   4.042  18.272  0.00  0.00    +0.000 C 
BRANCH  11  13
ATOM     13  N   UNL     1       7.214   4.336  17.513  0.00  0.00    +0.000 N 
ATOM     14  H   UNL     1       8.124   3.917  17.639  0.00  0.00    +0.000 HD
BRANCH  13  15
ATOM     15  C   UNL     1       6.947   5.167  16.422  0.00  0.00    +0.000 C 
ATOM     16  S   UNL     1       7.026   4.610  14.825  0.00  0.00    +0.000 S 
BRANCH  15  18
ATOM     17  C   UNL     1       5.354   7.087  16.414  0.00  0.00    +0.000 C 
ATOM     18  N   UNL     1       6.652   6.504  16.761  0.00  0.00    +0.000 N 
ATOM     19  C   UNL     1       7.583   7.377  17.465  0.00  0.00    +0.000 C 
ENDBRANCH  15  18
ENDBRANCH  13  15
ENDBRANCH  11  13
ENDBRANCH   1  12
BRANCH   2  20
ATOM     20  O   UNL     1       4.867   1.597  19.763  0.00  0.00    +0.000 OA
ATOM     21  H   UNL     1       5.750   1.922  19.520  0.00  0.00    +0.000 HD
ENDBRANCH   2  20
TORSDOF 5
ENDMDL
MODEL 5
REMARK VINA RESULT:      -6.4      3.034      3.886
REMARK  Name = 
REMARK  7 active torsions:
REMARK  status: ('A' for Active; 'I' for Inactive)
REMARK    1  A    between atoms: C_1  and  N_2
REMARK    2  A    between atoms: N_2  and  C_3
REMARK    3  A    between atoms: N_2  and  C_4
REMARK    4  A    between atoms: C_4  and  N_6
REMARK    5  A    between atoms: N_6  and  N_7
REMARK    6  A    between atoms: C_8  and  C_9
REMARK    7  A    between atoms: C_10  and  O_11
REMARK                            x       y       z     vdW  Elec       q    Type
REMARK                         _______ _______ _______ _____ _____    ______ ____
ROOT
ATOM      1  C   UNL     1       2.891   5.901  18.474  0.00  0.00    +0.000 A 
ATOM      2  C   UNL     1       2.501   7.167  18.929  0.00  0.00    +0.000 A 
ATOM      3  C   UNL     1       1.762   7.296  20.099  0.00  0.00    +0.000 A 
ATOM      4  C   UNL     1       1.420   6.160  20.831  0.00  0.00    +0.000 A 
ATOM      5  C   UNL     1       1.790   4.879  20.394  0.00  0.00    +0.000 A 
ATOM      6  C   UNL     1       1.419   3.746  21.148  0.00  0.00    +0.000 A 
ATOM      7  C   UNL     1       1.752   2.458  20.730  0.00  0.00    +0.000 A 
ATOM      8  C   UNL     1       2.460   2.283  19.554  0.00  0.00    +0.000 A 
ATOM      9  C   UNL     1       2.836   3.394  18.797  0.00  0.00    +0.000 A 
ATOM     10  C   UNL     1       2.528   4.724  19.195  0.00  0.00    +0.000 A 
ENDROOT
BRANCH   1  12
ATOM     11  N   UNL     1       4.571   6.708  16.956  0.00  0.00    +0.000 NA
ATOM     12  C   UNL     1       3.678   5.815  17.222  0.00  0.00    +0.000 C 
BRANCH  11  13
ATOM     13  N   UNL     1       5.314   6.557  15.825  0.00  0.00    +0.000 N 
ATOM     14  H   UNL     1       4.928   6.900  14.958  0.00  0.00    +0.000 HD
BRANCH  13  15
ATOM     15  C   UNL     1       6.452   5.748  15.838  0.00  0.00    +0.000 C 
ATOM     16  S   UNL     1       6.823   4.693  14.566  0.00  0.00    +0.000 S 
BRANCH  15  18
ATOM     17  C   UNL     1       7.626   4.648  17.746  0.00  0.00    +0.000 C 
ATOM     18  N   UNL     1       7.234   5.852  17.008  0.00  0.00    +0.000 N 
ATOM     19  C   UNL     1       7.703   7.121  17.548  0.00  0.00    +0.000 C 
ENDBRANCH  15  18
ENDBRANCH  13  15
ENDBRANCH  11  13
ENDBRANCH   1  12
BRANCH   2  20
ATOM     20  O   UNL     1       2.826   8.338  18.299  0.00  0.00    +0.000 OA
ATOM     21  H   UNL     1       2.541   8.287  17.371  0.00  0.00    +0.000 HD
ENDBRANCH   2  20
TORSDOF 5
ENDMDL
MODEL 6
REMARK VINA RESULT:      -6.4      3.097      4.251
REMARK  Name = 
REMARK  7 active torsions:
REMARK  status: ('A' for Active; 'I' for Inactive)
REMARK    1  A    between atoms: C_1  and  N_2
REMARK    2  A    between atoms: N_2  and  C_3
REMARK    3  A    between atoms: N_2  and  C_4
REMARK    4  A    between atoms: C_4  and  N_6
REMARK    5  A    between atoms: N_6  and  N_7
REMARK    6  A    between atoms: C_8  and  C_9
REMARK    7  A    between atoms: C_10  and  O_11
REMARK                            x       y       z     vdW  Elec       q    Type
REMARK                         _______ _______ _______ _____ _____    ______ ____
ROOT
ATOM      1  C   UNL     1       4.076   3.944  19.439  0.00  0.00    +0.000 A 
ATOM      2  C   UNL     1       3.989   2.739  20.150  0.00  0.00    +0.000 A 
ATOM      3  C   UNL     1       3.045   2.585  21.157  0.00  0.00    +0.000 A 
ATOM      4  C   UNL     1       2.171   3.630  21.453  0.00  0.00    +0.000 A 
ATOM      5  C   UNL     1       2.242   4.851  20.765  0.00  0.00    +0.000 A 
ATOM      6  C   UNL     1       1.354   5.896  21.095  0.00  0.00    +0.000 A 
ATOM      7  C   UNL     1       1.414   7.128  20.444  0.00  0.00    +0.000 A 
ATOM      8  C   UNL     1       2.360   7.334  19.456  0.00  0.00    +0.000 A 
ATOM      9  C   UNL     1       3.245   6.309  19.117  0.00  0.00    +0.000 A 
ATOM     10  C   UNL     1       3.209   5.035  19.745  0.00  0.00    +0.000 A 
ENDROOT
BRANCH   1  12
ATOM     11  N   UNL     1       6.342   4.223  18.685  0.00  0.00    +0.000 NA
ATOM     12  C   UNL     1       5.100   4.059  18.374  0.00  0.00    +0.000 C 
BRANCH  11  13
ATOM     13  N   UNL     1       7.256   4.260  17.677  0.00  0.00    +0.000 N 
ATOM     14  H   UNL     1       8.072   3.672  17.759  0.00  0.00    +0.000 HD
BRANCH  13  15
ATOM     15  C   UNL     1       7.176   5.249  16.694  0.00  0.00    +0.000 C 
ATOM     16  S   UNL     1       7.261   6.899  17.066  0.00  0.00    +0.000 S 
BRANCH  15  18
ATOM     17  C   UNL     1       6.069   3.637  15.144  0.00  0.00    +0.000 C 
ATOM     18  N   UNL     1       6.976   4.762  15.386  0.00  0.00    +0.000 N 
ATOM     19  C   UNL     1       7.628   5.328  14.211  0.00  0.00    +0.000 C 
ENDBRANCH  15  18
ENDBRANCH  13  15
ENDBRANCH  11  13
ENDBRANCH   1  12
BRANCH   2  20
ATOM     20  O   UNL     1       4.776   1.648  19.900  0.00  0.00    +0.000 OA
ATOM     21  H   UNL     1       5.577   1.936  19.431  0.00  0.00    +0.000 HD
ENDBRANCH   2  20
TORSDOF 5
ENDMDL
MODEL 7
REMARK VINA RESULT:      -6.4      4.539      6.887
REMARK  Name = 
REMARK  7 active torsions:
REMARK  status: ('A' for Active; 'I' for Inactive)
REMARK    1  A    between atoms: C_1  and  N_2
REMARK    2  A    between atoms: N_2  and  C_3
REMARK    3  A    between atoms: N_2  and  C_4
REMARK    4  A    between atoms: C_4  and  N_6
REMARK    5  A    between atoms: N_6  and  N_7
REMARK    6  A    between atoms: C_8  and  C_9
REMARK    7  A    between atoms: C_10  and  O_11
REMARK                            x       y       z     vdW  Elec       q    Type
REMARK                         _______ _______ _______ _____ _____    ______ ____
ROOT
ATOM      1  C   UNL     1       3.246   5.989  18.133  0.00  0.00    +0.000 A 
ATOM      2  C   UNL     1       4.164   5.696  17.116  0.00  0.00    +0.000 A 
ATOM      3  C   UNL     1       4.415   4.379  16.754  0.00  0.00    +0.000 A 
ATOM      4  C   UNL     1       3.740   3.342  17.397  0.00  0.00    +0.000 A 
ATOM      5  C   UNL     1       2.823   3.606  18.427  0.00  0.00    +0.000 A 
ATOM      6  C   UNL     1       2.163   2.537  19.070  0.00  0.00    +0.000 A 
ATOM      7  C   UNL     1       1.263   2.764  20.110  0.00  0.00    +0.000 A 
ATOM      8  C   UNL     1       1.008   4.060  20.523  0.00  0.00    +0.000 A 
ATOM      9  C   UNL     1       1.651   5.128  19.896  0.00  0.00    +0.000 A 
ATOM     10  C   UNL     1       2.565   4.942  18.823  0.00  0.00    +0.000 A 
ENDROOT
BRANCH   1  12
ATOM     11  N   UNL     1       2.184   8.118  17.792  0.00  0.00    +0.000 NA
ATOM     12  C   UNL     1       3.013   7.409  18.483  0.00  0.00    +0.000 C 
BRANCH  11  13
ATOM     13  N   UNL     1       1.952   9.401  18.187  0.00  0.00    +0.000 N 
ATOM     14  H   UNL     1       2.726  10.049  18.159  0.00  0.00    +0.000 HD
BRANCH  13  15
ATOM     15  C   UNL     1       0.756   9.732  18.825  0.00  0.00    +0.000 C 
ATOM     16  S   UNL     1      -0.677  10.009  17.967  0.00  0.00    +0.000 S 
BRANCH  15  18
ATOM     17  C   UNL     1       0.890  11.183  20.851  0.00  0.00    +0.000 C 
ATOM     18  N   UNL     1       0.853   9.858  20.227  0.00  0.00    +0.000 N 
ATOM     19  C   UNL     1       0.912   8.717  21.132  0.00  0.00    +0.000 C 
ENDBRANCH  15  18
ENDBRANCH  13  15
ENDBRANCH  11  13
ENDBRANCH   1  12
BRANCH   2  20
ATOM     20  O   UNL     1       4.841   6.648  16.402  0.00  0.00    +0.000 OA
ATOM     21  H   UNL     1       5.605   6.234  15.967  0.00  0.00    +0.000 HD
ENDBRANCH   2  20
TORSDOF 5
ENDMDL
MODEL 8
REMARK VINA RESULT:      -6.3      5.236      8.121
REMARK  Name = 
REMARK  7 active torsions:
REMARK  status: ('A' for Active; 'I' for Inactive)
REMARK    1  A    between atoms: C_1  and  N_2
REMARK    2  A    between atoms: N_2  and  C_3
REMARK    3  A    between atoms: N_2  and  C_4
REMARK    4  A    between atoms: C_4  and  N_6
REMARK    5  A    between atoms: N_6  and  N_7
REMARK    6  A    between atoms: C_8  and  C_9
REMARK    7  A    between atoms: C_10  and  O_11
REMARK                            x       y       z     vdW  Elec       q    Type
REMARK                         _______ _______ _______ _____ _____    ______ ____
ROOT
ATOM      1  C   UNL     1       2.652   5.353  19.146  0.00  0.00    +0.000 A 
ATOM      2  C   UNL     1       1.763   4.296  19.385  0.00  0.00    +0.000 A 
ATOM      3  C   UNL     1       1.779   3.169  18.574  0.00  0.00    +0.000 A 
ATOM      4  C   UNL     1       2.692   3.083  17.524  0.00  0.00    +0.000 A 
ATOM      5  C   UNL     1       3.587   4.130  17.256  0.00  0.00    +0.000 A 
ATOM      6  C   UNL     1       4.492   4.022  16.179  0.00  0.00    +0.000 A 
ATOM      7  C   UNL     1       5.378   5.054  15.873  0.00  0.00    +0.000 A 
ATOM      8  C   UNL     1       5.374   6.208  16.637  0.00  0.00    +0.000 A 
ATOM      9  C   UNL     1       4.486   6.329  17.707  0.00  0.00    +0.000 A 
ATOM     10  C   UNL     1       3.576   5.297  18.061  0.00  0.00    +0.000 A 
ENDROOT
BRANCH   1  12
ATOM     11  N   UNL     1       1.461   7.073  20.330  0.00  0.00    +0.000 NA
ATOM     12  C   UNL     1       2.597   6.534  20.039  0.00  0.00    +0.000 C 
BRANCH  11  13
ATOM     13  N   UNL     1       1.450   8.117  21.205  0.00  0.00    +0.000 N 
ATOM     14  H   UNL     1       1.735   7.937  22.157  0.00  0.00    +0.000 HD
BRANCH  13  15
ATOM     15  C   UNL     1       0.843   9.323  20.849  0.00  0.00    +0.000 C 
ATOM     16  S   UNL     1       0.858   9.905  19.259  0.00  0.00    +0.000 S 
BRANCH  15  18
ATOM     17  C   UNL     1      -0.196  11.407  21.743  0.00  0.00    +0.000 C 
ATOM     18  N   UNL     1       0.261  10.027  21.923  0.00  0.00    +0.000 N 
ATOM     19  C   UNL     1       0.068   9.452  23.248  0.00  0.00    +0.000 C 
ENDBRANCH  15  18
ENDBRANCH  13  15
ENDBRANCH  11  13
ENDBRANCH   1  12
BRANCH   2  20
ATOM     20  O   UNL     1       0.862   4.276  20.415  0.00  0.00    +0.000 OA
ATOM     21  H   UNL     1       0.773   3.364  20.739  0.00  0.00    +0.000 HD
ENDBRANCH   2  20
TORSDOF 5
ENDMDL
MODEL 9
REMARK VINA RESULT:      -6.3      2.384      3.117
REMARK  Name = 
REMARK  7 active torsions:
REMARK  status: ('A' for Active; 'I' for Inactive)
REMARK    1  A    between atoms: C_1  and  N_2
REMARK    2  A    between atoms: N_2  and  C_3
REMARK    3  A    between atoms: N_2  and  C_4
REMARK    4  A    between atoms: C_4  and  N_6
REMARK    5  A    between atoms: N_6  and  N_7
REMARK    6  A    between atoms: C_8  and  C_9
REMARK    7  A    between atoms: C_10  and  O_11
REMARK                            x       y       z     vdW  Elec       q    Type
REMARK                         _______ _______ _______ _____ _____    ______ ____
ROOT
ATOM      1  C   UNL     1       3.244   6.049  18.462  0.00  0.00    +0.000 A 
ATOM      2  C   UNL     1       2.662   7.288  18.761  0.00  0.00    +0.000 A 
ATOM      3  C   UNL     1       1.893   7.444  19.907  0.00  0.00    +0.000 A 
ATOM      4  C   UNL     1       1.711   6.367  20.772  0.00  0.00    +0.000 A 
ATOM      5  C   UNL     1       2.273   5.111  20.493  0.00  0.00    +0.000 A 
ATOM      6  C   UNL     1       2.062   4.034  21.379  0.00  0.00    +0.000 A 
ATOM      7  C   UNL     1       2.589   2.770  21.119  0.00  0.00    +0.000 A 
ATOM      8  C   UNL     1       3.335   2.563  19.972  0.00  0.00    +0.000 A 
ATOM      9  C   UNL     1       3.555   3.619  19.086  0.00  0.00    +0.000 A 
ATOM     10  C   UNL     1       3.047   4.926  19.320  0.00  0.00    +0.000 A 
ENDROOT
BRANCH   1  12
ATOM     11  N   UNL     1       5.094   6.681  17.064  0.00  0.00    +0.000 NA
ATOM     12  C   UNL     1       4.055   5.933  17.228  0.00  0.00    +0.000 C 
BRANCH  11  13
ATOM     13  N   UNL     1       5.847   6.497  15.944  0.00  0.00    +0.000 N 
ATOM     14  H   UNL     1       5.696   7.122  15.166  0.00  0.00    +0.000 HD
BRANCH  13  15
ATOM     15  C   UNL     1       6.621   5.343  15.802  0.00  0.00    +0.000 C 
ATOM     16  S   UNL     1       7.446   4.645  17.105  0.00  0.00    +0.000 S 
BRANCH  15  18
ATOM     17  C   UNL     1       5.673   3.909  13.994  0.00  0.00    +0.000 C 
ATOM     18  N   UNL     1       6.691   4.841  14.486  0.00  0.00    +0.000 N 
ATOM     19  C   UNL     1       7.741   5.205  13.543  0.00  0.00    +0.000 C 
ENDBRANCH  15  18
ENDBRANCH  13  15
ENDBRANCH  11  13
ENDBRANCH   1  12
BRANCH   2  20
ATOM     20  O   UNL     1       2.821   8.410  17.993  0.00  0.00    +0.000 OA
ATOM     21  H   UNL     1       2.044   8.983  18.106  0.00  0.00    +0.000 HD
ENDBRANCH   2  20
TORSDOF 5
ENDMDL
