MODEL 1
REMARK VINA RESULT:      -7.8      0.000      0.000
REMARK  Name = 
REMARK  2 active torsions:
REMARK  status: ('A' for Active; 'I' for Inactive)
REMARK    1  A    between atoms: C_1  and  C_2
REMARK    2  A    between atoms: C_4  and  C_5
REMARK                            x       y       z     vdW  Elec       q    Type
REMARK                         _______ _______ _______ _____ _____    ______ ____
ROOT
ATOM      1  C   UNL     1       4.840   4.207  16.725  0.00  0.00    +0.000 C 
ATOM      2  O   UNL     1       4.725   3.055  17.146  0.00  0.00    +0.000 OA
ATOM      3  N   UNL     1       4.182   5.294  17.311  0.00  0.00    +0.000 N 
ATOM      4  C   UNL     1       4.342   6.713  16.935  0.00  0.00    +0.000 C 
ATOM      5  C   UNL     1       3.467   7.555  17.863  0.00  0.00    +0.000 C 
ATOM      6  C   UNL     1       2.922   6.525  18.795  0.00  0.00    +0.000 A 
ATOM      7  C   UNL     1       2.081   6.751  19.875  0.00  0.00    +0.000 A 
ATOM      8  C   UNL     1       1.683   5.658  20.641  0.00  0.00    +0.000 A 
ATOM      9  C   UNL     1       2.133   4.371  20.314  0.00  0.00    +0.000 A 
ATOM     10 BR   UNL     1       1.593   2.908  21.389  0.00  0.00    +0.000 Br
ATOM     11  C   UNL     1       2.971   4.148  19.217  0.00  0.00    +0.000 A 
ATOM     12  C   UNL     1       3.354   5.239  18.454  0.00  0.00    +0.000 A 
ENDROOT
BRANCH   1  16
ATOM     13  C   UNL     1       7.318   4.591  12.321  0.00  0.00    +0.000 C 
ATOM     14  C   UNL     1       6.848   4.680  13.721  0.00  0.00    +0.000 A 
ATOM     15  C   UNL     1       5.621   4.245  14.270  0.00  0.00    +0.000 A 
ATOM     16  C   UNL     1       5.742   4.482  15.622  0.00  0.00    +0.000 A 
ATOM     17  O   UNL     1       6.930   5.112  15.840  0.00  0.00    +0.000 OA
ATOM     18  N   UNL     1       7.639   5.210  14.660  0.00  0.00    +0.000 NA
ENDBRANCH   1  16
TORSDOF 1
ENDMDL
MODEL 2
REMARK VINA RESULT:      -7.6      1.676      2.426
REMARK  Name = 
REMARK  2 active torsions:
REMARK  status: ('A' for Active; 'I' for Inactive)
REMARK    1  A    between atoms: C_1  and  C_2
REMARK    2  A    between atoms: C_4  and  C_5
REMARK                            x       y       z     vdW  Elec       q    Type
REMARK                         _______ _______ _______ _____ _____    ______ ____
ROOT
ATOM      1  C   UNL     1       4.849   5.869  16.779  0.00  0.00    +0.000 C 
ATOM      2  O   UNL     1       4.718   7.076  16.988  0.00  0.00    +0.000 OA
ATOM      3  N   UNL     1       4.198   4.896  17.546  0.00  0.00    +0.000 N 
ATOM      4  C   UNL     1       4.218   3.439  17.301  0.00  0.00    +0.000 C 
ATOM      5  C   UNL     1       3.340   2.766  18.355  0.00  0.00    +0.000 C 
ATOM      6  C   UNL     1       2.789   3.938  19.096  0.00  0.00    +0.000 A 
ATOM      7  C   UNL     1       1.890   3.898  20.151  0.00  0.00    +0.000 A 
ATOM      8  C   UNL     1       1.479   5.106  20.712  0.00  0.00    +0.000 A 
ATOM      9  C   UNL     1       1.970   6.318  20.207  0.00  0.00    +0.000 A 
ATOM     10 BR   UNL     1       1.373   7.942  20.975  0.00  0.00    +0.000 Br
ATOM     11  C   UNL     1       2.885   6.350  19.150  0.00  0.00    +0.000 A 
ATOM     12  C   UNL     1       3.296   5.145  18.604  0.00  0.00    +0.000 A 
ENDROOT
BRANCH   1  16
ATOM     13  C   UNL     1       6.790   3.733  12.614  0.00  0.00    +0.000 C 
ATOM     14  C   UNL     1       6.528   4.512  13.844  0.00  0.00    +0.000 A 
ATOM     15  C   UNL     1       5.311   4.683  14.539  0.00  0.00    +0.000 A 
ATOM     16  C   UNL     1       5.648   5.416  15.657  0.00  0.00    +0.000 A 
ATOM     17  O   UNL     1       6.968   5.742  15.569  0.00  0.00    +0.000 OA
ATOM     18  N   UNL     1       7.530   5.154  14.454  0.00  0.00    +0.000 NA
ENDBRANCH   1  16
TORSDOF 1
ENDMDL
MODEL 3
REMARK VINA RESULT:      -7.0      3.413      6.487
REMARK  Name = 
REMARK  2 active torsions:
REMARK  status: ('A' for Active; 'I' for Inactive)
REMARK    1  A    between atoms: C_1  and  C_2
REMARK    2  A    between atoms: C_4  and  C_5
REMARK                            x       y       z     vdW  Elec       q    Type
REMARK                         _______ _______ _______ _____ _____    ______ ____
ROOT
ATOM      1  C   UNL     1       3.185   3.396  17.687  0.00  0.00    +0.000 C 
ATOM      2  O   UNL     1       2.643   2.930  16.684  0.00  0.00    +0.000 OA
ATOM      3  N   UNL     1       4.453   3.988  17.654  0.00  0.00    +0.000 N 
ATOM      4  C   UNL     1       5.129   4.658  18.783  0.00  0.00    +0.000 C 
ATOM      5  C   UNL     1       6.473   5.192  18.285  0.00  0.00    +0.000 C 
ATOM      6  C   UNL     1       6.422   4.855  16.833  0.00  0.00    +0.000 A 
ATOM      7  C   UNL     1       7.389   5.151  15.883  0.00  0.00    +0.000 A 
ATOM      8  C   UNL     1       7.159   4.763  14.565  0.00  0.00    +0.000 A 
ATOM      9  C   UNL     1       5.974   4.095  14.227  0.00  0.00    +0.000 A 
ATOM     10 BR   UNL     1       5.681   3.602  12.422  0.00  0.00    +0.000 Br
ATOM     11  C   UNL     1       5.009   3.789  15.191  0.00  0.00    +0.000 A 
ATOM     12  C   UNL     1       5.250   4.170  16.501  0.00  0.00    +0.000 A 
ENDROOT
BRANCH   1  16
ATOM     13  C   UNL     1       1.176   2.517  22.255  0.00  0.00    +0.000 C 
ATOM     14  C   UNL     1       1.580   3.063  20.941  0.00  0.00    +0.000 A 
ATOM     15  C   UNL     1       2.578   2.594  20.059  0.00  0.00    +0.000 A 
ATOM     16  C   UNL     1       2.472   3.406  18.950  0.00  0.00    +0.000 A 
ATOM     17  O   UNL     1       1.534   4.359  19.209  0.00  0.00    +0.000 OA
ATOM     18  N   UNL     1       0.952   4.131  20.439  0.00  0.00    +0.000 NA
ENDBRANCH   1  16
TORSDOF 1
ENDMDL
MODEL 4
REMARK VINA RESULT:      -6.8      0.966      1.008
REMARK  Name = 
REMARK  2 active torsions:
REMARK  status: ('A' for Active; 'I' for Inactive)
REMARK    1  A    between atoms: C_1  and  C_2
REMARK    2  A    between atoms: C_4  and  C_5
REMARK                            x       y       z     vdW  Elec       q    Type
REMARK                         _______ _______ _______ _____ _____    ______ ____
ROOT
ATOM      1  C   UNL     1       4.755   4.066  16.621  0.00  0.00    +0.000 C 
ATOM      2  O   UNL     1       4.649   2.936  17.100  0.00  0.00    +0.000 OA
ATOM      3  N   UNL     1       4.153   5.189  17.199  0.00  0.00    +0.000 N 
ATOM      4  C   UNL     1       4.311   6.588  16.751  0.00  0.00    +0.000 C 
ATOM      5  C   UNL     1       3.511   7.485  17.694  0.00  0.00    +0.000 C 
ATOM      6  C   UNL     1       3.010   6.507  18.704  0.00  0.00    +0.000 A 
ATOM      7  C   UNL     1       2.244   6.795  19.823  0.00  0.00    +0.000 A 
ATOM      8  C   UNL     1       1.879   5.744  20.661  0.00  0.00    +0.000 A 
ATOM      9  C   UNL     1       2.287   4.436  20.364  0.00  0.00    +0.000 A 
ATOM     10 BR   UNL     1       1.794   3.032  21.536  0.00  0.00    +0.000 Br
ATOM     11  C   UNL     1       3.049   4.150  19.227  0.00  0.00    +0.000 A 
ATOM     12  C   UNL     1       3.400   5.200  18.394  0.00  0.00    +0.000 A 
ENDROOT
BRANCH   1  16
ATOM     13  C   UNL     1       8.202   5.440  13.171  0.00  0.00    +0.000 C 
ATOM     14  C   UNL     1       7.076   4.845  13.922  0.00  0.00    +0.000 A 
ATOM     15  C   UNL     1       6.797   4.923  15.304  0.00  0.00    +0.000 A 
ATOM     16  C   UNL     1       5.589   4.276  15.453  0.00  0.00    +0.000 A 
ATOM     17  O   UNL     1       5.231   3.761  14.244  0.00  0.00    +0.000 OA
ATOM     18  N   UNL     1       6.141   4.139  13.278  0.00  0.00    +0.000 NA
ENDBRANCH   1  16
TORSDOF 1
ENDMDL
MODEL 5
REMARK VINA RESULT:      -6.6      3.967      7.163
REMARK  Name = 
REMARK  2 active torsions:
REMARK  status: ('A' for Active; 'I' for Inactive)
REMARK    1  A    between atoms: C_1  and  C_2
REMARK    2  A    between atoms: C_4  and  C_5
REMARK                            x       y       z     vdW  Elec       q    Type
REMARK                         _______ _______ _______ _____ _____    ______ ____
ROOT
ATOM      1  C   UNL     1       2.104   7.889  19.146  0.00  0.00    +0.000 C 
ATOM      2  O   UNL     1       2.624   8.510  18.219  0.00  0.00    +0.000 OA
ATOM      3  N   UNL     1       2.306   6.518  19.344  0.00  0.00    +0.000 N 
ATOM      4  C   UNL     1       1.805   5.721  20.482  0.00  0.00    +0.000 C 
ATOM      5  C   UNL     1       2.297   4.284  20.311  0.00  0.00    +0.000 C 
ATOM      6  C   UNL     1       3.150   4.390  19.091  0.00  0.00    +0.000 A 
ATOM      7  C   UNL     1       3.879   3.368  18.503  0.00  0.00    +0.000 A 
ATOM      8  C   UNL     1       4.630   3.663  17.367  0.00  0.00    +0.000 A 
ATOM      9  C   UNL     1       4.637   4.966  16.849  0.00  0.00    +0.000 A 
ATOM     10 BR   UNL     1       5.686   5.340  15.318  0.00  0.00    +0.000 Br
ATOM     11  C   UNL     1       3.889   5.989  17.440  0.00  0.00    +0.000 A 
ATOM     12  C   UNL     1       3.138   5.685  18.564  0.00  0.00    +0.000 A 
ENDROOT
BRANCH   1  16
ATOM     13  C   UNL     1      -0.233   9.724  23.251  0.00  0.00    +0.000 C 
ATOM     14  C   UNL     1       0.269   9.431  21.891  0.00  0.00    +0.000 A 
ATOM     15  C   UNL     1       1.322   8.574  21.504  0.00  0.00    +0.000 A 
ATOM     16  C   UNL     1       1.303   8.598  20.126  0.00  0.00    +0.000 A 
ATOM     17  O   UNL     1       0.358   9.496  19.730  0.00  0.00    +0.000 OA
ATOM     18  N   UNL     1      -0.312   9.996  20.828  0.00  0.00    +0.000 NA
ENDBRANCH   1  16
TORSDOF 1
ENDMDL
MODEL 6
REMARK VINA RESULT:      -6.5      3.193      4.517
REMARK  Name = 
REMARK  2 active torsions:
REMARK  status: ('A' for Active; 'I' for Inactive)
REMARK    1  A    between atoms: C_1  and  C_2
REMARK    2  A    between atoms: C_4  and  C_5
REMARK                            x       y       z     vdW  Elec       q    Type
REMARK                         _______ _______ _______ _____ _____    ______ ____
ROOT
ATOM      1  C   UNL     1       2.542   6.335  19.419  0.00  0.00    +0.000 C 
ATOM      2  O   UNL     1       2.269   5.904  20.540  0.00  0.00    +0.000 OA
ATOM      3  N   UNL     1       2.168   7.614  18.991  0.00  0.00    +0.000 N 
ATOM      4  C   UNL     1       2.541   8.245  17.708  0.00  0.00    +0.000 C 
ATOM      5  C   UNL     1       1.950   9.654  17.680  0.00  0.00    +0.000 C 
ATOM      6  C   UNL     1       1.339   9.762  19.037  0.00  0.00    +0.000 A 
ATOM      7  C   UNL     1       0.687  10.868  19.563  0.00  0.00    +0.000 A 
ATOM      8  C   UNL     1       0.188  10.783  20.861  0.00  0.00    +0.000 A 
ATOM      9  C   UNL     1       0.353   9.604  21.601  0.00  0.00    +0.000 A 
ATOM     10 BR   UNL     1      -0.316   9.529  23.371  0.00  0.00    +0.000 Br
ATOM     11  C   UNL     1       1.000   8.488  21.060  0.00  0.00    +0.000 A 
ATOM     12  C   UNL     1       1.485   8.577  19.766  0.00  0.00    +0.000 A 
ENDROOT
BRANCH   1  16
ATOM     13  C   UNL     1       6.094   4.213  16.494  0.00  0.00    +0.000 C 
ATOM     14  C   UNL     1       4.866   4.572  17.235  0.00  0.00    +0.000 A 
ATOM     15  C   UNL     1       4.694   5.547  18.242  0.00  0.00    +0.000 A 
ATOM     16  C   UNL     1       3.343   5.531  18.516  0.00  0.00    +0.000 A 
ATOM     17  O   UNL     1       2.773   4.534  17.784  0.00  0.00    +0.000 OA
ATOM     18  N   UNL     1       3.713   3.953  16.959  0.00  0.00    +0.000 NA
ENDBRANCH   1  16
TORSDOF 1
ENDMDL
MODEL 7
REMARK VINA RESULT:      -6.5      4.672      7.312
REMARK  Name = 
REMARK  2 active torsions:
REMARK  status: ('A' for Active; 'I' for Inactive)
REMARK    1  A    between atoms: C_1  and  C_2
REMARK    2  A    between atoms: C_4  and  C_5
REMARK                            x       y       z     vdW  Elec       q    Type
REMARK                         _______ _______ _______ _____ _____    ______ ____
ROOT
ATOM      1  C   UNL     1       1.017   8.775  20.877  0.00  0.00    +0.000 C 
ATOM      2  O   UNL     1       0.680   8.121  21.865  0.00  0.00    +0.000 OA
ATOM      3  N   UNL     1       1.717   8.212  19.804  0.00  0.00    +0.000 N 
ATOM      4  C   UNL     1       2.069   8.895  18.542  0.00  0.00    +0.000 C 
ATOM      5  C   UNL     1       2.793   7.892  17.643  0.00  0.00    +0.000 C 
ATOM      6  C   UNL     1       2.717   6.640  18.450  0.00  0.00    +0.000 A 
ATOM      7  C   UNL     1       3.197   5.391  18.083  0.00  0.00    +0.000 A 
ATOM      8  C   UNL     1       3.023   4.331  18.970  0.00  0.00    +0.000 A 
ATOM      9  C   UNL     1       2.375   4.541  20.195  0.00  0.00    +0.000 A 
ATOM     10 BR   UNL     1       2.134   3.074  21.369  0.00  0.00    +0.000 Br
ATOM     11  C   UNL     1       1.905   5.805  20.565  0.00  0.00    +0.000 A 
ATOM     12  C   UNL     1       2.090   6.856  19.681  0.00  0.00    +0.000 A 
ENDROOT
BRANCH   1  16
ATOM     13  C   UNL     1      -1.007  13.281  19.748  0.00  0.00    +0.000 C 
ATOM     14  C   UNL     1      -0.241  12.147  20.308  0.00  0.00    +0.000 A 
ATOM     15  C   UNL     1      -0.409  10.765  20.074  0.00  0.00    +0.000 A 
ATOM     16  C   UNL     1       0.622  10.166  20.766  0.00  0.00    +0.000 A 
ATOM     17  O   UNL     1       1.295  11.134  21.448  0.00  0.00    +0.000 OA
ATOM     18  N   UNL     1       0.780  12.377  21.141  0.00  0.00    +0.000 NA
ENDBRANCH   1  16
TORSDOF 1
ENDMDL
MODEL 8
REMARK VINA RESULT:      -6.4      3.896      5.041
REMARK  Name = 
REMARK  2 active torsions:
REMARK  status: ('A' for Active; 'I' for Inactive)
REMARK    1  A    between atoms: C_1  and  C_2
REMARK    2  A    between atoms: C_4  and  C_5
REMARK                            x       y       z     vdW  Elec       q    Type
REMARK                         _______ _______ _______ _____ _____    ______ ____
ROOT
ATOM      1  C   UNL     1       2.156   5.829  20.147  0.00  0.00    +0.000 C 
ATOM      2  O   UNL     1       1.694   5.703  21.282  0.00  0.00    +0.000 OA
ATOM      3  N   UNL     1       2.054   7.020  19.420  0.00  0.00    +0.000 N 
ATOM      4  C   UNL     1       2.665   7.289  18.102  0.00  0.00    +0.000 C 
ATOM      5  C   UNL     1       2.331   8.727  17.705  0.00  0.00    +0.000 C 
ATOM      6  C   UNL     1       1.605   9.222  18.911  0.00  0.00    +0.000 A 
ATOM      7  C   UNL     1       1.100  10.499  19.104  0.00  0.00    +0.000 A 
ATOM      8  C   UNL     1       0.457  10.779  20.308  0.00  0.00    +0.000 A 
ATOM      9  C   UNL     1       0.337   9.783  21.288  0.00  0.00    +0.000 A 
ATOM     10 BR   UNL     1      -0.521  10.202  22.923  0.00  0.00    +0.000 Br
ATOM     11  C   UNL     1       0.838   8.493  21.082  0.00  0.00    +0.000 A 
ATOM     12  C   UNL     1       1.467   8.221  19.878  0.00  0.00    +0.000 A 
ENDROOT
BRANCH   1  16
ATOM     13  C   UNL     1       3.813   1.574  17.951  0.00  0.00    +0.000 C 
ATOM     14  C   UNL     1       3.661   2.900  18.587  0.00  0.00    +0.000 A 
ATOM     15  C   UNL     1       2.476   3.612  18.875  0.00  0.00    +0.000 A 
ATOM     16  C   UNL     1       2.900   4.737  19.548  0.00  0.00    +0.000 A 
ATOM     17  O   UNL     1       4.262   4.735  19.566  0.00  0.00    +0.000 OA
ATOM     18  N   UNL     1       4.742   3.574  18.994  0.00  0.00    +0.000 NA
ENDBRANCH   1  16
TORSDOF 1
ENDMDL
MODEL 9
REMARK VINA RESULT:      -6.3      3.461      6.411
REMARK  Name = 
REMARK  2 active torsions:
REMARK  status: ('A' for Active; 'I' for Inactive)
REMARK    1  A    between atoms: C_1  and  C_2
REMARK    2  A    between atoms: C_4  and  C_5
REMARK                            x       y       z     vdW  Elec       q    Type
REMARK                         _______ _______ _______ _____ _____    ______ ____
ROOT
ATOM      1  C   UNL     1       4.068   2.803  18.115  0.00  0.00    +0.000 C 
ATOM      2  O   UNL     1       3.688   2.106  17.174  0.00  0.00    +0.000 OA
ATOM      3  N   UNL     1       5.033   3.807  17.969  0.00  0.00    +0.000 N 
ATOM      4  C   UNL     1       5.470   4.752  19.016  0.00  0.00    +0.000 C 
ATOM      5  C   UNL     1       6.505   5.696  18.405  0.00  0.00    +0.000 C 
ATOM      6  C   UNL     1       6.515   5.265  16.977  0.00  0.00    +0.000 A 
ATOM      7  C   UNL     1       7.265   5.821  15.952  0.00  0.00    +0.000 A 
ATOM      8  C   UNL     1       7.132   5.287  14.672  0.00  0.00    +0.000 A 
ATOM      9  C   UNL     1       6.256   4.216  14.446  0.00  0.00    +0.000 A 
ATOM     10 BR   UNL     1       6.080   3.527  12.691  0.00  0.00    +0.000 Br
ATOM     11  C   UNL     1       5.511   3.651  15.487  0.00  0.00    +0.000 A 
ATOM     12  C   UNL     1       5.656   4.182  16.758  0.00  0.00    +0.000 A 
ENDROOT
BRANCH   1  16
ATOM     13  C   UNL     1       1.100   2.680  22.220  0.00  0.00    +0.000 C 
ATOM     14  C   UNL     1       2.193   2.566  21.230  0.00  0.00    +0.000 A 
ATOM     15  C   UNL     1       2.154   2.806  19.839  0.00  0.00    +0.000 A 
ATOM     16  C   UNL     1       3.457   2.643  19.421  0.00  0.00    +0.000 A 
ATOM     17  O   UNL     1       4.198   2.233  20.487  0.00  0.00    +0.000 OA
ATOM     18  N   UNL     1       3.420   2.213  21.627  0.00  0.00    +0.000 NA
ENDBRANCH   1  16
TORSDOF 1
ENDMDL
