MODEL 1
REMARK VINA RESULT:      -7.1      0.000      0.000
REMARK  Name = 
REMARK  7 active torsions:
REMARK  status: ('A' for Active; 'I' for Inactive)
REMARK    1  A    between atoms: C_1  and  N_2
REMARK    2  A    between atoms: N_5  and  C_6
REMARK    3  A    between atoms: C_6  and  C_7
REMARK    4  A    between atoms: C_8  and  C_9
REMARK    5  A    between atoms: C_9  and  C_10
REMARK    6  A    between atoms: C_9  and  O_11
REMARK    7  A    between atoms: C_9  and  C_12
REMARK                            x       y       z     vdW  Elec       q    Type
REMARK                         _______ _______ _______ _____ _____    ______ ____
ROOT
ATOM      1  C   UNL     1       5.902   5.152  15.555  0.00  0.00    +0.000 C 
ATOM      2  C   UNL     1       6.564   4.320  14.431  0.00  0.00    +0.000 C 
ENDROOT
BRANCH   1   3
ATOM      3  C   UNL     1       7.034   5.666  16.497  0.00  0.00    +0.000 C 
ATOM      4  C   UNL     1       7.693   4.619  17.419  0.00  0.00    +0.000 C 
ATOM      5  C   UNL     1       7.659   5.322  18.791  0.00  0.00    +0.000 C 
ATOM      6  C   UNL     1       6.221   5.435  19.221  0.00  0.00    +0.000 C 
ATOM      7  C   UNL     1       5.639   6.379  18.405  0.00  0.00    +0.000 C 
ATOM      8  C   UNL     1       6.706   6.826  17.466  0.00  0.00    +0.000 C 
ATOM      9  C   UNL     1       7.924   6.772  18.397  0.00  0.00    +0.000 C 
ENDBRANCH   1   3
BRANCH   1  11
ATOM     10  C   UNL     1       3.918   3.464  16.647  0.00  0.00    +0.000 C 
ATOM     11  C   UNL     1       4.834   4.244  16.143  0.00  0.00    +0.000 C 
BRANCH  10  12
ATOM     12  C   UNL     1       2.850   2.555  17.233  0.00  0.00    +0.000 C 
BRANCH  12  17
ATOM     13  C   UNL     1       2.166   3.312  22.027  0.00  0.00    +0.000 C 
ATOM     14  N   UNL     1       1.704   3.581  20.661  0.00  0.00    +0.000 NA
ATOM     15  C   UNL     1       1.308   2.328  19.990  0.00  0.00    +0.000 C 
ATOM     16  C   UNL     1       0.761   2.648  18.592  0.00  0.00    +0.000 C 
ATOM     17  N   UNL     1       1.745   3.388  17.765  0.00  0.00    +0.000 NA
ATOM     18  C   UNL     1       2.219   4.596  18.477  0.00  0.00    +0.000 C 
ATOM     19  C   UNL     1       2.749   4.265  19.878  0.00  0.00    +0.000 C 
ENDBRANCH  12  17
ENDBRANCH  10  12
ENDBRANCH   1  11
BRANCH   1  20
ATOM     20  O   UNL     1       5.277   6.278  14.986  0.00  0.00    +0.000 OA
ATOM     21  H   UNL     1       5.593   7.091  15.467  0.00  0.00    +0.000 HD
ENDBRANCH   1  20
TORSDOF 5
ENDMDL
MODEL 2
REMARK VINA RESULT:      -6.6      4.672      6.615
REMARK  Name = 
REMARK  7 active torsions:
REMARK  status: ('A' for Active; 'I' for Inactive)
REMARK    1  A    between atoms: C_1  and  N_2
REMARK    2  A    between atoms: N_5  and  C_6
REMARK    3  A    between atoms: C_6  and  C_7
REMARK    4  A    between atoms: C_8  and  C_9
REMARK    5  A    between atoms: C_9  and  C_10
REMARK    6  A    between atoms: C_9  and  O_11
REMARK    7  A    between atoms: C_9  and  C_12
REMARK                            x       y       z     vdW  Elec       q    Type
REMARK                         _______ _______ _______ _____ _____    ______ ____
ROOT
ATOM      1  C   UNL     1       3.575   5.616  18.837  0.00  0.00    +0.000 C 
ATOM      2  C   UNL     1       4.030   6.201  17.479  0.00  0.00    +0.000 C 
ENDROOT
BRANCH   1   3
ATOM      3  C   UNL     1       2.968   4.204  18.567  0.00  0.00    +0.000 C 
ATOM      4  C   UNL     1       1.471   4.157  18.196  0.00  0.00    +0.000 C 
ATOM      5  C   UNL     1       0.933   3.064  19.141  0.00  0.00    +0.000 C 
ATOM      6  C   UNL     1       1.014   3.584  20.550  0.00  0.00    +0.000 C 
ATOM      7  C   UNL     1       2.350   3.615  20.883  0.00  0.00    +0.000 C 
ATOM      8  C   UNL     1       3.085   3.136  19.679  0.00  0.00    +0.000 C 
ATOM      9  C   UNL     1       2.099   2.080  19.163  0.00  0.00    +0.000 C 
ENDBRANCH   1   3
BRANCH   1  11
ATOM     10  C   UNL     1       1.908   7.595  19.967  0.00  0.00    +0.000 C 
ATOM     11  C   UNL     1       2.678   6.681  19.445  0.00  0.00    +0.000 C 
BRANCH  10  12
ATOM     12  C   UNL     1       1.012   8.661  20.576  0.00  0.00    +0.000 C 
BRANCH  12  17
ATOM     13  C   UNL     1      -2.488  11.559  18.737  0.00  0.00    +0.000 C 
ATOM     14  N   UNL     1      -1.054  11.365  18.985  0.00  0.00    +0.000 NA
ATOM     15  C   UNL     1      -0.562  10.168  18.278  0.00  0.00    +0.000 C 
ATOM     16  C   UNL     1       0.951  10.033  18.495  0.00  0.00    +0.000 C 
ATOM     17  N   UNL     1       1.304   9.964  19.934  0.00  0.00    +0.000 NA
ATOM     18  C   UNL     1       0.729  11.115  20.665  0.00  0.00    +0.000 C 
ATOM     19  C   UNL     1      -0.782  11.248  20.428  0.00  0.00    +0.000 C 
ENDBRANCH  12  17
ENDBRANCH  10  12
ENDBRANCH   1  11
BRANCH   1  20
ATOM     20  O   UNL     1       4.701   5.444  19.664  0.00  0.00    +0.000 OA
ATOM     21  H   UNL     1       5.198   6.305  19.703  0.00  0.00    +0.000 HD
ENDBRANCH   1  20
TORSDOF 5
ENDMDL
MODEL 3
REMARK VINA RESULT:      -6.6      4.844      6.632
REMARK  Name = 
REMARK  7 active torsions:
REMARK  status: ('A' for Active; 'I' for Inactive)
REMARK    1  A    between atoms: C_1  and  N_2
REMARK    2  A    between atoms: N_5  and  C_6
REMARK    3  A    between atoms: C_6  and  C_7
REMARK    4  A    between atoms: C_8  and  C_9
REMARK    5  A    between atoms: C_9  and  C_10
REMARK    6  A    between atoms: C_9  and  O_11
REMARK    7  A    between atoms: C_9  and  C_12
REMARK                            x       y       z     vdW  Elec       q    Type
REMARK                         _______ _______ _______ _____ _____    ______ ____
ROOT
ATOM      1  C   UNL     1       3.609   5.840  18.904  0.00  0.00    +0.000 C 
ATOM      2  C   UNL     1       4.297   6.427  17.650  0.00  0.00    +0.000 C 
ENDROOT
BRANCH   1   3
ATOM      3  C   UNL     1       3.073   4.422  18.534  0.00  0.00    +0.000 C 
ATOM      4  C   UNL     1       1.645   4.353  17.954  0.00  0.00    +0.000 C 
ATOM      5  C   UNL     1       1.000   3.238  18.799  0.00  0.00    +0.000 C 
ATOM      6  C   UNL     1       0.871   3.738  20.212  0.00  0.00    +0.000 C 
ATOM      7  C   UNL     1       2.145   3.787  20.732  0.00  0.00    +0.000 C 
ATOM      8  C   UNL     1       3.053   3.339  19.638  0.00  0.00    +0.000 C 
ATOM      9  C   UNL     1       2.170   2.274  18.974  0.00  0.00    +0.000 C 
ENDBRANCH   1   3
BRANCH   1  11
ATOM     10  C   UNL     1       1.745   7.804  19.707  0.00  0.00    +0.000 C 
ATOM     11  C   UNL     1       2.606   6.897  19.337  0.00  0.00    +0.000 C 
BRANCH  10  12
ATOM     12  C   UNL     1       0.743   8.862  20.139  0.00  0.00    +0.000 C 
BRANCH  12  17
ATOM     13  C   UNL     1      -1.885  11.559  23.277  0.00  0.00    +0.000 C 
ATOM     14  N   UNL     1      -0.550  11.148  22.825  0.00  0.00    +0.000 NA
ATOM     15  C   UNL     1      -0.329  11.551  21.424  0.00  0.00    +0.000 C 
ATOM     16  C   UNL     1       1.098  11.174  21.004  0.00  0.00    +0.000 C 
ATOM     17  N   UNL     1       1.364   9.724  21.172  0.00  0.00    +0.000 NA
ATOM     18  C   UNL     1       1.050   9.295  22.553  0.00  0.00    +0.000 C 
ATOM     19  C   UNL     1      -0.375   9.691  22.966  0.00  0.00    +0.000 C 
ENDBRANCH  12  17
ENDBRANCH  10  12
ENDBRANCH   1  11
BRANCH   1  20
ATOM     20  O   UNL     1       4.567   5.680  19.923  0.00  0.00    +0.000 OA
ATOM     21  H   UNL     1       5.472   5.691  19.509  0.00  0.00    +0.000 HD
ENDBRANCH   1  20
TORSDOF 5
ENDMDL
MODEL 4
REMARK VINA RESULT:      -6.5      4.652      6.458
REMARK  Name = 
REMARK  7 active torsions:
REMARK  status: ('A' for Active; 'I' for Inactive)
REMARK    1  A    between atoms: C_1  and  N_2
REMARK    2  A    between atoms: N_5  and  C_6
REMARK    3  A    between atoms: C_6  and  C_7
REMARK    4  A    between atoms: C_8  and  C_9
REMARK    5  A    between atoms: C_9  and  C_10
REMARK    6  A    between atoms: C_9  and  O_11
REMARK    7  A    between atoms: C_9  and  C_12
REMARK                            x       y       z     vdW  Elec       q    Type
REMARK                         _______ _______ _______ _____ _____    ______ ____
ROOT
ATOM      1  C   UNL     1       3.820   5.532  18.287  0.00  0.00    +0.000 C 
ATOM      2  C   UNL     1       4.673   5.482  16.997  0.00  0.00    +0.000 C 
ENDROOT
BRANCH   1   3
ATOM      3  C   UNL     1       3.088   4.162  18.427  0.00  0.00    +0.000 C 
ATOM      4  C   UNL     1       1.606   4.125  17.997  0.00  0.00    +0.000 C 
ATOM      5  C   UNL     1       0.934   3.429  19.197  0.00  0.00    +0.000 C 
ATOM      6  C   UNL     1       1.019   4.353  20.381  0.00  0.00    +0.000 C 
ATOM      7  C   UNL     1       2.340   4.376  20.770  0.00  0.00    +0.000 C 
ATOM      8  C   UNL     1       3.064   3.487  19.818  0.00  0.00    +0.000 C 
ATOM      9  C   UNL     1       1.997   2.408  19.592  0.00  0.00    +0.000 C 
ENDBRANCH   1   3
BRANCH   1  11
ATOM     10  C   UNL     1       2.251   7.867  18.041  0.00  0.00    +0.000 C 
ATOM     11  C   UNL     1       2.976   6.790  18.154  0.00  0.00    +0.000 C 
BRANCH  10  12
ATOM     12  C   UNL     1       1.406   9.124  17.908  0.00  0.00    +0.000 C 
BRANCH  12  17
ATOM     13  C   UNL     1      -2.074  12.032  19.768  0.00  0.00    +0.000 C 
ATOM     14  N   UNL     1      -0.693  11.544  19.869  0.00  0.00    +0.000 NA
ATOM     15  C   UNL     1       0.072  11.896  18.659  0.00  0.00    +0.000 C 
ATOM     16  C   UNL     1       1.528  11.440  18.825  0.00  0.00    +0.000 C 
ATOM     17  N   UNL     1       1.628   9.984  19.094  0.00  0.00    +0.000 NA
ATOM     18  C   UNL     1       0.783   9.610  20.250  0.00  0.00    +0.000 C 
ATOM     19  C   UNL     1      -0.666  10.085  20.079  0.00  0.00    +0.000 C 
ENDBRANCH  12  17
ENDBRANCH  10  12
ENDBRANCH   1  11
BRANCH   1  20
ATOM     20  O   UNL     1       4.674   5.674  19.397  0.00  0.00    +0.000 OA
ATOM     21  H   UNL     1       4.767   6.643  19.602  0.00  0.00    +0.000 HD
ENDBRANCH   1  20
TORSDOF 5
ENDMDL
MODEL 5
REMARK VINA RESULT:      -6.5      4.961      6.943
REMARK  Name = 
REMARK  7 active torsions:
REMARK  status: ('A' for Active; 'I' for Inactive)
REMARK    1  A    between atoms: C_1  and  N_2
REMARK    2  A    between atoms: N_5  and  C_6
REMARK    3  A    between atoms: C_6  and  C_7
REMARK    4  A    between atoms: C_8  and  C_9
REMARK    5  A    between atoms: C_9  and  C_10
REMARK    6  A    between atoms: C_9  and  O_11
REMARK    7  A    between atoms: C_9  and  C_12
REMARK                            x       y       z     vdW  Elec       q    Type
REMARK                         _______ _______ _______ _____ _____    ______ ____
ROOT
ATOM      1  C   UNL     1       2.881   5.792  18.745  0.00  0.00    +0.000 C 
ATOM      2  C   UNL     1       3.769   5.370  17.551  0.00  0.00    +0.000 C 
ENDROOT
BRANCH   1   3
ATOM      3  C   UNL     1       1.752   4.725  18.898  0.00  0.00    +0.000 C 
ATOM      4  C   UNL     1       1.172   4.533  20.315  0.00  0.00    +0.000 C 
ATOM      5  C   UNL     1       1.211   3.001  20.480  0.00  0.00    +0.000 C 
ATOM      6  C   UNL     1       2.653   2.574  20.540  0.00  0.00    +0.000 C 
ATOM      7  C   UNL     1       3.165   2.736  19.272  0.00  0.00    +0.000 C 
ATOM      8  C   UNL     1       2.051   3.277  18.444  0.00  0.00    +0.000 C 
ATOM      9  C   UNL     1       0.864   2.533  19.070  0.00  0.00    +0.000 C 
ENDBRANCH   1   3
BRANCH   1  11
ATOM     10  C   UNL     1       2.134   8.460  18.199  0.00  0.00    +0.000 C 
ATOM     11  C   UNL     1       2.478   7.228  18.451  0.00  0.00    +0.000 C 
BRANCH  10  12
ATOM     12  C   UNL     1       1.733   9.897  17.907  0.00  0.00    +0.000 C 
BRANCH  12  17
ATOM     13  C   UNL     1      -2.563  11.950  19.070  0.00  0.00    +0.000 C 
ATOM     14  N   UNL     1      -1.182  11.668  19.480  0.00  0.00    +0.000 NA
ATOM     15  C   UNL     1      -0.226  12.300  18.552  0.00  0.00    +0.000 C 
ATOM     16  C   UNL     1       1.206  12.052  19.046  0.00  0.00    +0.000 C 
ATOM     17  N   UNL     1       1.503  10.605  19.188  0.00  0.00    +0.000 NA
ATOM     18  C   UNL     1       0.488   9.948  20.042  0.00  0.00    +0.000 C 
ATOM     19  C   UNL     1      -0.939  10.216  19.546  0.00  0.00    +0.000 C 
ENDBRANCH  12  17
ENDBRANCH  10  12
ENDBRANCH   1  11
BRANCH   1  20
ATOM     20  O   UNL     1       3.651   5.768  19.922  0.00  0.00    +0.000 OA
ATOM     21  H   UNL     1       4.217   6.586  19.946  0.00  0.00    +0.000 HD
ENDBRANCH   1  20
TORSDOF 5
ENDMDL
MODEL 6
REMARK VINA RESULT:      -6.5      4.478      6.552
REMARK  Name = 
REMARK  7 active torsions:
REMARK  status: ('A' for Active; 'I' for Inactive)
REMARK    1  A    between atoms: C_1  and  N_2
REMARK    2  A    between atoms: N_5  and  C_6
REMARK    3  A    between atoms: C_6  and  C_7
REMARK    4  A    between atoms: C_8  and  C_9
REMARK    5  A    between atoms: C_9  and  C_10
REMARK    6  A    between atoms: C_9  and  O_11
REMARK    7  A    between atoms: C_9  and  C_12
REMARK                            x       y       z     vdW  Elec       q    Type
REMARK                         _______ _______ _______ _____ _____    ______ ____
ROOT
ATOM      1  C   UNL     1       3.701   5.404  18.691  0.00  0.00    +0.000 C 
ATOM      2  C   UNL     1       4.154   5.908  17.300  0.00  0.00    +0.000 C 
ENDROOT
BRANCH   1   3
ATOM      3  C   UNL     1       3.011   4.019  18.494  0.00  0.00    +0.000 C 
ATOM      4  C   UNL     1       1.532   4.040  18.054  0.00  0.00    +0.000 C 
ATOM      5  C   UNL     1       0.880   3.059  19.047  0.00  0.00    +0.000 C 
ATOM      6  C   UNL     1       0.934   3.677  20.418  0.00  0.00    +0.000 C 
ATOM      7  C   UNL     1       2.252   3.646  20.813  0.00  0.00    +0.000 C 
ATOM      8  C   UNL     1       3.006   3.031  19.684  0.00  0.00    +0.000 C 
ATOM      9  C   UNL     1       1.974   2.006  19.197  0.00  0.00    +0.000 C 
ENDBRANCH   1   3
BRANCH   1  11
ATOM     10  C   UNL     1       2.171   7.515  19.776  0.00  0.00    +0.000 C 
ATOM     11  C   UNL     1       2.878   6.541  19.275  0.00  0.00    +0.000 C 
BRANCH  10  12
ATOM     12  C   UNL     1       1.347   8.651  20.360  0.00  0.00    +0.000 C 
BRANCH  12  17
ATOM     13  C   UNL     1       1.910  13.272  18.826  0.00  0.00    +0.000 C 
ATOM     14  N   UNL     1       1.180  12.007  18.680  0.00  0.00    +0.000 NA
ATOM     15  C   UNL     1       0.478  11.666  19.931  0.00  0.00    +0.000 C 
ATOM     16  C   UNL     1      -0.335  10.380  19.726  0.00  0.00    +0.000 C 
ATOM     17  N   UNL     1       0.517   9.248  19.287  0.00  0.00    +0.000 NA
ATOM     18  C   UNL     1       1.298   9.620  18.087  0.00  0.00    +0.000 C 
ATOM     19  C   UNL     1       2.094  10.915  18.299  0.00  0.00    +0.000 C 
ENDBRANCH  12  17
ENDBRANCH  10  12
ENDBRANCH   1  11
BRANCH   1  20
ATOM     20  O   UNL     1       4.836   5.204  19.499  0.00  0.00    +0.000 OA
ATOM     21  H   UNL     1       4.575   5.345  20.449  0.00  0.00    +0.000 HD
ENDBRANCH   1  20
TORSDOF 5
ENDMDL
MODEL 7
REMARK VINA RESULT:      -6.4      4.576      6.272
REMARK  Name = 
REMARK  7 active torsions:
REMARK  status: ('A' for Active; 'I' for Inactive)
REMARK    1  A    between atoms: C_1  and  N_2
REMARK    2  A    between atoms: N_5  and  C_6
REMARK    3  A    between atoms: C_6  and  C_7
REMARK    4  A    between atoms: C_8  and  C_9
REMARK    5  A    between atoms: C_9  and  C_10
REMARK    6  A    between atoms: C_9  and  O_11
REMARK    7  A    between atoms: C_9  and  C_12
REMARK                            x       y       z     vdW  Elec       q    Type
REMARK                         _______ _______ _______ _____ _____    ______ ____
ROOT
ATOM      1  C   UNL     1       3.965   5.463  18.254  0.00  0.00    +0.000 C 
ATOM      2  C   UNL     1       4.691   5.314  16.896  0.00  0.00    +0.000 C 
ENDROOT
BRANCH   1   3
ATOM      3  C   UNL     1       3.114   4.175  18.482  0.00  0.00    +0.000 C 
ATOM      4  C   UNL     1       1.618   4.262  18.111  0.00  0.00    +0.000 C 
ATOM      5  C   UNL     1       0.936   3.682  19.365  0.00  0.00    +0.000 C 
ATOM      6  C   UNL     1       1.156   4.641  20.504  0.00  0.00    +0.000 C 
ATOM      7  C   UNL     1       2.489   4.553  20.840  0.00  0.00    +0.000 C 
ATOM      8  C   UNL     1       3.086   3.562  19.901  0.00  0.00    +0.000 C 
ATOM      9  C   UNL     1       1.915   2.581  19.764  0.00  0.00    +0.000 C 
ENDBRANCH   1   3
BRANCH   1  11
ATOM     10  C   UNL     1       2.622   7.943  18.099  0.00  0.00    +0.000 C 
ATOM     11  C   UNL     1       3.241   6.798  18.171  0.00  0.00    +0.000 C 
BRANCH  10  12
ATOM     12  C   UNL     1       1.899   9.278  18.016  0.00  0.00    +0.000 C 
BRANCH  12  17
ATOM     13  C   UNL     1       0.185  12.999  20.705  0.00  0.00    +0.000 C 
ATOM     14  N   UNL     1      -0.016  11.622  20.240  0.00  0.00    +0.000 NA
ATOM     15  C   UNL     1       1.084  10.753  20.697  0.00  0.00    +0.000 C 
ATOM     16  C   UNL     1       0.809   9.309  20.258  0.00  0.00    +0.000 C 
ATOM     17  N   UNL     1       0.638   9.195  18.790  0.00  0.00    +0.000 NA
ATOM     18  C   UNL     1      -0.399  10.137  18.313  0.00  0.00    +0.000 C 
ATOM     19  C   UNL     1      -0.121  11.575  18.770  0.00  0.00    +0.000 C 
ENDBRANCH  12  17
ENDBRANCH  10  12
ENDBRANCH   1  11
BRANCH   1  20
ATOM     20  O   UNL     1       4.922   5.529  19.283  0.00  0.00    +0.000 OA
ATOM     21  H   UNL     1       5.208   6.477  19.389  0.00  0.00    +0.000 HD
ENDBRANCH   1  20
TORSDOF 5
ENDMDL
MODEL 8
REMARK VINA RESULT:      -6.4      5.181      7.175
REMARK  Name = 
REMARK  7 active torsions:
REMARK  status: ('A' for Active; 'I' for Inactive)
REMARK    1  A    between atoms: C_1  and  N_2
REMARK    2  A    between atoms: N_5  and  C_6
REMARK    3  A    between atoms: C_6  and  C_7
REMARK    4  A    between atoms: C_8  and  C_9
REMARK    5  A    between atoms: C_9  and  C_10
REMARK    6  A    between atoms: C_9  and  O_11
REMARK    7  A    between atoms: C_9  and  C_12
REMARK                            x       y       z     vdW  Elec       q    Type
REMARK                         _______ _______ _______ _____ _____    ______ ____
ROOT
ATOM      1  C   UNL     1       9.076  11.178  18.364  0.00  0.00    +0.000 C 
ATOM      2  C   UNL     1       8.034  11.990  17.559  0.00  0.00    +0.000 C 
ENDROOT
BRANCH   1   3
ATOM      3  C   UNL     1      10.492  11.564  17.835  0.00  0.00    +0.000 C 
ATOM      4  C   UNL     1      11.647  11.517  18.857  0.00  0.00    +0.000 C 
ATOM      5  C   UNL     1      12.333  12.880  18.639  0.00  0.00    +0.000 C 
ATOM      6  C   UNL     1      11.390  13.958  19.100  0.00  0.00    +0.000 C 
ATOM      7  C   UNL     1      10.366  14.006  18.180  0.00  0.00    +0.000 C 
ATOM      8  C   UNL     1      10.669  12.950  17.172  0.00  0.00    +0.000 C 
ATOM      9  C   UNL     1      12.199  13.050  17.129  0.00  0.00    +0.000 C 
ENDBRANCH   1   3
BRANCH   1  11
ATOM     10  C   UNL     1       8.251   8.487  18.130  0.00  0.00    +0.000 C 
ATOM     11  C   UNL     1       8.631   9.729  18.238  0.00  0.00    +0.000 C 
BRANCH  10  12
ATOM     12  C   UNL     1       7.805   7.039  18.004  0.00  0.00    +0.000 C 
BRANCH  12  17
ATOM     13  C   UNL     1       4.318   3.609  17.687  0.00  0.00    +0.000 C 
ATOM     14  N   UNL     1       4.984   4.750  17.048  0.00  0.00    +0.000 NA
ATOM     15  C   UNL     1       6.410   4.456  16.816  0.00  0.00    +0.000 C 
ATOM     16  C   UNL     1       7.062   5.635  16.081  0.00  0.00    +0.000 C 
ATOM     17  N   UNL     1       6.912   6.908  16.828  0.00  0.00    +0.000 NA
ATOM     18  C   UNL     1       5.489   7.159  17.148  0.00  0.00    +0.000 C 
ATOM     19  C   UNL     1       4.845   5.966  17.869  0.00  0.00    +0.000 C 
ENDBRANCH  12  17
ENDBRANCH  10  12
ENDBRANCH   1  11
BRANCH   1  20
ATOM     20  O   UNL     1       9.009  11.557  19.718  0.00  0.00    +0.000 OA
ATOM     21  H   UNL     1       8.258  11.065  20.147  0.00  0.00    +0.000 HD
ENDBRANCH   1  20
TORSDOF 5
ENDMDL
MODEL 9
REMARK VINA RESULT:      -6.4      4.754      6.772
REMARK  Name = 
REMARK  7 active torsions:
REMARK  status: ('A' for Active; 'I' for Inactive)
REMARK    1  A    between atoms: C_1  and  N_2
REMARK    2  A    between atoms: N_5  and  C_6
REMARK    3  A    between atoms: C_6  and  C_7
REMARK    4  A    between atoms: C_8  and  C_9
REMARK    5  A    between atoms: C_9  and  C_10
REMARK    6  A    between atoms: C_9  and  O_11
REMARK    7  A    between atoms: C_9  and  C_12
REMARK                            x       y       z     vdW  Elec       q    Type
REMARK                         _______ _______ _______ _____ _____    ______ ____
ROOT
ATOM      1  C   UNL     1       3.290   5.604  19.214  0.00  0.00    +0.000 C 
ATOM      2  C   UNL     1       2.733   5.259  17.813  0.00  0.00    +0.000 C 
ENDROOT
BRANCH   1   3
ATOM      3  C   UNL     1       3.254   4.303  20.074  0.00  0.00    +0.000 C 
ATOM      4  C   UNL     1       3.188   2.968  19.303  0.00  0.00    +0.000 C 
ATOM      5  C   UNL     1       2.038   2.232  20.019  0.00  0.00    +0.000 C 
ATOM      6  C   UNL     1       0.758   2.967  19.725  0.00  0.00    +0.000 C 
ATOM      7  C   UNL     1       0.815   4.152  20.424  0.00  0.00    +0.000 C 
ATOM      8  C   UNL     1       2.130   4.154  21.125  0.00  0.00    +0.000 C 
ATOM      9  C   UNL     1       2.255   2.664  21.466  0.00  0.00    +0.000 C 
ENDBRANCH   1   3
BRANCH   1  11
ATOM     10  C   UNL     1       1.772   7.821  20.084  0.00  0.00    +0.000 C 
ATOM     11  C   UNL     1       2.473   6.798  19.682  0.00  0.00    +0.000 C 
BRANCH  10  12
ATOM     12  C   UNL     1       0.953   9.014  20.551  0.00  0.00    +0.000 C 
BRANCH  12  17
ATOM     13  C   UNL     1      -2.663  11.646  18.547  0.00  0.00    +0.000 C 
ATOM     14  N   UNL     1      -1.215  11.445  18.681  0.00  0.00    +0.000 NA
ATOM     15  C   UNL     1      -0.826  10.116  18.175  0.00  0.00    +0.000 C 
ATOM     16  C   UNL     1       0.698   9.964  18.259  0.00  0.00    +0.000 C 
ATOM     17  N   UNL     1       1.202  10.157  19.641  0.00  0.00    +0.000 NA
ATOM     18  C   UNL     1       0.731  11.449  20.189  0.00  0.00    +0.000 C 
ATOM     19  C   UNL     1      -0.793  11.595  20.085  0.00  0.00    +0.000 C 
ENDBRANCH  12  17
ENDBRANCH  10  12
ENDBRANCH   1  11
BRANCH   1  20
ATOM     20  O   UNL     1       4.636   5.996  19.090  0.00  0.00    +0.000 OA
ATOM     21  H   UNL     1       4.666   6.980  18.944  0.00  0.00    +0.000 HD
ENDBRANCH   1  20
TORSDOF 5
ENDMDL
