MODEL 1
REMARK VINA RESULT:      -7.7      0.000      0.000
REMARK  Name = 
REMARK  8 active torsions:
REMARK  status: ('A' for Active; 'I' for Inactive)
REMARK    1  A    between atoms: C_1  and  C_2
REMARK    2  A    between atoms: C_2  and  C_3
REMARK    3  A    between atoms: C_3  and  S_4
REMARK    4  A    between atoms: S_4  and  N_7
REMARK    5  A    between atoms: C_14  and  O_15
REMARK    6  A    between atoms: O_15  and  C_16
REMARK    7  A    between atoms: C_16  and  C_17
REMARK    8  A    between atoms: C_21  and  C_23
REMARK                            x       y       z     vdW  Elec       q    Type
REMARK                         _______ _______ _______ _____ _____    ______ ____
ROOT
ATOM      1  N   UNL     1       4.101   4.946  17.713  0.00  0.00    +0.000 NA
ATOM      2  C   UNL     1       2.755   4.844  18.408  0.00  0.00    +0.000 C 
ATOM      3  C   UNL     1       2.557   6.004  19.404  0.00  0.00    +0.000 C 
ATOM      4  N   UNL     1       2.622   7.248  18.632  0.00  0.00    +0.000 N 
ATOM      5  C   UNL     1       1.849   8.304  19.066  0.00  0.00    +0.000 A 
ATOM      6  C   UNL     1       1.445   9.256  18.138  0.00  0.00    +0.000 A 
ATOM      7  C   UNL     1       0.490  10.207  18.484  0.00  0.00    +0.000 A 
ATOM      8  C   UNL     1      -0.021  10.216  19.771  0.00  0.00    +0.000 A 
ATOM      9  C   UNL     1       0.456   9.259  20.653  0.00  0.00    +0.000 A 
ATOM     10  N   UNL     1       1.364   8.308  20.326  0.00  0.00    +0.000 NA
ATOM     11  C   UNL     1       3.877   7.485  17.906  0.00  0.00    +0.000 C 
ATOM     12  C   UNL     1       4.168   6.272  16.983  0.00  0.00    +0.000 C 
ENDROOT
BRANCH   1  13
ATOM     13  S   UNL     1       5.381   4.579  18.763  0.00  0.00    +0.000 S 
ATOM     14  O   UNL     1       5.271   3.169  19.085  0.00  0.00    +0.000 OA
ATOM     15  O   UNL     1       5.423   5.572  19.814  0.00  0.00    +0.000 OA
BRANCH  13  16
ATOM     16  C   UNL     1       6.875   4.766  17.776  0.00  0.00    +0.000 C 
BRANCH  16  18
ATOM     17  C   UNL     1       7.597   7.228  17.661  0.00  0.00    +0.000 C 
ATOM     18  C   UNL     1       7.675   5.913  18.404  0.00  0.00    +0.000 C 
ENDBRANCH  16  18
ENDBRANCH  13  16
ENDBRANCH   1  13
BRANCH   8  19
ATOM     19  O   UNL     1      -1.000  11.054  20.212  0.00  0.00    +0.000 OA
BRANCH  19  20
ATOM     20  C   UNL     1      -0.572  12.388  20.491  0.00  0.00    +0.000 C 
BRANCH  20  21
ATOM     21  C   UNL     1      -0.353  12.528  22.002  0.00  0.00    +0.000 C 
ATOM     22  C   UNL     1      -1.333  11.647  22.797  0.00  0.00    +0.000 C 
ATOM     23  C   UNL     1      -2.763  12.190  22.761  0.00  0.00    +0.000 C 
ATOM     24  N   UNL     1      -2.797  13.597  23.153  0.00  0.00    +0.000 N 
ATOM     25  C   UNL     1      -3.488  13.966  24.326  0.00  0.00    +0.000 C 
ATOM     26  O   UNL     1      -3.977  13.113  25.058  0.00  0.00    +0.000 OA
ATOM     27  C   UNL     1      -1.914  14.479  22.385  0.00  0.00    +0.000 C 
ATOM     28  C   UNL     1      -0.474  13.985  22.461  0.00  0.00    +0.000 C 
BRANCH  25  29
ATOM     29  C   UNL     1      -3.580  15.376  24.660  0.00  0.00    +0.000 A 
ATOM     30  C   UNL     1      -4.647  16.254  24.561  0.00  0.00    +0.000 A 
ATOM     31  C   UNL     1      -4.199  17.501  25.064  0.00  0.00    +0.000 A 
ATOM     32  C   UNL     1      -2.880  17.324  25.400  0.00  0.00    +0.000 A 
ATOM     33  O   UNL     1      -2.484  16.063  25.105  0.00  0.00    +0.000 OA
ENDBRANCH  25  29
ENDBRANCH  20  21
ENDBRANCH  19  20
ENDBRANCH   8  19
TORSDOF 7
ENDMDL
MODEL 2
REMARK VINA RESULT:      -7.6      3.635      4.806
REMARK  Name = 
REMARK  8 active torsions:
REMARK  status: ('A' for Active; 'I' for Inactive)
REMARK    1  A    between atoms: C_1  and  C_2
REMARK    2  A    between atoms: C_2  and  C_3
REMARK    3  A    between atoms: C_3  and  S_4
REMARK    4  A    between atoms: S_4  and  N_7
REMARK    5  A    between atoms: C_14  and  O_15
REMARK    6  A    between atoms: O_15  and  C_16
REMARK    7  A    between atoms: C_16  and  C_17
REMARK    8  A    between atoms: C_21  and  C_23
REMARK                            x       y       z     vdW  Elec       q    Type
REMARK                         _______ _______ _______ _____ _____    ______ ____
ROOT
ATOM      1  N   UNL     1       6.587   4.583  16.589  0.00  0.00    +0.000 NA
ATOM      2  C   UNL     1       6.655   5.789  17.511  0.00  0.00    +0.000 C 
ATOM      3  C   UNL     1       5.314   6.551  17.525  0.00  0.00    +0.000 C 
ATOM      4  N   UNL     1       4.296   5.615  18.011  0.00  0.00    +0.000 N 
ATOM      5  C   UNL     1       3.252   6.139  18.743  0.00  0.00    +0.000 A 
ATOM      6  C   UNL     1       2.602   5.316  19.654  0.00  0.00    +0.000 A 
ATOM      7  C   UNL     1       1.698   5.858  20.564  0.00  0.00    +0.000 A 
ATOM      8  C   UNL     1       1.429   7.216  20.523  0.00  0.00    +0.000 A 
ATOM      9  C   UNL     1       2.088   7.968  19.563  0.00  0.00    +0.000 A 
ATOM     10  N   UNL     1       2.991   7.462  18.688  0.00  0.00    +0.000 NA
ATOM     11  C   UNL     1       4.115   4.396  17.211  0.00  0.00    +0.000 C 
ATOM     12  C   UNL     1       5.479   3.670  17.073  0.00  0.00    +0.000 C 
ENDROOT
BRANCH   1  13
ATOM     13  S   UNL     1       6.553   5.039  14.957  0.00  0.00    +0.000 S 
ATOM     14  O   UNL     1       7.901   5.441  14.603  0.00  0.00    +0.000 OA
ATOM     15  O   UNL     1       5.439   5.937  14.744  0.00  0.00    +0.000 OA
BRANCH  13  16
ATOM     16  C   UNL     1       6.213   3.523  14.047  0.00  0.00    +0.000 C 
BRANCH  16  18
ATOM     17  C   UNL     1       5.192   2.915  11.770  0.00  0.00    +0.000 C 
ATOM     18  C   UNL     1       5.244   3.896  12.919  0.00  0.00    +0.000 C 
ENDBRANCH  16  18
ENDBRANCH  13  16
ENDBRANCH   1  13
BRANCH   8  19
ATOM     19  O   UNL     1       0.614   7.872  21.394  0.00  0.00    +0.000 OA
BRANCH  19  20
ATOM     20  C   UNL     1       0.929   9.251  21.592  0.00  0.00    +0.000 C 
BRANCH  20  21
ATOM     21  C   UNL     1      -0.340  10.082  21.372  0.00  0.00    +0.000 C 
ATOM     22  C   UNL     1      -0.770  10.073  19.894  0.00  0.00    +0.000 C 
ATOM     23  C   UNL     1       0.161  10.911  19.014  0.00  0.00    +0.000 C 
ATOM     24  N   UNL     1       0.329  12.254  19.562  0.00  0.00    +0.000 N 
ATOM     25  C   UNL     1      -0.136  13.361  18.822  0.00  0.00    +0.000 C 
ATOM     26  O   UNL     1      -0.755  13.198  17.775  0.00  0.00    +0.000 OA
ATOM     27  C   UNL     1       0.786  12.306  20.954  0.00  0.00    +0.000 C 
ATOM     28  C   UNL     1      -0.166  11.526  21.854  0.00  0.00    +0.000 C 
BRANCH  25  29
ATOM     29  C   UNL     1       0.108  14.694  19.343  0.00  0.00    +0.000 A 
ATOM     30  C   UNL     1      -0.747  15.578  19.981  0.00  0.00    +0.000 A 
ATOM     31  C   UNL     1       0.022  16.720  20.316  0.00  0.00    +0.000 A 
ATOM     32  C   UNL     1       1.284  16.486  19.828  0.00  0.00    +0.000 A 
ATOM     33  O   UNL     1       1.328  15.293  19.189  0.00  0.00    +0.000 OA
ENDBRANCH  25  29
ENDBRANCH  20  21
ENDBRANCH  19  20
ENDBRANCH   8  19
TORSDOF 7
ENDMDL
MODEL 3
REMARK VINA RESULT:      -7.6      3.515     11.926
REMARK  Name = 
REMARK  8 active torsions:
REMARK  status: ('A' for Active; 'I' for Inactive)
REMARK    1  A    between atoms: C_1  and  C_2
REMARK    2  A    between atoms: C_2  and  C_3
REMARK    3  A    between atoms: C_3  and  S_4
REMARK    4  A    between atoms: S_4  and  N_7
REMARK    5  A    between atoms: C_14  and  O_15
REMARK    6  A    between atoms: O_15  and  C_16
REMARK    7  A    between atoms: C_16  and  C_17
REMARK    8  A    between atoms: C_21  and  C_23
REMARK                            x       y       z     vdW  Elec       q    Type
REMARK                         _______ _______ _______ _____ _____    ______ ____
ROOT
ATOM      1  N   UNL     1       1.387  14.690  20.007  0.00  0.00    +0.000 NA
ATOM      2  C   UNL     1       2.008  13.617  20.885  0.00  0.00    +0.000 C 
ATOM      3  C   UNL     1       1.259  12.278  20.737  0.00  0.00    +0.000 C 
ATOM      4  N   UNL     1       1.363  11.883  19.329  0.00  0.00    +0.000 N 
ATOM      5  C   UNL     1       1.416  10.534  19.051  0.00  0.00    +0.000 A 
ATOM      6  C   UNL     1       2.041  10.121  17.881  0.00  0.00    +0.000 A 
ATOM      7  C   UNL     1       2.311   8.772  17.672  0.00  0.00    +0.000 A 
ATOM      8  C   UNL     1       1.914   7.847  18.623  0.00  0.00    +0.000 A 
ATOM      9  C   UNL     1       1.263   8.329  19.748  0.00  0.00    +0.000 A 
ATOM     10  N   UNL     1       1.017   9.641  19.982  0.00  0.00    +0.000 NA
ATOM     11  C   UNL     1       0.796  12.828  18.357  0.00  0.00    +0.000 C 
ATOM     12  C   UNL     1       1.442  14.223  18.566  0.00  0.00    +0.000 C 
ENDROOT
BRANCH   1  13
ATOM     13  S   UNL     1      -0.121  15.192  20.597  0.00  0.00    +0.000 S 
ATOM     14  O   UNL     1      -1.074  14.153  20.255  0.00  0.00    +0.000 OA
ATOM     15  O   UNL     1      -0.351  16.562  20.192  0.00  0.00    +0.000 OA
BRANCH  13  16
ATOM     16  C   UNL     1       0.038  15.172  22.390  0.00  0.00    +0.000 C 
BRANCH  16  18
ATOM     17  C   UNL     1      -1.471  14.557  24.375  0.00  0.00    +0.000 C 
ATOM     18  C   UNL     1      -1.383  15.073  22.956  0.00  0.00    +0.000 C 
ENDBRANCH  16  18
ENDBRANCH  13  16
ENDBRANCH   1  13
BRANCH   8  19
ATOM     19  O   UNL     1       2.173   6.512  18.563  0.00  0.00    +0.000 OA
BRANCH  19  20
ATOM     20  C   UNL     1       3.121   6.037  19.521  0.00  0.00    +0.000 C 
BRANCH  20  21
ATOM     21  C   UNL     1       3.661   4.683  19.049  0.00  0.00    +0.000 C 
ATOM     22  C   UNL     1       5.079   4.423  19.589  0.00  0.00    +0.000 C 
ATOM     23  C   UNL     1       6.131   5.297  18.903  0.00  0.00    +0.000 C 
ATOM     24  N   UNL     1       6.034   5.187  17.450  0.00  0.00    +0.000 N 
ATOM     25  C   UNL     1       7.113   4.634  16.729  0.00  0.00    +0.000 C 
ATOM     26  O   UNL     1       8.083   4.167  17.317  0.00  0.00    +0.000 OA
ATOM     27  C   UNL     1       4.710   5.477  16.891  0.00  0.00    +0.000 C 
ATOM     28  C   UNL     1       3.658   4.571  17.521  0.00  0.00    +0.000 C 
BRANCH  25  29
ATOM     29  C   UNL     1       7.034   4.604  15.280  0.00  0.00    +0.000 A 
ATOM     30  C   UNL     1       6.300   3.784  14.438  0.00  0.00    +0.000 A 
ATOM     31  C   UNL     1       6.564   4.216  13.115  0.00  0.00    +0.000 A 
ATOM     32  C   UNL     1       7.471   5.241  13.222  0.00  0.00    +0.000 A 
ATOM     33  O   UNL     1       7.803   5.442  14.520  0.00  0.00    +0.000 OA
ENDBRANCH  25  29
ENDBRANCH  20  21
ENDBRANCH  19  20
ENDBRANCH   8  19
TORSDOF 7
ENDMDL
MODEL 4
REMARK VINA RESULT:      -7.5      3.738     12.046
REMARK  Name = 
REMARK  8 active torsions:
REMARK  status: ('A' for Active; 'I' for Inactive)
REMARK    1  A    between atoms: C_1  and  C_2
REMARK    2  A    between atoms: C_2  and  C_3
REMARK    3  A    between atoms: C_3  and  S_4
REMARK    4  A    between atoms: S_4  and  N_7
REMARK    5  A    between atoms: C_14  and  O_15
REMARK    6  A    between atoms: O_15  and  C_16
REMARK    7  A    between atoms: C_16  and  C_17
REMARK    8  A    between atoms: C_21  and  C_23
REMARK                            x       y       z     vdW  Elec       q    Type
REMARK                         _______ _______ _______ _____ _____    ______ ____
ROOT
ATOM      1  N   UNL     1       0.178  13.350  19.859  0.00  0.00    +0.000 NA
ATOM      2  C   UNL     1       1.222  12.714  20.762  0.00  0.00    +0.000 C 
ATOM      3  C   UNL     1       0.876  11.241  21.056  0.00  0.00    +0.000 C 
ATOM      4  N   UNL     1       0.846  10.543  19.768  0.00  0.00    +0.000 N 
ATOM      5  C   UNL     1       1.235   9.220  19.754  0.00  0.00    +0.000 A 
ATOM      6  C   UNL     1       1.743   8.690  18.575  0.00  0.00    +0.000 A 
ATOM      7  C   UNL     1       2.349   7.437  18.577  0.00  0.00    +0.000 A 
ATOM      8  C   UNL     1       2.403   6.713  19.756  0.00  0.00    +0.000 A 
ATOM      9  C   UNL     1       1.844   7.291  20.885  0.00  0.00    +0.000 A 
ATOM     10  N   UNL     1       1.275   8.521  20.908  0.00  0.00    +0.000 NA
ATOM     11  C   UNL     1      -0.127  11.049  18.789  0.00  0.00    +0.000 C 
ATOM     12  C   UNL     1       0.118  12.564  18.565  0.00  0.00    +0.000 C 
ENDROOT
BRANCH   1  13
ATOM     13  S   UNL     1      -1.286  13.606  20.674  0.00  0.00    +0.000 S 
ATOM     14  O   UNL     1      -1.818  14.869  20.197  0.00  0.00    +0.000 OA
ATOM     15  O   UNL     1      -1.082  13.382  22.088  0.00  0.00    +0.000 OA
BRANCH  13  16
ATOM     16  C   UNL     1      -2.396  12.322  20.073  0.00  0.00    +0.000 C 
BRANCH  16  18
ATOM     17  C   UNL     1      -4.844  12.149  19.313  0.00  0.00    +0.000 C 
ATOM     18  C   UNL     1      -3.811  12.911  20.113  0.00  0.00    +0.000 C 
ENDBRANCH  16  18
ENDBRANCH  13  16
ENDBRANCH   1  13
BRANCH   8  19
ATOM     19  O   UNL     1       3.021   5.508  19.899  0.00  0.00    +0.000 OA
BRANCH  19  20
ATOM     20  C   UNL     1       2.972   4.665  18.747  0.00  0.00    +0.000 C 
BRANCH  20  21
ATOM     21  C   UNL     1       4.353   4.030  18.544  0.00  0.00    +0.000 C 
ATOM     22  C   UNL     1       5.480   5.059  18.739  0.00  0.00    +0.000 C 
ATOM     23  C   UNL     1       5.559   6.059  17.583  0.00  0.00    +0.000 C 
ATOM     24  N   UNL     1       5.619   5.368  16.298  0.00  0.00    +0.000 N 
ATOM     25  C   UNL     1       6.774   5.501  15.499  0.00  0.00    +0.000 C 
ATOM     26  O   UNL     1       7.753   6.111  15.913  0.00  0.00    +0.000 OA
ATOM     27  C   UNL     1       4.533   4.414  16.052  0.00  0.00    +0.000 C 
ATOM     28  C   UNL     1       4.479   3.373  17.165  0.00  0.00    +0.000 C 
BRANCH  25  29
ATOM     29  C   UNL     1       6.786   4.872  14.190  0.00  0.00    +0.000 A 
ATOM     30  C   UNL     1       6.122   3.748  13.729  0.00  0.00    +0.000 A 
ATOM     31  C   UNL     1       6.460   3.606  12.360  0.00  0.00    +0.000 A 
ATOM     32  C   UNL     1       7.339   4.621  12.078  0.00  0.00    +0.000 A 
ATOM     33  O   UNL     1       7.586   5.354  13.191  0.00  0.00    +0.000 OA
ENDBRANCH  25  29
ENDBRANCH  20  21
ENDBRANCH  19  20
ENDBRANCH   8  19
TORSDOF 7
ENDMDL
MODEL 5
REMARK VINA RESULT:      -7.4      3.109     11.935
REMARK  Name = 
REMARK  8 active torsions:
REMARK  status: ('A' for Active; 'I' for Inactive)
REMARK    1  A    between atoms: C_1  and  C_2
REMARK    2  A    between atoms: C_2  and  C_3
REMARK    3  A    between atoms: C_3  and  S_4
REMARK    4  A    between atoms: S_4  and  N_7
REMARK    5  A    between atoms: C_14  and  O_15
REMARK    6  A    between atoms: O_15  and  C_16
REMARK    7  A    between atoms: C_16  and  C_17
REMARK    8  A    between atoms: C_21  and  C_23
REMARK                            x       y       z     vdW  Elec       q    Type
REMARK                         _______ _______ _______ _____ _____    ______ ____
ROOT
ATOM      1  N   UNL     1      -0.678  13.602  20.527  0.00  0.00    +0.000 NA
ATOM      2  C   UNL     1       0.360  12.903  21.389  0.00  0.00    +0.000 C 
ATOM      3  C   UNL     1       0.151  11.376  21.378  0.00  0.00    +0.000 C 
ATOM      4  N   UNL     1       0.288  10.936  19.987  0.00  0.00    +0.000 N 
ATOM      5  C   UNL     1       0.816   9.681  19.768  0.00  0.00    +0.000 A 
ATOM      6  C   UNL     1       1.461   9.432  18.563  0.00  0.00    +0.000 A 
ATOM      7  C   UNL     1       2.194   8.262  18.391  0.00  0.00    +0.000 A 
ATOM      8  C   UNL     1       2.240   7.336  19.419  0.00  0.00    +0.000 A 
ATOM      9  C   UNL     1       1.543   7.635  20.579  0.00  0.00    +0.000 A 
ATOM     10  N   UNL     1       0.847   8.781  20.774  0.00  0.00    +0.000 NA
ATOM     11  C   UNL     1      -0.659  11.528  19.032  0.00  0.00    +0.000 C 
ATOM     12  C   UNL     1      -0.561  13.074  19.111  0.00  0.00    +0.000 C 
ENDROOT
BRANCH   1  13
ATOM     13  S   UNL     1      -2.216  13.565  21.238  0.00  0.00    +0.000 S 
ATOM     14  O   UNL     1      -2.766  12.247  20.984  0.00  0.00    +0.000 OA
ATOM     15  O   UNL     1      -2.942  14.753  20.846  0.00  0.00    +0.000 OA
BRANCH  13  16
ATOM     16  C   UNL     1      -1.923  13.666  23.012  0.00  0.00    +0.000 C 
BRANCH  16  18
ATOM     17  C   UNL     1      -4.203  13.941  24.161  0.00  0.00    +0.000 C 
ATOM     18  C   UNL     1      -2.982  14.617  23.579  0.00  0.00    +0.000 C 
ENDBRANCH  16  18
ENDBRANCH  13  16
ENDBRANCH   1  13
BRANCH   8  19
ATOM     19  O   UNL     1       2.970   6.186  19.396  0.00  0.00    +0.000 OA
BRANCH  19  20
ATOM     20  C   UNL     1       2.200   4.982  19.407  0.00  0.00    +0.000 C 
BRANCH  20  21
ATOM     21  C   UNL     1       3.119   3.808  19.052  0.00  0.00    +0.000 C 
ATOM     22  C   UNL     1       4.486   3.931  19.748  0.00  0.00    +0.000 C 
ATOM     23  C   UNL     1       5.350   5.038  19.139  0.00  0.00    +0.000 C 
ATOM     24  N   UNL     1       5.447   4.887  17.689  0.00  0.00    +0.000 N 
ATOM     25  C   UNL     1       6.705   4.622  17.109  0.00  0.00    +0.000 C 
ATOM     26  O   UNL     1       7.690   4.430  17.814  0.00  0.00    +0.000 OA
ATOM     27  C   UNL     1       4.164   4.816  16.983  0.00  0.00    +0.000 C 
ATOM     28  C   UNL     1       3.315   3.677  17.538  0.00  0.00    +0.000 C 
BRANCH  25  29
ATOM     29  C   UNL     1       6.799   4.553  15.662  0.00  0.00    +0.000 A 
ATOM     30  C   UNL     1       6.162   3.714  14.761  0.00  0.00    +0.000 A 
ATOM     31  C   UNL     1       6.586   4.107  13.467  0.00  0.00    +0.000 A 
ATOM     32  C   UNL     1       7.483   5.129  13.654  0.00  0.00    +0.000 A 
ATOM     33  O   UNL     1       7.661   5.363  14.977  0.00  0.00    +0.000 OA
ENDBRANCH  25  29
ENDBRANCH  20  21
ENDBRANCH  19  20
ENDBRANCH   8  19
TORSDOF 7
ENDMDL
MODEL 6
REMARK VINA RESULT:      -7.4      3.560      4.973
REMARK  Name = 
REMARK  8 active torsions:
REMARK  status: ('A' for Active; 'I' for Inactive)
REMARK    1  A    between atoms: C_1  and  C_2
REMARK    2  A    between atoms: C_2  and  C_3
REMARK    3  A    between atoms: C_3  and  S_4
REMARK    4  A    between atoms: S_4  and  N_7
REMARK    5  A    between atoms: C_14  and  O_15
REMARK    6  A    between atoms: O_15  and  C_16
REMARK    7  A    between atoms: C_16  and  C_17
REMARK    8  A    between atoms: C_21  and  C_23
REMARK                            x       y       z     vdW  Elec       q    Type
REMARK                         _______ _______ _______ _____ _____    ______ ____
ROOT
ATOM      1  N   UNL     1       3.438   3.918  17.729  0.00  0.00    +0.000 NA
ATOM      2  C   UNL     1       2.018   4.320  18.088  0.00  0.00    +0.000 C 
ATOM      3  C   UNL     1       2.011   5.497  19.083  0.00  0.00    +0.000 C 
ATOM      4  N   UNL     1       2.689   6.618  18.426  0.00  0.00    +0.000 N 
ATOM      5  C   UNL     1       2.258   7.890  18.735  0.00  0.00    +0.000 A 
ATOM      6  C   UNL     1       2.446   8.900  17.801  0.00  0.00    +0.000 A 
ATOM      7  C   UNL     1       1.833  10.137  17.977  0.00  0.00    +0.000 A 
ATOM      8  C   UNL     1       1.069  10.359  19.110  0.00  0.00    +0.000 A 
ATOM      9  C   UNL     1       0.956   9.317  20.017  0.00  0.00    +0.000 A 
ATOM     10  N   UNL     1       1.522   8.097  19.848  0.00  0.00    +0.000 NA
ATOM     11  C   UNL     1       4.081   6.374  18.023  0.00  0.00    +0.000 C 
ATOM     12  C   UNL     1       4.137   5.115  17.118  0.00  0.00    +0.000 C 
ENDROOT
BRANCH   1  13
ATOM     13  S   UNL     1       4.220   3.145  19.019  0.00  0.00    +0.000 S 
ATOM     14  O   UNL     1       5.570   3.673  19.071  0.00  0.00    +0.000 OA
ATOM     15  O   UNL     1       3.990   1.720  18.921  0.00  0.00    +0.000 OA
BRANCH  13  16
ATOM     16  C   UNL     1       3.383   3.731  20.502  0.00  0.00    +0.000 C 
BRANCH  16  18
ATOM     17  C   UNL     1       1.304   2.759  21.656  0.00  0.00    +0.000 C 
ATOM     18  C   UNL     1       2.702   2.511  21.132  0.00  0.00    +0.000 C 
ENDBRANCH  16  18
ENDBRANCH  13  16
ENDBRANCH   1  13
BRANCH   8  19
ATOM     19  O   UNL     1       0.373  11.501  19.366  0.00  0.00    +0.000 OA
BRANCH  19  20
ATOM     20  C   UNL     1       0.711  12.152  20.592  0.00  0.00    +0.000 C 
BRANCH  20  21
ATOM     21  C   UNL     1       1.862  13.131  20.329  0.00  0.00    +0.000 C 
ATOM     22  C   UNL     1       1.940  14.214  21.419  0.00  0.00    +0.000 C 
ATOM     23  C   UNL     1       0.800  15.229  21.312  0.00  0.00    +0.000 C 
ATOM     24  N   UNL     1       0.709  15.771  19.959  0.00  0.00    +0.000 N 
ATOM     25  C   UNL     1       0.946  17.146  19.752  0.00  0.00    +0.000 C 
ATOM     26  O   UNL     1       1.314  17.862  20.677  0.00  0.00    +0.000 OA
ATOM     27  C   UNL     1       0.582  14.771  18.894  0.00  0.00    +0.000 C 
ATOM     28  C   UNL     1       1.745  13.787  18.949  0.00  0.00    +0.000 C 
BRANCH  25  29
ATOM     29  C   UNL     1       0.775  17.685  18.415  0.00  0.00    +0.000 A 
ATOM     30  C   UNL     1      -0.347  18.215  17.799  0.00  0.00    +0.000 A 
ATOM     31  C   UNL     1       0.056  18.630  16.505  0.00  0.00    +0.000 A 
ATOM     32  C   UNL     1       1.382  18.294  16.392  0.00  0.00    +0.000 A 
ATOM     33  O   UNL     1       1.807  17.671  17.518  0.00  0.00    +0.000 OA
ENDBRANCH  25  29
ENDBRANCH  20  21
ENDBRANCH  19  20
ENDBRANCH   8  19
TORSDOF 7
ENDMDL
MODEL 7
REMARK VINA RESULT:      -7.4      2.252      3.412
REMARK  Name = 
REMARK  8 active torsions:
REMARK  status: ('A' for Active; 'I' for Inactive)
REMARK    1  A    between atoms: C_1  and  C_2
REMARK    2  A    between atoms: C_2  and  C_3
REMARK    3  A    between atoms: C_3  and  S_4
REMARK    4  A    between atoms: S_4  and  N_7
REMARK    5  A    between atoms: C_14  and  O_15
REMARK    6  A    between atoms: O_15  and  C_16
REMARK    7  A    between atoms: C_16  and  C_17
REMARK    8  A    between atoms: C_21  and  C_23
REMARK                            x       y       z     vdW  Elec       q    Type
REMARK                         _______ _______ _______ _____ _____    ______ ____
ROOT
ATOM      1  N   UNL     1       3.310   3.950  17.768  0.00  0.00    +0.000 NA
ATOM      2  C   UNL     1       1.914   4.368  18.196  0.00  0.00    +0.000 C 
ATOM      3  C   UNL     1       1.968   5.555  19.179  0.00  0.00    +0.000 C 
ATOM      4  N   UNL     1       2.621   6.663  18.476  0.00  0.00    +0.000 N 
ATOM      5  C   UNL     1       2.217   7.942  18.795  0.00  0.00    +0.000 A 
ATOM      6  C   UNL     1       2.365   8.942  17.843  0.00  0.00    +0.000 A 
ATOM      7  C   UNL     1       1.773  10.186  18.038  0.00  0.00    +0.000 A 
ATOM      8  C   UNL     1       1.070  10.425  19.208  0.00  0.00    +0.000 A 
ATOM      9  C   UNL     1       0.995   9.392  20.129  0.00  0.00    +0.000 A 
ATOM     10  N   UNL     1       1.541   8.165  19.943  0.00  0.00    +0.000 NA
ATOM     11  C   UNL     1       3.988   6.404  18.005  0.00  0.00    +0.000 C 
ATOM     12  C   UNL     1       3.986   5.136  17.110  0.00  0.00    +0.000 C 
ENDROOT
BRANCH   1  13
ATOM     13  S   UNL     1       4.150   3.183  19.024  0.00  0.00    +0.000 S 
ATOM     14  O   UNL     1       5.500   3.713  19.013  0.00  0.00    +0.000 OA
ATOM     15  O   UNL     1       3.920   1.757  18.939  0.00  0.00    +0.000 OA
BRANCH  13  16
ATOM     16  C   UNL     1       3.379   3.770  20.541  0.00  0.00    +0.000 C 
BRANCH  16  18
ATOM     17  C   UNL     1       1.330   2.634  21.594  0.00  0.00    +0.000 C 
ATOM     18  C   UNL     1       2.799   2.538  21.244  0.00  0.00    +0.000 C 
ENDBRANCH  16  18
ENDBRANCH  13  16
ENDBRANCH   1  13
BRANCH   8  19
ATOM     19  O   UNL     1       0.398  11.575  19.488  0.00  0.00    +0.000 OA
BRANCH  19  20
ATOM     20  C   UNL     1      -0.054  11.697  20.838  0.00  0.00    +0.000 C 
BRANCH  20  21
ATOM     21  C   UNL     1      -0.725  13.064  21.011  0.00  0.00    +0.000 C 
ATOM     22  C   UNL     1      -0.936  13.403  22.497  0.00  0.00    +0.000 C 
ATOM     23  C   UNL     1      -2.047  12.565  23.133  0.00  0.00    +0.000 C 
ATOM     24  N   UNL     1      -3.272  12.636  22.341  0.00  0.00    +0.000 N 
ATOM     25  C   UNL     1      -4.423  13.223  22.907  0.00  0.00    +0.000 C 
ATOM     26  O   UNL     1      -4.376  13.749  24.014  0.00  0.00    +0.000 OA
ATOM     27  C   UNL     1      -3.123  12.271  20.928  0.00  0.00    +0.000 C 
ATOM     28  C   UNL     1      -2.061  13.140  20.265  0.00  0.00    +0.000 C 
BRANCH  25  29
ATOM     29  C   UNL     1      -5.654  13.216  22.137  0.00  0.00    +0.000 A 
ATOM     30  C   UNL     1      -6.267  14.227  21.415  0.00  0.00    +0.000 A 
ATOM     31  C   UNL     1      -7.424  13.663  20.823  0.00  0.00    +0.000 A 
ATOM     32  C   UNL     1      -7.474  12.359  21.249  0.00  0.00    +0.000 A 
ATOM     33  O   UNL     1      -6.442  12.099  22.088  0.00  0.00    +0.000 OA
ENDBRANCH  25  29
ENDBRANCH  20  21
ENDBRANCH  19  20
ENDBRANCH   8  19
TORSDOF 7
ENDMDL
MODEL 8
REMARK VINA RESULT:      -7.4      3.698     11.929
REMARK  Name = 
REMARK  8 active torsions:
REMARK  status: ('A' for Active; 'I' for Inactive)
REMARK    1  A    between atoms: C_1  and  C_2
REMARK    2  A    between atoms: C_2  and  C_3
REMARK    3  A    between atoms: C_3  and  S_4
REMARK    4  A    between atoms: S_4  and  N_7
REMARK    5  A    between atoms: C_14  and  O_15
REMARK    6  A    between atoms: O_15  and  C_16
REMARK    7  A    between atoms: C_16  and  C_17
REMARK    8  A    between atoms: C_21  and  C_23
REMARK                            x       y       z     vdW  Elec       q    Type
REMARK                         _______ _______ _______ _____ _____    ______ ____
ROOT
ATOM      1  N   UNL     1       0.695  13.643  19.855  0.00  0.00    +0.000 NA
ATOM      2  C   UNL     1       1.630  12.886  20.782  0.00  0.00    +0.000 C 
ATOM      3  C   UNL     1       1.096  11.469  21.070  0.00  0.00    +0.000 C 
ATOM      4  N   UNL     1       1.009  10.774  19.782  0.00  0.00    +0.000 N 
ATOM      5  C   UNL     1       1.231   9.414  19.779  0.00  0.00    +0.000 A 
ATOM      6  C   UNL     1       1.696   8.819  18.613  0.00  0.00    +0.000 A 
ATOM      7  C   UNL     1       2.141   7.501  18.630  0.00  0.00    +0.000 A 
ATOM      8  C   UNL     1       2.078   6.781  19.811  0.00  0.00    +0.000 A 
ATOM      9  C   UNL     1       1.569   7.428  20.926  0.00  0.00    +0.000 A 
ATOM     10  N   UNL     1       1.158   8.720  20.935  0.00  0.00    +0.000 NA
ATOM     11  C   UNL     1       0.130  11.393  18.781  0.00  0.00    +0.000 C 
ATOM     12  C   UNL     1       0.567  12.866  18.561  0.00  0.00    +0.000 C 
ENDROOT
BRANCH   1  13
ATOM     13  S   UNL     1      -0.745  14.083  20.635  0.00  0.00    +0.000 S 
ATOM     14  O   UNL     1      -0.688  13.524  21.971  0.00  0.00    +0.000 OA
ATOM     15  O   UNL     1      -1.860  13.789  19.761  0.00  0.00    +0.000 OA
BRANCH  13  16
ATOM     16  C   UNL     1      -0.657  15.872  20.823  0.00  0.00    +0.000 C 
BRANCH  16  18
ATOM     17  C   UNL     1      -2.384  17.414  19.712  0.00  0.00    +0.000 C 
ATOM     18  C   UNL     1      -1.211  16.477  19.529  0.00  0.00    +0.000 C 
ENDBRANCH  16  18
ENDBRANCH  13  16
ENDBRANCH   1  13
BRANCH   8  19
ATOM     19  O   UNL     1       2.537   5.509  19.970  0.00  0.00    +0.000 OA
BRANCH  19  20
ATOM     20  C   UNL     1       2.420   4.676  18.815  0.00  0.00    +0.000 C 
BRANCH  20  21
ATOM     21  C   UNL     1       3.697   3.839  18.681  0.00  0.00    +0.000 C 
ATOM     22  C   UNL     1       4.927   4.600  19.205  0.00  0.00    +0.000 C 
ATOM     23  C   UNL     1       5.347   5.737  18.270  0.00  0.00    +0.000 C 
ATOM     24  N   UNL     1       5.501   5.257  16.900  0.00  0.00    +0.000 N 
ATOM     25  C   UNL     1       6.775   5.299  16.295  0.00  0.00    +0.000 C 
ATOM     26  O   UNL     1       7.760   5.647  16.938  0.00  0.00    +0.000 OA
ATOM     27  C   UNL     1       4.331   4.569  16.346  0.00  0.00    +0.000 C 
ATOM     28  C   UNL     1       3.936   3.394  17.234  0.00  0.00    +0.000 C 
BRANCH  25  29
ATOM     29  C   UNL     1       6.896   4.891  14.907  0.00  0.00    +0.000 A 
ATOM     30  C   UNL     1       6.285   3.855  14.220  0.00  0.00    +0.000 A 
ATOM     31  C   UNL     1       6.729   3.939  12.877  0.00  0.00    +0.000 A 
ATOM     32  C   UNL     1       7.613   4.988  12.831  0.00  0.00    +0.000 A 
ATOM     33  O   UNL     1       7.763   5.530  14.064  0.00  0.00    +0.000 OA
ENDBRANCH  25  29
ENDBRANCH  20  21
ENDBRANCH  19  20
ENDBRANCH   8  19
TORSDOF 7
ENDMDL
MODEL 9
REMARK VINA RESULT:      -7.4      3.470     12.460
REMARK  Name = 
REMARK  8 active torsions:
REMARK  status: ('A' for Active; 'I' for Inactive)
REMARK    1  A    between atoms: C_1  and  C_2
REMARK    2  A    between atoms: C_2  and  C_3
REMARK    3  A    between atoms: C_3  and  S_4
REMARK    4  A    between atoms: S_4  and  N_7
REMARK    5  A    between atoms: C_14  and  O_15
REMARK    6  A    between atoms: O_15  and  C_16
REMARK    7  A    between atoms: C_16  and  C_17
REMARK    8  A    between atoms: C_21  and  C_23
REMARK                            x       y       z     vdW  Elec       q    Type
REMARK                         _______ _______ _______ _____ _____    ______ ____
ROOT
ATOM      1  N   UNL     1      -1.707  13.874  21.188  0.00  0.00    +0.000 NA
ATOM      2  C   UNL     1      -0.658  13.234  22.081  0.00  0.00    +0.000 C 
ATOM      3  C   UNL     1      -0.768  11.697  22.049  0.00  0.00    +0.000 C 
ATOM      4  N   UNL     1      -0.553  11.281  20.660  0.00  0.00    +0.000 N 
ATOM      5  C   UNL     1       0.061  10.065  20.449  0.00  0.00    +0.000 A 
ATOM      6  C   UNL     1       0.763   9.872  19.267  0.00  0.00    +0.000 A 
ATOM      7  C   UNL     1       1.576   8.753  19.111  0.00  0.00    +0.000 A 
ATOM      8  C   UNL     1       1.644   7.819  20.132  0.00  0.00    +0.000 A 
ATOM      9  C   UNL     1       0.888   8.060  21.268  0.00  0.00    +0.000 A 
ATOM     10  N   UNL     1       0.114   9.158  21.448  0.00  0.00    +0.000 NA
ATOM     11  C   UNL     1      -1.502  11.823  19.677  0.00  0.00    +0.000 C 
ATOM     12  C   UNL     1      -1.506  13.371  19.773  0.00  0.00    +0.000 C 
ENDROOT
BRANCH   1  13
ATOM     13  S   UNL     1      -3.264  13.732  21.843  0.00  0.00    +0.000 S 
ATOM     14  O   UNL     1      -3.118  13.756  23.286  0.00  0.00    +0.000 OA
ATOM     15  O   UNL     1      -3.948  12.636  21.192  0.00  0.00    +0.000 OA
BRANCH  13  16
ATOM     16  C   UNL     1      -4.113  15.252  21.387  0.00  0.00    +0.000 C 
BRANCH  16  18
ATOM     17  C   UNL     1      -6.648  15.598  21.150  0.00  0.00    +0.000 C 
ATOM     18  C   UNL     1      -5.420  14.836  20.702  0.00  0.00    +0.000 C 
ENDBRANCH  16  18
ENDBRANCH  13  16
ENDBRANCH   1  13
BRANCH   8  19
ATOM     19  O   UNL     1       2.446   6.719  20.125  0.00  0.00    +0.000 OA
BRANCH  19  20
ATOM     20  C   UNL     1       3.491   6.740  19.151  0.00  0.00    +0.000 C 
BRANCH  20  21
ATOM     21  C   UNL     1       3.884   5.295  18.820  0.00  0.00    +0.000 C 
ATOM     22  C   UNL     1       5.319   4.983  19.280  0.00  0.00    +0.000 C 
ATOM     23  C   UNL     1       6.371   5.670  18.406  0.00  0.00    +0.000 C 
ATOM     24  N   UNL     1       6.140   5.390  16.992  0.00  0.00    +0.000 N 
ATOM     25  C   UNL     1       7.107   4.660  16.269  0.00  0.00    +0.000 C 
ATOM     26  O   UNL     1       8.085   4.187  16.837  0.00  0.00    +0.000 OA
ATOM     27  C   UNL     1       4.798   5.721  16.502  0.00  0.00    +0.000 C 
ATOM     28  C   UNL     1       3.739   4.995  17.324  0.00  0.00    +0.000 C 
BRANCH  25  29
ATOM     29  C   UNL     1       6.900   4.457  14.846  0.00  0.00    +0.000 A 
ATOM     30  C   UNL     1       7.455   5.109  13.757  0.00  0.00    +0.000 A 
ATOM     31  C   UNL     1       6.936   4.481  12.598  0.00  0.00    +0.000 A 
ATOM     32  C   UNL     1       6.067   3.517  13.043  0.00  0.00    +0.000 A 
ATOM     33  O   UNL     1       5.995   3.536  14.395  0.00  0.00    +0.000 OA
ENDBRANCH  25  29
ENDBRANCH  20  21
ENDBRANCH  19  20
ENDBRANCH   8  19
TORSDOF 7
ENDMDL
