MODEL 1
REMARK VINA RESULT:      -7.7      0.000      0.000
REMARK  Name = 
REMARK  5 active torsions:
REMARK  status: ('A' for Active; 'I' for Inactive)
REMARK    1  A    between atoms: O_1  and  C_2
REMARK    2  A    between atoms: C_6  and  C_7
REMARK    3  A    between atoms: C_9  and  C_10
REMARK    4  A    between atoms: C_18  and  C_19
REMARK    5  A    between atoms: C_23  and  O_24
REMARK                            x       y       z     vdW  Elec       q    Type
REMARK                         _______ _______ _______ _____ _____    ______ ____
ROOT
ATOM      1  C   UNL     1       0.796  12.828  18.651  0.00  0.00    +0.000 A 
ATOM      2  C   UNL     1      -0.596  12.919  18.700  0.00  0.00    +0.000 A 
ATOM      3  C   UNL     1      -1.385  11.770  18.818  0.00  0.00    +0.000 A 
ATOM      4  C   UNL     1      -0.705  10.551  18.870  0.00  0.00    +0.000 A 
ATOM      5  C   UNL     1       0.687  10.504  18.800  0.00  0.00    +0.000 A 
ATOM      6  N   UNL     1       1.432  11.632  18.699  0.00  0.00    +0.000 NA
ENDROOT
BRANCH   3   7
ATOM      7  C   UNL     1      -2.866  11.830  18.871  0.00  0.00    +0.000 A 
ATOM      8  C   UNL     1      -3.665  11.200  17.899  0.00  0.00    +0.000 A 
ATOM      9  C   UNL     1      -5.064  11.234  17.969  0.00  0.00    +0.000 A 
ATOM     10  C   UNL     1      -5.688  11.892  19.022  0.00  0.00    +0.000 A 
ATOM     11 CL   UNL     1      -7.404  11.912  19.126  0.00  0.00    +0.000 Cl
ATOM     12  C   UNL     1      -4.929  12.531  19.994  0.00  0.00    +0.000 A 
ATOM     13  C   UNL     1      -3.532  12.507  19.911  0.00  0.00    +0.000 A 
ENDBRANCH   3   7
BRANCH   1  18
ATOM     14  C   UNL     1       3.791  15.062  17.956  0.00  0.00    +0.000 A 
ATOM     15  C   UNL     1       3.327  16.310  18.343  0.00  0.00    +0.000 A 
ATOM     16  C   UNL     1       2.019  16.431  18.809  0.00  0.00    +0.000 A 
ATOM     17  C   UNL     1       1.196  15.300  18.891  0.00  0.00    +0.000 A 
ATOM     18  C   UNL     1       1.657  14.025  18.518  0.00  0.00    +0.000 A 
ATOM     19  C   UNL     1       2.974  13.936  18.031  0.00  0.00    +0.000 A 
BRANCH  14  20
ATOM     20  O   UNL     1       5.062  14.884  17.491  0.00  0.00    +0.000 OA
ATOM     21  H   UNL     1       5.670  14.877  18.249  0.00  0.00    +0.000 HD
ENDBRANCH  14  20
ENDBRANCH   1  18
BRANCH   5  22
ATOM     22  C   UNL     1       1.427   9.225  18.828  0.00  0.00    +0.000 A 
ATOM     23  C   UNL     1       2.188   8.797  17.724  0.00  0.00    +0.000 A 
ATOM     24  C   UNL     1       2.903   7.593  17.754  0.00  0.00    +0.000 A 
ATOM     25  C   UNL     1       2.869   6.786  18.887  0.00  0.00    +0.000 A 
ATOM     26  C   UNL     1       2.119   7.192  19.982  0.00  0.00    +0.000 A 
ATOM     27  C   UNL     1       1.404   8.386  19.958  0.00  0.00    +0.000 A 
BRANCH  26  28
ATOM     28  O   UNL     1       2.048   6.443  21.119  0.00  0.00    +0.000 OA
ATOM     29  H   UNL     1       1.121   6.399  21.403  0.00  0.00    +0.000 HD
ENDBRANCH  26  28
ENDBRANCH   5  22
TORSDOF 5
ENDMDL
MODEL 2
REMARK VINA RESULT:      -7.7      0.088      5.842
REMARK  Name = 
REMARK  5 active torsions:
REMARK  status: ('A' for Active; 'I' for Inactive)
REMARK    1  A    between atoms: O_1  and  C_2
REMARK    2  A    between atoms: C_6  and  C_7
REMARK    3  A    between atoms: C_9  and  C_10
REMARK    4  A    between atoms: C_18  and  C_19
REMARK    5  A    between atoms: C_23  and  O_24
REMARK                            x       y       z     vdW  Elec       q    Type
REMARK                         _______ _______ _______ _____ _____    ______ ____
ROOT
ATOM      1  C   UNL     1       0.646  10.488  18.754  0.00  0.00    +0.000 A 
ATOM      2  C   UNL     1      -0.747  10.531  18.841  0.00  0.00    +0.000 A 
ATOM      3  C   UNL     1      -1.428  11.752  18.801  0.00  0.00    +0.000 A 
ATOM      4  C   UNL     1      -0.642  12.901  18.684  0.00  0.00    +0.000 A 
ATOM      5  C   UNL     1       0.748  12.813  18.619  0.00  0.00    +0.000 A 
ATOM      6  N   UNL     1       1.387  11.619  18.647  0.00  0.00    +0.000 NA
ENDROOT
BRANCH   3   7
ATOM      7  C   UNL     1      -2.906  11.835  18.892  0.00  0.00    +0.000 A 
ATOM      8  C   UNL     1      -3.544  12.523  19.941  0.00  0.00    +0.000 A 
ATOM      9  C   UNL     1      -4.939  12.624  20.007  0.00  0.00    +0.000 A 
ATOM     10  C   UNL     1      -5.723  12.045  19.016  0.00  0.00    +0.000 A 
ATOM     11 CL   UNL     1      -7.435  12.191  19.079  0.00  0.00    +0.000 Cl
ATOM     12  C   UNL     1      -5.126  11.352  17.971  0.00  0.00    +0.000 A 
ATOM     13  C   UNL     1      -3.732  11.240  17.918  0.00  0.00    +0.000 A 
ENDBRANCH   3   7
BRANCH   1  18
ATOM     14  C   UNL     1       2.116   7.207  19.987  0.00  0.00    +0.000 A 
ATOM     15  C   UNL     1       2.904   6.814  18.915  0.00  0.00    +0.000 A 
ATOM     16  C   UNL     1       2.935   7.608  17.771  0.00  0.00    +0.000 A 
ATOM     17  C   UNL     1       2.187   8.792  17.717  0.00  0.00    +0.000 A 
ATOM     18  C   UNL     1       1.397   9.213  18.802  0.00  0.00    +0.000 A 
ATOM     19  C   UNL     1       1.367   8.380  19.935  0.00  0.00    +0.000 A 
BRANCH  14  20
ATOM     20  O   UNL     1       2.046   6.468  21.132  0.00  0.00    +0.000 OA
ATOM     21  H   UNL     1       2.827   5.890  21.174  0.00  0.00    +0.000 HD
ENDBRANCH  14  20
ENDBRANCH   1  18
BRANCH   5  22
ATOM     22  C   UNL     1       1.602  14.016  18.520  0.00  0.00    +0.000 A 
ATOM     23  C   UNL     1       1.129  15.281  18.915  0.00  0.00    +0.000 A 
ATOM     24  C   UNL     1       1.941  16.419  18.837  0.00  0.00    +0.000 A 
ATOM     25  C   UNL     1       3.243  16.320  18.357  0.00  0.00    +0.000 A 
ATOM     26  C   UNL     1       3.722  15.080  17.957  0.00  0.00    +0.000 A 
ATOM     27  C   UNL     1       2.919  13.945  18.031  0.00  0.00    +0.000 A 
BRANCH  26  28
ATOM     28  O   UNL     1       4.988  14.922  17.478  0.00  0.00    +0.000 OA
ATOM     29  H   UNL     1       5.352  14.094  17.832  0.00  0.00    +0.000 HD
ENDBRANCH  26  28
ENDBRANCH   5  22
TORSDOF 5
ENDMDL
MODEL 3
REMARK VINA RESULT:      -7.6      3.201      7.397
REMARK  Name = 
REMARK  5 active torsions:
REMARK  status: ('A' for Active; 'I' for Inactive)
REMARK    1  A    between atoms: O_1  and  C_2
REMARK    2  A    between atoms: C_6  and  C_7
REMARK    3  A    between atoms: C_9  and  C_10
REMARK    4  A    between atoms: C_18  and  C_19
REMARK    5  A    between atoms: C_23  and  O_24
REMARK                            x       y       z     vdW  Elec       q    Type
REMARK                         _______ _______ _______ _____ _____    ______ ____
ROOT
ATOM      1  C   UNL     1      -1.232  11.764  19.003  0.00  0.00    +0.000 A 
ATOM      2  C   UNL     1      -0.648  10.500  19.099  0.00  0.00    +0.000 A 
ATOM      3  C   UNL     1       0.740  10.346  19.030  0.00  0.00    +0.000 A 
ATOM      4  C   UNL     1       1.488  11.513  18.850  0.00  0.00    +0.000 A 
ATOM      5  C   UNL     1       0.862  12.754  18.741  0.00  0.00    +0.000 A 
ATOM      6  N   UNL     1      -0.485  12.881  18.824  0.00  0.00    +0.000 NA
ENDROOT
BRANCH   3   7
ATOM      7  C   UNL     1       1.393   9.019  19.126  0.00  0.00    +0.000 A 
ATOM      8  C   UNL     1       2.077   8.451  18.035  0.00  0.00    +0.000 A 
ATOM      9  C   UNL     1       2.718   7.210  18.139  0.00  0.00    +0.000 A 
ATOM     10  C   UNL     1       2.696   6.519  19.344  0.00  0.00    +0.000 A 
ATOM     11 CL   UNL     1       3.505   5.008  19.484  0.00  0.00    +0.000 Cl
ATOM     12  C   UNL     1       2.025   7.047  20.439  0.00  0.00    +0.000 A 
ATOM     13  C   UNL     1       1.372   8.280  20.325  0.00  0.00    +0.000 A 
ENDBRANCH   3   7
BRANCH   1  18
ATOM     14  C   UNL     1      -4.919  11.745  18.079  0.00  0.00    +0.000 A 
ATOM     15  C   UNL     1      -5.497  12.409  19.151  0.00  0.00    +0.000 A 
ATOM     16  C   UNL     1      -4.684  12.842  20.197  0.00  0.00    +0.000 A 
ATOM     17  C   UNL     1      -3.302  12.615  20.152  0.00  0.00    +0.000 A 
ATOM     18  C   UNL     1      -2.699  11.959  19.064  0.00  0.00    +0.000 A 
ATOM     19  C   UNL     1      -3.547  11.513  18.034  0.00  0.00    +0.000 A 
BRANCH  14  20
ATOM     20  O   UNL     1      -5.667  11.298  17.028  0.00  0.00    +0.000 OA
ATOM     21  H   UNL     1      -6.268  10.606  17.350  0.00  0.00    +0.000 HD
ENDBRANCH  14  20
ENDBRANCH   1  18
BRANCH   5  22
ATOM     22  C   UNL     1       1.630  13.999  18.527  0.00  0.00    +0.000 A 
ATOM     23  C   UNL     1       1.065  15.260  18.793  0.00  0.00    +0.000 A 
ATOM     24  C   UNL     1       1.795  16.440  18.606  0.00  0.00    +0.000 A 
ATOM     25  C   UNL     1       3.106  16.387  18.142  0.00  0.00    +0.000 A 
ATOM     26  C   UNL     1       3.675  15.151  17.869  0.00  0.00    +0.000 A 
ATOM     27  C   UNL     1       2.954  13.974  18.051  0.00  0.00    +0.000 A 
BRANCH  26  28
ATOM     28  O   UNL     1       4.955  15.036  17.413  0.00  0.00    +0.000 OA
ATOM     29  H   UNL     1       4.928  14.838  16.463  0.00  0.00    +0.000 HD
ENDBRANCH  26  28
ENDBRANCH   5  22
TORSDOF 5
ENDMDL
MODEL 4
REMARK VINA RESULT:      -7.5      1.776      6.179
REMARK  Name = 
REMARK  5 active torsions:
REMARK  status: ('A' for Active; 'I' for Inactive)
REMARK    1  A    between atoms: O_1  and  C_2
REMARK    2  A    between atoms: C_6  and  C_7
REMARK    3  A    between atoms: C_9  and  C_10
REMARK    4  A    between atoms: C_18  and  C_19
REMARK    5  A    between atoms: C_23  and  O_24
REMARK                            x       y       z     vdW  Elec       q    Type
REMARK                         _______ _______ _______ _____ _____    ______ ____
ROOT
ATOM      1  C   UNL     1       0.782  10.783  19.600  0.00  0.00    +0.000 A 
ATOM      2  C   UNL     1      -0.371  10.913  20.376  0.00  0.00    +0.000 A 
ATOM      3  C   UNL     1      -0.906  12.174  20.658  0.00  0.00    +0.000 A 
ATOM      4  C   UNL     1      -0.218  13.273  20.135  0.00  0.00    +0.000 A 
ATOM      5  C   UNL     1       0.941  13.098  19.380  0.00  0.00    +0.000 A 
ATOM      6  N   UNL     1       1.434  11.866  19.108  0.00  0.00    +0.000 NA
ENDROOT
BRANCH   3   7
ATOM      7  C   UNL     1      -2.127  12.349  21.480  0.00  0.00    +0.000 A 
ATOM      8  C   UNL     1      -2.130  12.091  22.863  0.00  0.00    +0.000 A 
ATOM      9  C   UNL     1      -3.278  12.286  23.641  0.00  0.00    +0.000 A 
ATOM     10  C   UNL     1      -4.445  12.754  23.047  0.00  0.00    +0.000 A 
ATOM     11 CL   UNL     1      -5.849  13.021  24.004  0.00  0.00    +0.000 Cl
ATOM     12  C   UNL     1      -4.479  13.012  21.683  0.00  0.00    +0.000 A 
ATOM     13  C   UNL     1      -3.333  12.800  20.908  0.00  0.00    +0.000 A 
ENDBRANCH   3   7
BRANCH   1  18
ATOM     14  C   UNL     1       2.064   7.224  19.971  0.00  0.00    +0.000 A 
ATOM     15  C   UNL     1       2.592   6.967  18.714  0.00  0.00    +0.000 A 
ATOM     16  C   UNL     1       2.505   7.949  17.730  0.00  0.00    +0.000 A 
ATOM     17  C   UNL     1       1.901   9.181  18.017  0.00  0.00    +0.000 A 
ATOM     18  C   UNL     1       1.377   9.463  19.292  0.00  0.00    +0.000 A 
ATOM     19  C   UNL     1       1.459   8.445  20.259  0.00  0.00    +0.000 A 
BRANCH  14  20
ATOM     20  O   UNL     1       2.120   6.299  20.973  0.00  0.00    +0.000 OA
ATOM     21  H   UNL     1       3.019   5.931  21.004  0.00  0.00    +0.000 HD
ENDBRANCH  14  20
ENDBRANCH   1  18
BRANCH   5  22
ATOM     22  C   UNL     1       1.698  14.246  18.837  0.00  0.00    +0.000 A 
ATOM     23  C   UNL     1       1.142  15.538  18.807  0.00  0.00    +0.000 A 
ATOM     24  C   UNL     1       1.862  16.630  18.307  0.00  0.00    +0.000 A 
ATOM     25  C   UNL     1       3.154  16.455  17.822  0.00  0.00    +0.000 A 
ATOM     26  C   UNL     1       3.714  15.185  17.839  0.00  0.00    +0.000 A 
ATOM     27  C   UNL     1       3.002  14.095  18.332  0.00  0.00    +0.000 A 
BRANCH  26  28
ATOM     28  O   UNL     1       4.975  14.951  17.376  0.00  0.00    +0.000 OA
ATOM     29  H   UNL     1       5.520  15.735  17.553  0.00  0.00    +0.000 HD
ENDBRANCH  26  28
ENDBRANCH   5  22
TORSDOF 5
ENDMDL
MODEL 5
REMARK VINA RESULT:      -7.5      3.180      6.207
REMARK  Name = 
REMARK  5 active torsions:
REMARK  status: ('A' for Active; 'I' for Inactive)
REMARK    1  A    between atoms: O_1  and  C_2
REMARK    2  A    between atoms: C_6  and  C_7
REMARK    3  A    between atoms: C_9  and  C_10
REMARK    4  A    between atoms: C_18  and  C_19
REMARK    5  A    between atoms: C_23  and  O_24
REMARK                            x       y       z     vdW  Elec       q    Type
REMARK                         _______ _______ _______ _____ _____    ______ ____
ROOT
ATOM      1  C   UNL     1       0.893  12.745  18.672  0.00  0.00    +0.000 A 
ATOM      2  C   UNL     1       1.522  11.506  18.808  0.00  0.00    +0.000 A 
ATOM      3  C   UNL     1       0.773  10.339  18.991  0.00  0.00    +0.000 A 
ATOM      4  C   UNL     1      -0.615  10.492  19.041  0.00  0.00    +0.000 A 
ATOM      5  C   UNL     1      -1.202  11.751  18.919  0.00  0.00    +0.000 A 
ATOM      6  N   UNL     1      -0.456  12.867  18.729  0.00  0.00    +0.000 NA
ENDROOT
BRANCH   3   7
ATOM      7  C   UNL     1       1.409   9.008  19.141  0.00  0.00    +0.000 A 
ATOM      8  C   UNL     1       1.364   8.301  20.357  0.00  0.00    +0.000 A 
ATOM      9  C   UNL     1       1.940   7.031  20.486  0.00  0.00    +0.000 A 
ATOM     10  C   UNL     1       2.563   6.439  19.393  0.00  0.00    +0.000 A 
ATOM     11 CL   UNL     1       3.247   4.869  19.539  0.00  0.00    +0.000 Cl
ATOM     12  C   UNL     1       2.631   7.112  18.180  0.00  0.00    +0.000 A 
ATOM     13  C   UNL     1       2.068   8.389  18.061  0.00  0.00    +0.000 A 
ENDBRANCH   3   7
BRANCH   1  18
ATOM     14  C   UNL     1       3.705  15.175  17.878  0.00  0.00    +0.000 A 
ATOM     15  C   UNL     1       3.142  16.399  18.208  0.00  0.00    +0.000 A 
ATOM     16  C   UNL     1       1.827  16.436  18.667  0.00  0.00    +0.000 A 
ATOM     17  C   UNL     1       1.095  15.249  18.800  0.00  0.00    +0.000 A 
ATOM     18  C   UNL     1       1.658  13.999  18.485  0.00  0.00    +0.000 A 
ATOM     19  C   UNL     1       2.979  13.993  18.003  0.00  0.00    +0.000 A 
BRANCH  14  20
ATOM     20  O   UNL     1       4.988  15.078  17.422  0.00  0.00    +0.000 OA
ATOM     21  H   UNL     1       5.360  15.974  17.355  0.00  0.00    +0.000 HD
ENDBRANCH  14  20
ENDBRANCH   1  18
BRANCH   5  22
ATOM     22  C   UNL     1      -2.666  11.940  18.992  0.00  0.00    +0.000 A 
ATOM     23  C   UNL     1      -3.267  12.553  20.107  0.00  0.00    +0.000 A 
ATOM     24  C   UNL     1      -4.652  12.748  20.173  0.00  0.00    +0.000 A 
ATOM     25  C   UNL     1      -5.469  12.329  19.127  0.00  0.00    +0.000 A 
ATOM     26  C   UNL     1      -4.891  11.717  18.024  0.00  0.00    +0.000 A 
ATOM     27  C   UNL     1      -3.515  11.519  17.953  0.00  0.00    +0.000 A 
BRANCH  26  28
ATOM     28  O   UNL     1      -5.641  11.285  16.970  0.00  0.00    +0.000 OA
ATOM     29  H   UNL     1      -5.537  10.323  16.889  0.00  0.00    +0.000 HD
ENDBRANCH  26  28
ENDBRANCH   5  22
TORSDOF 5
ENDMDL
MODEL 6
REMARK VINA RESULT:      -7.5      0.926      1.600
REMARK  Name = 
REMARK  5 active torsions:
REMARK  status: ('A' for Active; 'I' for Inactive)
REMARK    1  A    between atoms: O_1  and  C_2
REMARK    2  A    between atoms: C_6  and  C_7
REMARK    3  A    between atoms: C_9  and  C_10
REMARK    4  A    between atoms: C_18  and  C_19
REMARK    5  A    between atoms: C_23  and  O_24
REMARK                            x       y       z     vdW  Elec       q    Type
REMARK                         _______ _______ _______ _____ _____    ______ ____
ROOT
ATOM      1  C   UNL     1       0.840  12.835  18.645  0.00  0.00    +0.000 A 
ATOM      2  C   UNL     1      -0.553  12.930  18.669  0.00  0.00    +0.000 A 
ATOM      3  C   UNL     1      -1.347  11.783  18.761  0.00  0.00    +0.000 A 
ATOM      4  C   UNL     1      -0.671  10.560  18.812  0.00  0.00    +0.000 A 
ATOM      5  C   UNL     1       0.722  10.510  18.767  0.00  0.00    +0.000 A 
ATOM      6  N   UNL     1       1.471  11.636  18.691  0.00  0.00    +0.000 NA
ENDROOT
BRANCH   3   7
ATOM      7  C   UNL     1      -2.828  11.847  18.787  0.00  0.00    +0.000 A 
ATOM      8  C   UNL     1      -3.523  12.461  19.846  0.00  0.00    +0.000 A 
ATOM      9  C   UNL     1      -4.921  12.545  19.851  0.00  0.00    +0.000 A 
ATOM     10  C   UNL     1      -5.650  12.025  18.788  0.00  0.00    +0.000 A 
ATOM     11 CL   UNL     1      -7.364  12.151  18.779  0.00  0.00    +0.000 Cl
ATOM     12  C   UNL     1      -4.996  11.406  17.731  0.00  0.00    +0.000 A 
ATOM     13  C   UNL     1      -3.600  11.310  17.738  0.00  0.00    +0.000 A 
ENDBRANCH   3   7
BRANCH   1  18
ATOM     14  C   UNL     1       2.030  16.444  18.647  0.00  0.00    +0.000 A 
ATOM     15  C   UNL     1       3.356  16.320  18.258  0.00  0.00    +0.000 A 
ATOM     16  C   UNL     1       3.874  15.049  18.020  0.00  0.00    +0.000 A 
ATOM     17  C   UNL     1       3.058  13.918  18.163  0.00  0.00    +0.000 A 
ATOM     18  C   UNL     1       1.707  14.030  18.540  0.00  0.00    +0.000 A 
ATOM     19  C   UNL     1       1.217  15.324  18.796  0.00  0.00    +0.000 A 
BRANCH  14  20
ATOM     20  O   UNL     1       1.470  17.664  18.895  0.00  0.00    +0.000 OA
ATOM     21  H   UNL     1       1.944  18.333  18.374  0.00  0.00    +0.000 HD
ENDBRANCH  14  20
ENDBRANCH   1  18
BRANCH   5  22
ATOM     22  C   UNL     1       1.457   9.228  18.796  0.00  0.00    +0.000 A 
ATOM     23  C   UNL     1       2.236   8.809  17.702  0.00  0.00    +0.000 A 
ATOM     24  C   UNL     1       2.947   7.603  17.732  0.00  0.00    +0.000 A 
ATOM     25  C   UNL     1       2.890   6.784  18.856  0.00  0.00    +0.000 A 
ATOM     26  C   UNL     1       2.121   7.181  19.941  0.00  0.00    +0.000 A 
ATOM     27  C   UNL     1       1.410   8.378  19.916  0.00  0.00    +0.000 A 
BRANCH  26  28
ATOM     28  O   UNL     1       2.026   6.420  21.069  0.00  0.00    +0.000 OA
ATOM     29  H   UNL     1       1.477   6.892  21.715  0.00  0.00    +0.000 HD
ENDBRANCH  26  28
ENDBRANCH   5  22
TORSDOF 5
ENDMDL
MODEL 7
REMARK VINA RESULT:      -7.5      3.332      6.356
REMARK  Name = 
REMARK  5 active torsions:
REMARK  status: ('A' for Active; 'I' for Inactive)
REMARK    1  A    between atoms: O_1  and  C_2
REMARK    2  A    between atoms: C_6  and  C_7
REMARK    3  A    between atoms: C_9  and  C_10
REMARK    4  A    between atoms: C_18  and  C_19
REMARK    5  A    between atoms: C_23  and  O_24
REMARK                            x       y       z     vdW  Elec       q    Type
REMARK                         _______ _______ _______ _____ _____    ______ ____
ROOT
ATOM      1  C   UNL     1       0.923  12.851  18.642  0.00  0.00    +0.000 A 
ATOM      2  C   UNL     1       1.576  11.621  18.743  0.00  0.00    +0.000 A 
ATOM      3  C   UNL     1       0.850  10.436  18.896  0.00  0.00    +0.000 A 
ATOM      4  C   UNL     1      -0.541  10.561  18.954  0.00  0.00    +0.000 A 
ATOM      5  C   UNL     1      -1.151  11.811  18.868  0.00  0.00    +0.000 A 
ATOM      6  N   UNL     1      -0.428  12.945  18.706  0.00  0.00    +0.000 NA
ENDROOT
BRANCH   3   7
ATOM      7  C   UNL     1       1.511   9.113  19.009  0.00  0.00    +0.000 A 
ATOM      8  C   UNL     1       1.439   8.349  20.188  0.00  0.00    +0.000 A 
ATOM      9  C   UNL     1       2.040   7.087  20.280  0.00  0.00    +0.000 A 
ATOM     10  C   UNL     1       2.716   6.562  19.185  0.00  0.00    +0.000 A 
ATOM     11 CL   UNL     1       3.431   5.001  19.284  0.00  0.00    +0.000 Cl
ATOM     12  C   UNL     1       2.812   7.292  18.008  0.00  0.00    +0.000 A 
ATOM     13  C   UNL     1       2.224   8.560  17.927  0.00  0.00    +0.000 A 
ENDBRANCH   3   7
BRANCH   1  18
ATOM     14  C   UNL     1       1.775  16.555  18.632  0.00  0.00    +0.000 A 
ATOM     15  C   UNL     1       3.060  16.562  18.111  0.00  0.00    +0.000 A 
ATOM     16  C   UNL     1       3.666  15.350  17.787  0.00  0.00    +0.000 A 
ATOM     17  C   UNL     1       2.974  14.146  17.976  0.00  0.00    +0.000 A 
ATOM     18  C   UNL     1       1.664  14.123  18.487  0.00  0.00    +0.000 A 
ATOM     19  C   UNL     1       1.086  15.361  18.827  0.00  0.00    +0.000 A 
BRANCH  14  20
ATOM     20  O   UNL     1       1.133  17.712  18.969  0.00  0.00    +0.000 OA
ATOM     21  H   UNL     1       0.194  17.511  19.120  0.00  0.00    +0.000 HD
ENDBRANCH  14  20
ENDBRANCH   1  18
BRANCH   5  22
ATOM     22  C   UNL     1      -2.618  11.970  18.951  0.00  0.00    +0.000 A 
ATOM     23  C   UNL     1      -3.226  12.556  20.076  0.00  0.00    +0.000 A 
ATOM     24  C   UNL     1      -4.615  12.723  20.151  0.00  0.00    +0.000 A 
ATOM     25  C   UNL     1      -5.428  12.302  19.104  0.00  0.00    +0.000 A 
ATOM     26  C   UNL     1      -4.844  11.716  17.989  0.00  0.00    +0.000 A 
ATOM     27  C   UNL     1      -3.464  11.546  17.910  0.00  0.00    +0.000 A 
BRANCH  26  28
ATOM     28  O   UNL     1      -5.590  11.284  16.933  0.00  0.00    +0.000 OA
ATOM     29  H   UNL     1      -5.921  12.058  16.450  0.00  0.00    +0.000 HD
ENDBRANCH  26  28
ENDBRANCH   5  22
TORSDOF 5
ENDMDL
MODEL 8
REMARK VINA RESULT:      -7.5      3.354      7.500
REMARK  Name = 
REMARK  5 active torsions:
REMARK  status: ('A' for Active; 'I' for Inactive)
REMARK    1  A    between atoms: O_1  and  C_2
REMARK    2  A    between atoms: C_6  and  C_7
REMARK    3  A    between atoms: C_9  and  C_10
REMARK    4  A    between atoms: C_18  and  C_19
REMARK    5  A    between atoms: C_23  and  O_24
REMARK                            x       y       z     vdW  Elec       q    Type
REMARK                         _______ _______ _______ _____ _____    ______ ____
ROOT
ATOM      1  C   UNL     1      -1.183  11.804  18.920  0.00  0.00    +0.000 A 
ATOM      2  C   UNL     1      -0.573  10.549  18.973  0.00  0.00    +0.000 A 
ATOM      3  C   UNL     1       0.818  10.426  18.893  0.00  0.00    +0.000 A 
ATOM      4  C   UNL     1       1.541  11.614  18.746  0.00  0.00    +0.000 A 
ATOM      5  C   UNL     1       0.889  12.844  18.679  0.00  0.00    +0.000 A 
ATOM      6  N   UNL     1      -0.459  12.941  18.772  0.00  0.00    +0.000 NA
ENDROOT
BRANCH   3   7
ATOM      7  C   UNL     1       1.499   9.110  18.945  0.00  0.00    +0.000 A 
ATOM      8  C   UNL     1       2.237   8.617  17.852  0.00  0.00    +0.000 A 
ATOM      9  C   UNL     1       2.903   7.387  17.916  0.00  0.00    +0.000 A 
ATOM     10  C   UNL     1       2.852   6.632  19.082  0.00  0.00    +0.000 A 
ATOM     11 CL   UNL     1       3.692   5.134  19.173  0.00  0.00    +0.000 Cl
ATOM     12  C   UNL     1       2.127   7.085  20.176  0.00  0.00    +0.000 A 
ATOM     13  C   UNL     1       1.450   8.308  20.101  0.00  0.00    +0.000 A 
ENDBRANCH   3   7
BRANCH   1  18
ATOM     14  C   UNL     1      -4.873  11.738  18.013  0.00  0.00    +0.000 A 
ATOM     15  C   UNL     1      -5.459  12.355  19.108  0.00  0.00    +0.000 A 
ATOM     16  C   UNL     1      -4.650  12.772  20.163  0.00  0.00    +0.000 A 
ATOM     17  C   UNL     1      -3.263  12.576  20.104  0.00  0.00    +0.000 A 
ATOM     18  C   UNL     1      -2.653  11.966  18.993  0.00  0.00    +0.000 A 
ATOM     19  C   UNL     1      -3.497  11.536  17.954  0.00  0.00    +0.000 A 
BRANCH  14  20
ATOM     20  O   UNL     1      -5.617  11.308  16.952  0.00  0.00    +0.000 OA
ATOM     21  H   UNL     1      -5.471  10.354  16.839  0.00  0.00    +0.000 HD
ENDBRANCH  14  20
ENDBRANCH   1  18
BRANCH   5  22
ATOM     22  C   UNL     1       1.630  14.111  18.499  0.00  0.00    +0.000 A 
ATOM     23  C   UNL     1       2.948  14.121  18.005  0.00  0.00    +0.000 A 
ATOM     24  C   UNL     1       3.647  15.320  17.819  0.00  0.00    +0.000 A 
ATOM     25  C   UNL     1       3.047  16.537  18.128  0.00  0.00    +0.000 A 
ATOM     26  C   UNL     1       1.750  16.542  18.622  0.00  0.00    +0.000 A 
ATOM     27  C   UNL     1       1.050  15.354  18.811  0.00  0.00    +0.000 A 
BRANCH  26  28
ATOM     28  O   UNL     1       1.111  17.703  18.943  0.00  0.00    +0.000 OA
ATOM     29  H   UNL     1       1.642  18.177  19.603  0.00  0.00    +0.000 HD
ENDBRANCH  26  28
ENDBRANCH   5  22
TORSDOF 5
ENDMDL
MODEL 9
REMARK VINA RESULT:      -7.5      0.979      5.925
REMARK  Name = 
REMARK  5 active torsions:
REMARK  status: ('A' for Active; 'I' for Inactive)
REMARK    1  A    between atoms: O_1  and  C_2
REMARK    2  A    between atoms: C_6  and  C_7
REMARK    3  A    between atoms: C_9  and  C_10
REMARK    4  A    between atoms: C_18  and  C_19
REMARK    5  A    between atoms: C_23  and  O_24
REMARK                            x       y       z     vdW  Elec       q    Type
REMARK                         _______ _______ _______ _____ _____    ______ ____
ROOT
ATOM      1  C   UNL     1       0.816  10.349  18.639  0.00  0.00    +0.000 A 
ATOM      2  C   UNL     1      -0.579  10.393  18.605  0.00  0.00    +0.000 A 
ATOM      3  C   UNL     1      -1.255  11.615  18.532  0.00  0.00    +0.000 A 
ATOM      4  C   UNL     1      -0.461  12.765  18.508  0.00  0.00    +0.000 A 
ATOM      5  C   UNL     1       0.930  12.676  18.562  0.00  0.00    +0.000 A 
ATOM      6  N   UNL     1       1.563  11.480  18.620  0.00  0.00    +0.000 NA
ENDROOT
BRANCH   3   7
ATOM      7  C   UNL     1      -2.735  11.699  18.496  0.00  0.00    +0.000 A 
ATOM      8  C   UNL     1      -3.464  12.323  19.526  0.00  0.00    +0.000 A 
ATOM      9  C   UNL     1      -4.860  12.426  19.474  0.00  0.00    +0.000 A 
ATOM     10  C   UNL     1      -5.551  11.916  18.381  0.00  0.00    +0.000 A 
ATOM     11 CL   UNL     1      -7.262  12.065  18.301  0.00  0.00    +0.000 Cl
ATOM     12  C   UNL     1      -4.863  11.288  17.351  0.00  0.00    +0.000 A 
ATOM     13  C   UNL     1      -3.469  11.173  17.416  0.00  0.00    +0.000 A 
ENDBRANCH   3   7
BRANCH   1  18
ATOM     14  C   UNL     1       2.210   7.063  19.945  0.00  0.00    +0.000 A 
ATOM     15  C   UNL     1       3.051   6.667  18.915  0.00  0.00    +0.000 A 
ATOM     16  C   UNL     1       3.143   7.462  17.774  0.00  0.00    +0.000 A 
ATOM     17  C   UNL     1       2.403   8.648  17.682  0.00  0.00    +0.000 A 
ATOM     18  C   UNL     1       1.559   9.072  18.725  0.00  0.00    +0.000 A 
ATOM     19  C   UNL     1       1.468   8.238  19.855  0.00  0.00    +0.000 A 
BRANCH  14  20
ATOM     20  O   UNL     1       2.079   6.324  21.085  0.00  0.00    +0.000 OA
ATOM     21  H   UNL     1       1.709   6.892  21.781  0.00  0.00    +0.000 HD
ENDBRANCH  14  20
ENDBRANCH   1  18
BRANCH   5  22
ATOM     22  C   UNL     1       1.789  13.878  18.563  0.00  0.00    +0.000 A 
ATOM     23  C   UNL     1       3.153  13.801  18.225  0.00  0.00    +0.000 A 
ATOM     24  C   UNL     1       3.966  14.941  18.209  0.00  0.00    +0.000 A 
ATOM     25  C   UNL     1       3.435  16.185  18.536  0.00  0.00    +0.000 A 
ATOM     26  C   UNL     1       2.093  16.277  18.878  0.00  0.00    +0.000 A 
ATOM     27  C   UNL     1       1.280  15.147  18.897  0.00  0.00    +0.000 A 
BRANCH  26  28
ATOM     28  O   UNL     1       1.518  17.468  19.208  0.00  0.00    +0.000 OA
ATOM     29  H   UNL     1       1.152  17.868  18.403  0.00  0.00    +0.000 HD
ENDBRANCH  26  28
ENDBRANCH   5  22
TORSDOF 5
ENDMDL
