MODEL 1
REMARK VINA RESULT:      -7.1      0.000      0.000
REMARK  Name = 
REMARK  3 active torsions:
REMARK  status: ('A' for Active; 'I' for Inactive)
REMARK    1  A    between atoms: C_1  and  C_2
REMARK    2  A    between atoms: C_7  and  O_8
REMARK    3  A    between atoms: O_8  and  C_9
REMARK                            x       y       z     vdW  Elec       q    Type
REMARK                         _______ _______ _______ _____ _____    ______ ____
ROOT
ATOM      1  C   UNL     1       6.215   4.719  18.377  0.00  0.00    +0.000 A 
ATOM      2  N   UNL     1       6.929   5.725  18.923  0.00  0.00    +0.000 NA
ATOM      3  C   UNL     1       7.529   6.588  18.091  0.00  0.00    +0.000 A 
ATOM      4  N   UNL     1       7.542   6.559  16.753  0.00  0.00    +0.000 NA
ATOM      5  C   UNL     1       6.900   5.488  16.258  0.00  0.00    +0.000 A 
ATOM      6  S   UNL     1       6.825   5.207  14.579  0.00  0.00    +0.000 S 
ATOM      7  C   UNL     1       5.954   3.750  14.800  0.00  0.00    +0.000 A 
ATOM      8  C   UNL     1       5.695   3.505  16.131  0.00  0.00    +0.000 A 
ATOM      9  C   UNL     1       6.236   4.520  16.991  0.00  0.00    +0.000 A 
ENDROOT
BRANCH   1  10
ATOM     10  O   UNL     1       5.468   3.858  19.162  0.00  0.00    +0.000 OA
BRANCH  10  17
ATOM     11  C   UNL     1       3.537   1.558  18.437  0.00  0.00    +0.000 C 
ATOM     12  C   UNL     1       3.170   2.922  18.945  0.00  0.00    +0.000 A 
ATOM     13  C   UNL     1       1.800   3.179  19.154  0.00  0.00    +0.000 A 
ATOM     14  C   UNL     1       1.362   4.395  19.675  0.00  0.00    +0.000 A 
ATOM     15  C   UNL     1       2.280   5.389  19.984  0.00  0.00    +0.000 A 
ATOM     16  C   UNL     1       3.642   5.167  19.750  0.00  0.00    +0.000 A 
ATOM     17  C   UNL     1       4.093   3.950  19.212  0.00  0.00    +0.000 A 
ENDBRANCH  10  17
ENDBRANCH   1  10
TORSDOF 2
ENDMDL
MODEL 2
REMARK VINA RESULT:      -7.0      1.318      1.746
REMARK  Name = 
REMARK  3 active torsions:
REMARK  status: ('A' for Active; 'I' for Inactive)
REMARK    1  A    between atoms: C_1  and  C_2
REMARK    2  A    between atoms: C_7  and  O_8
REMARK    3  A    between atoms: O_8  and  C_9
REMARK                            x       y       z     vdW  Elec       q    Type
REMARK                         _______ _______ _______ _____ _____    ______ ____
ROOT
ATOM      1  C   UNL     1       5.268   3.894  18.240  0.00  0.00    +0.000 A 
ATOM      2  N   UNL     1       5.836   4.556  19.269  0.00  0.00    +0.000 NA
ATOM      3  C   UNL     1       6.707   5.533  18.978  0.00  0.00    +0.000 A 
ATOM      4  N   UNL     1       7.126   5.922  17.768  0.00  0.00    +0.000 NA
ATOM      5  C   UNL     1       6.607   5.171  16.782  0.00  0.00    +0.000 A 
ATOM      6  S   UNL     1       7.032   5.444  15.153  0.00  0.00    +0.000 S 
ATOM      7  C   UNL     1       6.056   4.144  14.618  0.00  0.00    +0.000 A 
ATOM      8  C   UNL     1       5.391   3.539  15.661  0.00  0.00    +0.000 A 
ATOM      9  C   UNL     1       5.699   4.137  16.929  0.00  0.00    +0.000 A 
ENDROOT
BRANCH   1  10
ATOM     10  O   UNL     1       4.271   2.958  18.450  0.00  0.00    +0.000 OA
BRANCH  10  17
ATOM     11  C   UNL     1       1.662   4.431  17.695  0.00  0.00    +0.000 C 
ATOM     12  C   UNL     1       2.005   3.820  19.023  0.00  0.00    +0.000 A 
ATOM     13  C   UNL     1       1.023   3.887  20.031  0.00  0.00    +0.000 A 
ATOM     14  C   UNL     1       1.224   3.303  21.280  0.00  0.00    +0.000 A 
ATOM     15  C   UNL     1       2.418   2.652  21.556  0.00  0.00    +0.000 A 
ATOM     16  C   UNL     1       3.421   2.605  20.582  0.00  0.00    +0.000 A 
ATOM     17  C   UNL     1       3.234   3.204  19.325  0.00  0.00    +0.000 A 
ENDBRANCH  10  17
ENDBRANCH   1  10
TORSDOF 2
ENDMDL
MODEL 3
REMARK VINA RESULT:      -6.8      1.506      2.320
REMARK  Name = 
REMARK  3 active torsions:
REMARK  status: ('A' for Active; 'I' for Inactive)
REMARK    1  A    between atoms: C_1  and  C_2
REMARK    2  A    between atoms: C_7  and  O_8
REMARK    3  A    between atoms: O_8  and  C_9
REMARK                            x       y       z     vdW  Elec       q    Type
REMARK                         _______ _______ _______ _____ _____    ______ ____
ROOT
ATOM      1  C   UNL     1       4.616   5.324  17.960  0.00  0.00    +0.000 A 
ATOM      2  N   UNL     1       5.322   5.472  19.101  0.00  0.00    +0.000 NA
ATOM      3  C   UNL     1       6.660   5.480  19.011  0.00  0.00    +0.000 A 
ATOM      4  N   UNL     1       7.406   5.317  17.912  0.00  0.00    +0.000 NA
ATOM      5  C   UNL     1       6.662   5.077  16.819  0.00  0.00    +0.000 A 
ATOM      6  S   UNL     1       7.392   4.789  15.306  0.00  0.00    +0.000 S 
ATOM      7  C   UNL     1       5.874   4.550  14.552  0.00  0.00    +0.000 A 
ATOM      8  C   UNL     1       4.830   4.726  15.434  0.00  0.00    +0.000 A 
ATOM      9  C   UNL     1       5.280   5.043  16.759  0.00  0.00    +0.000 A 
ENDROOT
BRANCH   1  10
ATOM     10  O   UNL     1       3.236   5.427  17.950  0.00  0.00    +0.000 OA
BRANCH  10  17
ATOM     11  C   UNL     1       1.865   6.073  20.642  0.00  0.00    +0.000 C 
ATOM     12  C   UNL     1       1.760   4.799  19.855  0.00  0.00    +0.000 A 
ATOM     13  C   UNL     1       0.916   3.796  20.373  0.00  0.00    +0.000 A 
ATOM     14  C   UNL     1       0.709   2.599  19.690  0.00  0.00    +0.000 A 
ATOM     15  C   UNL     1       1.352   2.370  18.481  0.00  0.00    +0.000 A 
ATOM     16  C   UNL     1       2.222   3.338  17.968  0.00  0.00    +0.000 A 
ATOM     17  C   UNL     1       2.450   4.541  18.656  0.00  0.00    +0.000 A 
ENDBRANCH  10  17
ENDBRANCH   1  10
TORSDOF 2
ENDMDL
MODEL 4
REMARK VINA RESULT:      -6.7      0.739      1.788
REMARK  Name = 
REMARK  3 active torsions:
REMARK  status: ('A' for Active; 'I' for Inactive)
REMARK    1  A    between atoms: C_1  and  C_2
REMARK    2  A    between atoms: C_7  and  O_8
REMARK    3  A    between atoms: O_8  and  C_9
REMARK                            x       y       z     vdW  Elec       q    Type
REMARK                         _______ _______ _______ _____ _____    ______ ____
ROOT
ATOM      1  C   UNL     1       6.204   4.749  18.304  0.00  0.00    +0.000 A 
ATOM      2  N   UNL     1       6.899   5.766  18.856  0.00  0.00    +0.000 NA
ATOM      3  C   UNL     1       7.519   6.619  18.029  0.00  0.00    +0.000 A 
ATOM      4  N   UNL     1       7.572   6.571  16.693  0.00  0.00    +0.000 NA
ATOM      5  C   UNL     1       6.947   5.490  16.195  0.00  0.00    +0.000 A 
ATOM      6  S   UNL     1       6.921   5.185  14.518  0.00  0.00    +0.000 S 
ATOM      7  C   UNL     1       6.049   3.728  14.736  0.00  0.00    +0.000 A 
ATOM      8  C   UNL     1       5.752   3.502  16.062  0.00  0.00    +0.000 A 
ATOM      9  C   UNL     1       6.265   4.530  16.922  0.00  0.00    +0.000 A 
ENDROOT
BRANCH   1  10
ATOM     10  O   UNL     1       5.437   3.898  19.080  0.00  0.00    +0.000 OA
BRANCH  10  17
ATOM     11  C   UNL     1       3.475   6.265  18.772  0.00  0.00    +0.000 C 
ATOM     12  C   UNL     1       3.154   4.802  18.665  0.00  0.00    +0.000 A 
ATOM     13  C   UNL     1       1.823   4.462  18.352  0.00  0.00    +0.000 A 
ATOM     14  C   UNL     1       1.436   3.134  18.177  0.00  0.00    +0.000 A 
ATOM     15  C   UNL     1       2.366   2.115  18.326  0.00  0.00    +0.000 A 
ATOM     16  C   UNL     1       3.685   2.430  18.672  0.00  0.00    +0.000 A 
ATOM     17  C   UNL     1       4.082   3.763  18.865  0.00  0.00    +0.000 A 
ENDBRANCH  10  17
ENDBRANCH   1  10
TORSDOF 2
ENDMDL
MODEL 5
REMARK VINA RESULT:      -6.7      1.625      1.902
REMARK  Name = 
REMARK  3 active torsions:
REMARK  status: ('A' for Active; 'I' for Inactive)
REMARK    1  A    between atoms: C_1  and  C_2
REMARK    2  A    between atoms: C_7  and  O_8
REMARK    3  A    between atoms: O_8  and  C_9
REMARK                            x       y       z     vdW  Elec       q    Type
REMARK                         _______ _______ _______ _____ _____    ______ ____
ROOT
ATOM      1  C   UNL     1       4.804   5.377  18.719  0.00  0.00    +0.000 A 
ATOM      2  N   UNL     1       5.696   5.450  19.729  0.00  0.00    +0.000 NA
ATOM      3  C   UNL     1       6.989   5.252  19.435  0.00  0.00    +0.000 A 
ATOM      4  N   UNL     1       7.520   4.945  18.245  0.00  0.00    +0.000 NA
ATOM      5  C   UNL     1       6.584   4.790  17.293  0.00  0.00    +0.000 A 
ATOM      6  S   UNL     1       7.014   4.349  15.703  0.00  0.00    +0.000 S 
ATOM      7  C   UNL     1       5.377   4.322  15.203  0.00  0.00    +0.000 A 
ATOM      8  C   UNL     1       4.524   4.680  16.224  0.00  0.00    +0.000 A 
ATOM      9  C   UNL     1       5.220   4.964  17.447  0.00  0.00    +0.000 A 
ENDROOT
BRANCH   1  10
ATOM     10  O   UNL     1       3.469   5.688  18.915  0.00  0.00    +0.000 OA
BRANCH  10  17
ATOM     11  C   UNL     1       1.319   4.082  17.384  0.00  0.00    +0.000 C 
ATOM     12  C   UNL     1       1.648   3.991  18.846  0.00  0.00    +0.000 A 
ATOM     13  C   UNL     1       0.928   3.047  19.605  0.00  0.00    +0.000 A 
ATOM     14  C   UNL     1       1.196   2.848  20.959  0.00  0.00    +0.000 A 
ATOM     15  C   UNL     1       2.178   3.600  21.588  0.00  0.00    +0.000 A 
ATOM     16  C   UNL     1       2.879   4.568  20.861  0.00  0.00    +0.000 A 
ATOM     17  C   UNL     1       2.606   4.787  19.501  0.00  0.00    +0.000 A 
ENDBRANCH  10  17
ENDBRANCH   1  10
TORSDOF 2
ENDMDL
MODEL 6
REMARK VINA RESULT:      -6.6      4.268      6.018
REMARK  Name = 
REMARK  3 active torsions:
REMARK  status: ('A' for Active; 'I' for Inactive)
REMARK    1  A    between atoms: C_1  and  C_2
REMARK    2  A    between atoms: C_7  and  O_8
REMARK    3  A    between atoms: O_8  and  C_9
REMARK                            x       y       z     vdW  Elec       q    Type
REMARK                         _______ _______ _______ _____ _____    ______ ____
ROOT
ATOM      1  C   UNL     1       2.180   7.627  19.357  0.00  0.00    +0.000 A 
ATOM      2  N   UNL     1       2.295   8.022  18.072  0.00  0.00    +0.000 NA
ATOM      3  C   UNL     1       1.817   9.231  17.745  0.00  0.00    +0.000 A 
ATOM      4  N   UNL     1       1.191  10.105  18.541  0.00  0.00    +0.000 NA
ATOM      5  C   UNL     1       1.014   9.629  19.785  0.00  0.00    +0.000 A 
ATOM      6  S   UNL     1       0.196  10.544  20.968  0.00  0.00    +0.000 S 
ATOM      7  C   UNL     1       0.358   9.298  22.130  0.00  0.00    +0.000 A 
ATOM      8  C   UNL     1       1.057   8.221  21.633  0.00  0.00    +0.000 A 
ATOM      9  C   UNL     1       1.454   8.408  20.266  0.00  0.00    +0.000 A 
ENDROOT
BRANCH   1  10
ATOM     10  O   UNL     1       2.753   6.449  19.802  0.00  0.00    +0.000 OA
BRANCH  10  17
ATOM     11  C   UNL     1       3.631   4.817  17.330  0.00  0.00    +0.000 C 
ATOM     12  C   UNL     1       2.627   4.415  18.371  0.00  0.00    +0.000 A 
ATOM     13  C   UNL     1       2.042   3.139  18.235  0.00  0.00    +0.000 A 
ATOM     14  C   UNL     1       1.140   2.652  19.179  0.00  0.00    +0.000 A 
ATOM     15  C   UNL     1       0.788   3.433  20.271  0.00  0.00    +0.000 A 
ATOM     16  C   UNL     1       1.329   4.716  20.404  0.00  0.00    +0.000 A 
ATOM     17  C   UNL     1       2.228   5.223  19.451  0.00  0.00    +0.000 A 
ENDBRANCH  10  17
ENDBRANCH   1  10
TORSDOF 2
ENDMDL
MODEL 7
REMARK VINA RESULT:      -6.6      1.281      1.555
REMARK  Name = 
REMARK  3 active torsions:
REMARK  status: ('A' for Active; 'I' for Inactive)
REMARK    1  A    between atoms: C_1  and  C_2
REMARK    2  A    between atoms: C_7  and  O_8
REMARK    3  A    between atoms: O_8  and  C_9
REMARK                            x       y       z     vdW  Elec       q    Type
REMARK                         _______ _______ _______ _____ _____    ______ ____
ROOT
ATOM      1  C   UNL     1       5.402   5.116  18.891  0.00  0.00    +0.000 A 
ATOM      2  N   UNL     1       6.482   5.322  19.673  0.00  0.00    +0.000 NA
ATOM      3  C   UNL     1       7.679   5.409  19.073  0.00  0.00    +0.000 A 
ATOM      4  N   UNL     1       7.952   5.276  17.770  0.00  0.00    +0.000 NA
ATOM      5  C   UNL     1       6.860   4.977  17.046  0.00  0.00    +0.000 A 
ATOM      6  S   UNL     1       6.965   4.711  15.366  0.00  0.00    +0.000 S 
ATOM      7  C   UNL     1       5.291   4.372  15.253  0.00  0.00    +0.000 A 
ATOM      8  C   UNL     1       4.660   4.497  16.472  0.00  0.00    +0.000 A 
ATOM      9  C   UNL     1       5.566   4.859  17.524  0.00  0.00    +0.000 A 
ENDROOT
BRANCH   1  10
ATOM     10  O   UNL     1       4.121   5.136  19.416  0.00  0.00    +0.000 OA
BRANCH  10  17
ATOM     11  C   UNL     1       4.536   2.189  20.246  0.00  0.00    +0.000 C 
ATOM     12  C   UNL     1       3.340   2.775  19.554  0.00  0.00    +0.000 A 
ATOM     13  C   UNL     1       2.268   1.902  19.282  0.00  0.00    +0.000 A 
ATOM     14  C   UNL     1       1.091   2.360  18.691  0.00  0.00    +0.000 A 
ATOM     15  C   UNL     1       0.965   3.698  18.344  0.00  0.00    +0.000 A 
ATOM     16  C   UNL     1       2.031   4.574  18.572  0.00  0.00    +0.000 A 
ATOM     17  C   UNL     1       3.227   4.119  19.153  0.00  0.00    +0.000 A 
ENDBRANCH  10  17
ENDBRANCH   1  10
TORSDOF 2
ENDMDL
MODEL 8
REMARK VINA RESULT:      -6.6      1.375      1.466
REMARK  Name = 
REMARK  3 active torsions:
REMARK  status: ('A' for Active; 'I' for Inactive)
REMARK    1  A    between atoms: C_1  and  C_2
REMARK    2  A    between atoms: C_7  and  O_8
REMARK    3  A    between atoms: O_8  and  C_9
REMARK                            x       y       z     vdW  Elec       q    Type
REMARK                         _______ _______ _______ _____ _____    ______ ____
ROOT
ATOM      1  C   UNL     1       4.642   5.201  17.736  0.00  0.00    +0.000 A 
ATOM      2  N   UNL     1       5.388   5.460  18.830  0.00  0.00    +0.000 NA
ATOM      3  C   UNL     1       6.715   5.567  18.669  0.00  0.00    +0.000 A 
ATOM      4  N   UNL     1       7.417   5.408  17.541  0.00  0.00    +0.000 NA
ATOM      5  C   UNL     1       6.642   5.056  16.501  0.00  0.00    +0.000 A 
ATOM      6  S   UNL     1       7.318   4.750  14.966  0.00  0.00    +0.000 S 
ATOM      7  C   UNL     1       5.789   4.356  14.305  0.00  0.00    +0.000 A 
ATOM      8  C   UNL     1       4.779   4.495  15.232  0.00  0.00    +0.000 A 
ATOM      9  C   UNL     1       5.266   4.912  16.516  0.00  0.00    +0.000 A 
ENDROOT
BRANCH   1  10
ATOM     10  O   UNL     1       3.259   5.195  17.794  0.00  0.00    +0.000 OA
BRANCH  10  17
ATOM     11  C   UNL     1       2.955   2.123  17.680  0.00  0.00    +0.000 C 
ATOM     12  C   UNL     1       2.465   3.042  18.761  0.00  0.00    +0.000 A 
ATOM     13  C   UNL     1       1.828   2.445  19.868  0.00  0.00    +0.000 A 
ATOM     14  C   UNL     1       1.386   3.206  20.948  0.00  0.00    +0.000 A 
ATOM     15  C   UNL     1       1.555   4.584  20.941  0.00  0.00    +0.000 A 
ATOM     16  C   UNL     1       2.152   5.200  19.836  0.00  0.00    +0.000 A 
ATOM     17  C   UNL     1       2.588   4.444  18.735  0.00  0.00    +0.000 A 
ENDBRANCH  10  17
ENDBRANCH   1  10
TORSDOF 2
ENDMDL
MODEL 9
REMARK VINA RESULT:      -6.6      1.923      2.821
REMARK  Name = 
REMARK  3 active torsions:
REMARK  status: ('A' for Active; 'I' for Inactive)
REMARK    1  A    between atoms: C_1  and  C_2
REMARK    2  A    between atoms: C_7  and  O_8
REMARK    3  A    between atoms: O_8  and  C_9
REMARK                            x       y       z     vdW  Elec       q    Type
REMARK                         _______ _______ _______ _____ _____    ______ ____
ROOT
ATOM      1  C   UNL     1       4.824   3.992  17.313  0.00  0.00    +0.000 A 
ATOM      2  N   UNL     1       4.497   4.252  16.030  0.00  0.00    +0.000 NA
ATOM      3  C   UNL     1       5.210   5.184  15.381  0.00  0.00    +0.000 A 
ATOM      4  N   UNL     1       6.205   5.937  15.865  0.00  0.00    +0.000 NA
ATOM      5  C   UNL     1       6.429   5.710  17.171  0.00  0.00    +0.000 A 
ATOM      6  S   UNL     1       7.617   6.585  18.024  0.00  0.00    +0.000 S 
ATOM      7  C   UNL     1       7.242   5.784  19.489  0.00  0.00    +0.000 A 
ATOM      8  C   UNL     1       6.254   4.840  19.318  0.00  0.00    +0.000 A 
ATOM      9  C   UNL     1       5.778   4.782  17.965  0.00  0.00    +0.000 A 
ENDROOT
BRANCH   1  10
ATOM     10  O   UNL     1       4.220   2.962  18.014  0.00  0.00    +0.000 OA
BRANCH  10  17
ATOM     11  C   UNL     1       1.537   4.420  17.542  0.00  0.00    +0.000 C 
ATOM     12  C   UNL     1       2.032   3.829  18.830  0.00  0.00    +0.000 A 
ATOM     13  C   UNL     1       1.171   3.910  19.943  0.00  0.00    +0.000 A 
ATOM     14  C   UNL     1       1.516   3.344  21.169  0.00  0.00    +0.000 A 
ATOM     15  C   UNL     1       2.736   2.699  21.316  0.00  0.00    +0.000 A 
ATOM     16  C   UNL     1       3.620   2.639  20.234  0.00  0.00    +0.000 A 
ATOM     17  C   UNL     1       3.289   3.220  18.998  0.00  0.00    +0.000 A 
ENDBRANCH  10  17
ENDBRANCH   1  10
TORSDOF 2
ENDMDL
