MODEL 1
REMARK VINA RESULT:      -8.1      0.000      0.000
REMARK  Name = 
REMARK  5 active torsions:
REMARK  status: ('A' for Active; 'I' for Inactive)
REMARK    1  A    between atoms: C_1  and  C_2
REMARK    2  A    between atoms: C_6  and  S_7
REMARK    3  A    between atoms: S_7  and  C_8
REMARK    4  A    between atoms: C_12  and  C_13
REMARK    5  A    between atoms: C_13  and  N_15
REMARK                            x       y       z     vdW  Elec       q    Type
REMARK                         _______ _______ _______ _____ _____    ______ ____
ROOT
ATOM      1  C   UNL     1       1.514   4.313  17.552  0.00  0.00    +0.000 C 
ATOM      2  C   UNL     1       2.955   4.579  17.897  0.00  0.00    +0.000 A 
ATOM      3  C   UNL     1       3.903   4.442  16.863  0.00  0.00    +0.000 A 
ATOM      4  C   UNL     1       5.267   4.685  17.068  0.00  0.00    +0.000 A 
ATOM      5 BR   UNL     1       6.353   4.540  15.519  0.00  0.00    +0.000 Br
ATOM      6  C   UNL     1       5.708   5.040  18.341  0.00  0.00    +0.000 A 
ATOM      7  C   UNL     1       4.771   5.200  19.383  0.00  0.00    +0.000 A 
ATOM      8  C   UNL     1       3.395   4.989  19.173  0.00  0.00    +0.000 A 
ENDROOT
BRANCH   6   9
ATOM      9  S   UNL     1       7.416   5.382  18.705  0.00  0.00    +0.000 S 
ATOM     10  C   UNL     1       7.788   6.961  17.988  0.00  0.00    +0.000 C 
ATOM     11  O   UNL     1       7.540   5.471  20.144  0.00  0.00    +0.000 OA
ATOM     12  O   UNL     1       8.211   4.415  17.965  0.00  0.00    +0.000 OA
ENDBRANCH   6   9
BRANCH   8  13
ATOM     13  C   UNL     1       2.457   5.203  20.338  0.00  0.00    +0.000 C 
ATOM     14  O   UNL     1       1.748   6.202  20.367  0.00  0.00    +0.000 OA
BRANCH  13  15
ATOM     15  N   UNL     1       2.460   4.198  21.283  0.00  0.00    +0.000 NA
ATOM     16  C   UNL     1       1.544   3.288  21.286  0.00  0.00    +0.000 C 
ATOM     17  N   UNL     1       0.485   3.145  20.458  0.00  0.00    +0.000 N 
ATOM     18  N   UNL     1       1.540   2.340  22.239  0.00  0.00    +0.000 N 
ATOM     19  H   UNL     1       0.547   3.743  19.633  0.00  0.00    +0.000 HD
ATOM     20  H   UNL     1       0.207   2.200  20.231  0.00  0.00    +0.000 HD
ATOM     21  H   UNL     1       2.325   2.306  22.877  0.00  0.00    +0.000 HD
ATOM     22  H   UNL     1       0.952   1.521  22.182  0.00  0.00    +0.000 HD
ENDBRANCH  13  15
ENDBRANCH   8  13
TORSDOF 3
ENDMDL
MODEL 2
REMARK VINA RESULT:      -8.1      1.010      1.158
REMARK  Name = 
REMARK  5 active torsions:
REMARK  status: ('A' for Active; 'I' for Inactive)
REMARK    1  A    between atoms: C_1  and  C_2
REMARK    2  A    between atoms: C_6  and  S_7
REMARK    3  A    between atoms: S_7  and  C_8
REMARK    4  A    between atoms: C_12  and  C_13
REMARK    5  A    between atoms: C_13  and  N_15
REMARK                            x       y       z     vdW  Elec       q    Type
REMARK                         _______ _______ _______ _____ _____    ______ ____
ROOT
ATOM      1  C   UNL     1       1.505   3.927  17.492  0.00  0.00    +0.000 C 
ATOM      2  C   UNL     1       2.962   4.290  17.600  0.00  0.00    +0.000 A 
ATOM      3  C   UNL     1       3.768   4.068  16.464  0.00  0.00    +0.000 A 
ATOM      4  C   UNL     1       5.132   4.389  16.448  0.00  0.00    +0.000 A 
ATOM      5 BR   UNL     1       6.006   4.104  14.788  0.00  0.00    +0.000 Br
ATOM      6  C   UNL     1       5.720   4.911  17.598  0.00  0.00    +0.000 A 
ATOM      7  C   UNL     1       4.924   5.156  18.736  0.00  0.00    +0.000 A 
ATOM      8  C   UNL     1       3.546   4.866  18.747  0.00  0.00    +0.000 A 
ENDROOT
BRANCH   6   9
ATOM      9  S   UNL     1       7.439   5.362  17.678  0.00  0.00    +0.000 S 
ATOM     10  C   UNL     1       7.759   5.876  19.345  0.00  0.00    +0.000 C 
ATOM     11  O   UNL     1       8.209   4.171  17.391  0.00  0.00    +0.000 OA
ATOM     12  O   UNL     1       7.606   6.551  16.858  0.00  0.00    +0.000 OA
ENDBRANCH   6   9
BRANCH   8  13
ATOM     13  C   UNL     1       2.763   5.180  19.999  0.00  0.00    +0.000 C 
ATOM     14  O   UNL     1       2.150   6.238  20.080  0.00  0.00    +0.000 OA
BRANCH  13  15
ATOM     15  N   UNL     1       2.783   4.194  20.963  0.00  0.00    +0.000 NA
ATOM     16  C   UNL     1       1.748   3.449  21.173  0.00  0.00    +0.000 C 
ATOM     17  N   UNL     1       0.542   3.480  20.564  0.00  0.00    +0.000 N 
ATOM     18  N   UNL     1       1.772   2.520  22.144  0.00  0.00    +0.000 N 
ATOM     19  H   UNL     1       0.541   4.055  19.720  0.00  0.00    +0.000 HD
ATOM     20  H   UNL     1       0.075   2.594  20.428  0.00  0.00    +0.000 HD
ATOM     21  H   UNL     1       2.649   2.359  22.623  0.00  0.00    +0.000 HD
ATOM     22  H   UNL     1       1.060   1.811  22.228  0.00  0.00    +0.000 HD
ENDBRANCH  13  15
ENDBRANCH   8  13
TORSDOF 3
ENDMDL
MODEL 3
REMARK VINA RESULT:      -7.2      4.552      6.304
REMARK  Name = 
REMARK  5 active torsions:
REMARK  status: ('A' for Active; 'I' for Inactive)
REMARK    1  A    between atoms: C_1  and  C_2
REMARK    2  A    between atoms: C_6  and  S_7
REMARK    3  A    between atoms: S_7  and  C_8
REMARK    4  A    between atoms: C_12  and  C_13
REMARK    5  A    between atoms: C_13  and  N_15
REMARK                            x       y       z     vdW  Elec       q    Type
REMARK                         _______ _______ _______ _____ _____    ______ ____
ROOT
ATOM      1  C   UNL     1       5.934   7.163  17.091  0.00  0.00    +0.000 C 
ATOM      2  C   UNL     1       5.230   5.947  17.631  0.00  0.00    +0.000 A 
ATOM      3  C   UNL     1       4.146   6.164  18.508  0.00  0.00    +0.000 A 
ATOM      4  C   UNL     1       3.407   5.105  19.052  0.00  0.00    +0.000 A 
ATOM      5 BR   UNL     1       1.931   5.623  20.126  0.00  0.00    +0.000 Br
ATOM      6  C   UNL     1       3.773   3.796  18.747  0.00  0.00    +0.000 A 
ATOM      7  C   UNL     1       4.842   3.561  17.858  0.00  0.00    +0.000 A 
ATOM      8  C   UNL     1       5.567   4.623  17.282  0.00  0.00    +0.000 A 
ENDROOT
BRANCH   6   9
ATOM      9  S   UNL     1       2.894   2.382  19.377  0.00  0.00    +0.000 S 
ATOM     10  C   UNL     1       1.222   2.519  18.801  0.00  0.00    +0.000 C 
ATOM     11  O   UNL     1       3.504   1.205  18.796  0.00  0.00    +0.000 OA
ATOM     12  O   UNL     1       2.829   2.530  20.822  0.00  0.00    +0.000 OA
ENDBRANCH   6   9
BRANCH   8  13
ATOM     13  C   UNL     1       6.683   4.283  16.323  0.00  0.00    +0.000 C 
ATOM     14  O   UNL     1       7.848   4.415  16.680  0.00  0.00    +0.000 OA
BRANCH  13  15
ATOM     15  N   UNL     1       6.273   3.804  15.096  0.00  0.00    +0.000 NA
ATOM     16  C   UNL     1       6.728   4.312  13.999  0.00  0.00    +0.000 C 
ATOM     17  N   UNL     1       7.605   5.328  13.833  0.00  0.00    +0.000 N 
ATOM     18  N   UNL     1       6.287   3.860  12.813  0.00  0.00    +0.000 N 
ATOM     19  H   UNL     1       8.080   5.584  14.700  0.00  0.00    +0.000 HD
ATOM     20  H   UNL     1       8.240   5.261  13.049  0.00  0.00    +0.000 HD
ATOM     21  H   UNL     1       5.678   3.052  12.811  0.00  0.00    +0.000 HD
ATOM     22  H   UNL     1       6.735   4.106  11.942  0.00  0.00    +0.000 HD
ENDBRANCH  13  15
ENDBRANCH   8  13
TORSDOF 3
ENDMDL
MODEL 4
REMARK VINA RESULT:      -7.2      4.404      6.388
REMARK  Name = 
REMARK  5 active torsions:
REMARK  status: ('A' for Active; 'I' for Inactive)
REMARK    1  A    between atoms: C_1  and  C_2
REMARK    2  A    between atoms: C_6  and  S_7
REMARK    3  A    between atoms: S_7  and  C_8
REMARK    4  A    between atoms: C_12  and  C_13
REMARK    5  A    between atoms: C_13  and  N_15
REMARK                            x       y       z     vdW  Elec       q    Type
REMARK                         _______ _______ _______ _____ _____    ______ ____
ROOT
ATOM      1  C   UNL     1       6.920   7.298  17.099  0.00  0.00    +0.000 C 
ATOM      2  C   UNL     1       5.724   6.422  17.361  0.00  0.00    +0.000 A 
ATOM      3  C   UNL     1       4.611   7.018  17.988  0.00  0.00    +0.000 A 
ATOM      4  C   UNL     1       3.438   6.300  18.260  0.00  0.00    +0.000 A 
ATOM      5 BR   UNL     1       2.028   7.319  19.016  0.00  0.00    +0.000 Br
ATOM      6  C   UNL     1       3.381   4.947  17.933  0.00  0.00    +0.000 A 
ATOM      7  C   UNL     1       4.478   4.339  17.289  0.00  0.00    +0.000 A 
ATOM      8  C   UNL     1       5.647   5.065  16.984  0.00  0.00    +0.000 A 
ENDROOT
BRANCH   6   9
ATOM      9  S   UNL     1       1.937   3.949  18.225  0.00  0.00    +0.000 S 
ATOM     10  C   UNL     1       2.388   2.273  17.865  0.00  0.00    +0.000 C 
ATOM     11  O   UNL     1       1.613   4.064  19.631  0.00  0.00    +0.000 OA
ATOM     12  O   UNL     1       0.953   4.319  17.220  0.00  0.00    +0.000 OA
ENDBRANCH   6   9
BRANCH   8  13
ATOM     13  C   UNL     1       6.766   4.343  16.273  0.00  0.00    +0.000 C 
ATOM     14  O   UNL     1       7.896   4.362  16.749  0.00  0.00    +0.000 OA
BRANCH  13  15
ATOM     15  N   UNL     1       6.394   3.672  15.127  0.00  0.00    +0.000 NA
ATOM     16  C   UNL     1       6.712   4.126  13.960  0.00  0.00    +0.000 C 
ATOM     17  N   UNL     1       7.395   5.248  13.641  0.00  0.00    +0.000 N 
ATOM     18  N   UNL     1       6.306   3.481  12.853  0.00  0.00    +0.000 N 
ATOM     19  H   UNL     1       7.855   5.671  14.449  0.00  0.00    +0.000 HD
ATOM     20  H   UNL     1       8.000   5.202  12.833  0.00  0.00    +0.000 HD
ATOM     21  H   UNL     1       5.843   2.588  12.968  0.00  0.00    +0.000 HD
ATOM     22  H   UNL     1       6.669   3.701  11.937  0.00  0.00    +0.000 HD
ENDBRANCH  13  15
ENDBRANCH   8  13
TORSDOF 3
ENDMDL
MODEL 5
REMARK VINA RESULT:      -7.2      4.473      6.276
REMARK  Name = 
REMARK  5 active torsions:
REMARK  status: ('A' for Active; 'I' for Inactive)
REMARK    1  A    between atoms: C_1  and  C_2
REMARK    2  A    between atoms: C_6  and  S_7
REMARK    3  A    between atoms: S_7  and  C_8
REMARK    4  A    between atoms: C_12  and  C_13
REMARK    5  A    between atoms: C_13  and  N_15
REMARK                            x       y       z     vdW  Elec       q    Type
REMARK                         _______ _______ _______ _____ _____    ______ ____
ROOT
ATOM      1  C   UNL     1       6.204   7.204  17.205  0.00  0.00    +0.000 C 
ATOM      2  C   UNL     1       5.371   6.047  17.690  0.00  0.00    +0.000 A 
ATOM      3  C   UNL     1       4.278   6.344  18.529  0.00  0.00    +0.000 A 
ATOM      4  C   UNL     1       3.425   5.347  19.019  0.00  0.00    +0.000 A 
ATOM      5 BR   UNL     1       1.959   5.975  20.047  0.00  0.00    +0.000 Br
ATOM      6  C   UNL     1       3.684   4.016  18.698  0.00  0.00    +0.000 A 
ATOM      7  C   UNL     1       4.762   3.702  17.845  0.00  0.00    +0.000 A 
ATOM      8  C   UNL     1       5.602   4.705  17.323  0.00  0.00    +0.000 A 
ENDROOT
BRANCH   6   9
ATOM      9  S   UNL     1       2.656   2.676  19.260  0.00  0.00    +0.000 S 
ATOM     10  C   UNL     1       2.762   2.654  21.030  0.00  0.00    +0.000 C 
ATOM     11  O   UNL     1       1.298   2.983  18.867  0.00  0.00    +0.000 OA
ATOM     12  O   UNL     1       3.282   1.442  18.811  0.00  0.00    +0.000 OA
ENDBRANCH   6   9
BRANCH   8  13
ATOM     13  C   UNL     1       6.721   4.284  16.400  0.00  0.00    +0.000 C 
ATOM     14  O   UNL     1       7.881   4.352  16.787  0.00  0.00    +0.000 OA
BRANCH  13  15
ATOM     15  N   UNL     1       6.316   3.812  15.168  0.00  0.00    +0.000 NA
ATOM     16  C   UNL     1       6.751   4.348  14.076  0.00  0.00    +0.000 C 
ATOM     17  N   UNL     1       7.600   5.388  13.919  0.00  0.00    +0.000 N 
ATOM     18  N   UNL     1       6.314   3.901  12.886  0.00  0.00    +0.000 N 
ATOM     19  H   UNL     1       8.074   5.644  14.787  0.00  0.00    +0.000 HD
ATOM     20  H   UNL     1       8.232   5.348  13.131  0.00  0.00    +0.000 HD
ATOM     21  H   UNL     1       5.726   3.077  12.877  0.00  0.00    +0.000 HD
ATOM     22  H   UNL     1       6.750   4.170  12.017  0.00  0.00    +0.000 HD
ENDBRANCH  13  15
ENDBRANCH   8  13
TORSDOF 3
ENDMDL
MODEL 6
REMARK VINA RESULT:      -7.2      0.882      1.067
REMARK  Name = 
REMARK  5 active torsions:
REMARK  status: ('A' for Active; 'I' for Inactive)
REMARK    1  A    between atoms: C_1  and  C_2
REMARK    2  A    between atoms: C_6  and  S_7
REMARK    3  A    between atoms: S_7  and  C_8
REMARK    4  A    between atoms: C_12  and  C_13
REMARK    5  A    between atoms: C_13  and  N_15
REMARK                            x       y       z     vdW  Elec       q    Type
REMARK                         _______ _______ _______ _____ _____    ______ ____
ROOT
ATOM      1  C   UNL     1       1.394   4.300  17.592  0.00  0.00    +0.000 C 
ATOM      2  C   UNL     1       2.825   4.637  17.920  0.00  0.00    +0.000 A 
ATOM      3  C   UNL     1       3.764   4.555  16.872  0.00  0.00    +0.000 A 
ATOM      4  C   UNL     1       5.117   4.867  17.061  0.00  0.00    +0.000 A 
ATOM      5 BR   UNL     1       6.188   4.786  15.497  0.00  0.00    +0.000 Br
ATOM      6  C   UNL     1       5.557   5.236  18.331  0.00  0.00    +0.000 A 
ATOM      7  C   UNL     1       4.627   5.342  19.385  0.00  0.00    +0.000 A 
ATOM      8  C   UNL     1       3.260   5.061  19.192  0.00  0.00    +0.000 A 
ENDROOT
BRANCH   6   9
ATOM      9  S   UNL     1       7.250   5.663  18.674  0.00  0.00    +0.000 S 
ATOM     10  C   UNL     1       8.256   4.393  17.952  0.00  0.00    +0.000 C 
ATOM     11  O   UNL     1       7.519   6.919  18.009  0.00  0.00    +0.000 OA
ATOM     12  O   UNL     1       7.436   5.546  20.111  0.00  0.00    +0.000 OA
ENDBRANCH   6   9
BRANCH   8  13
ATOM     13  C   UNL     1       2.329   5.220  20.371  0.00  0.00    +0.000 C 
ATOM     14  O   UNL     1       1.574   6.184  20.418  0.00  0.00    +0.000 OA
BRANCH  13  15
ATOM     15  N   UNL     1       2.392   4.209  21.306  0.00  0.00    +0.000 NA
ATOM     16  C   UNL     1       1.529   3.247  21.302  0.00  0.00    +0.000 C 
ATOM     17  N   UNL     1       0.478   3.052  20.475  0.00  0.00    +0.000 N 
ATOM     18  N   UNL     1       1.581   2.292  22.246  0.00  0.00    +0.000 N 
ATOM     19  H   UNL     1       0.503   3.660  19.655  0.00  0.00    +0.000 HD
ATOM     20  H   UNL     1       0.253   2.095  20.239  0.00  0.00    +0.000 HD
ATOM     21  H   UNL     1       2.369   2.297  22.882  0.00  0.00    +0.000 HD
ATOM     22  H   UNL     1       1.041   1.442  22.182  0.00  0.00    +0.000 HD
ENDBRANCH  13  15
ENDBRANCH   8  13
TORSDOF 3
ENDMDL
MODEL 7
REMARK VINA RESULT:      -7.2      4.454      6.238
REMARK  Name = 
REMARK  5 active torsions:
REMARK  status: ('A' for Active; 'I' for Inactive)
REMARK    1  A    between atoms: C_1  and  C_2
REMARK    2  A    between atoms: C_6  and  S_7
REMARK    3  A    between atoms: S_7  and  C_8
REMARK    4  A    between atoms: C_12  and  C_13
REMARK    5  A    between atoms: C_13  and  N_15
REMARK                            x       y       z     vdW  Elec       q    Type
REMARK                         _______ _______ _______ _____ _____    ______ ____
ROOT
ATOM      1  C   UNL     1       6.102   7.282  17.136  0.00  0.00    +0.000 C 
ATOM      2  C   UNL     1       5.352   6.103  17.697  0.00  0.00    +0.000 A 
ATOM      3  C   UNL     1       4.260   6.376  18.546  0.00  0.00    +0.000 A 
ATOM      4  C   UNL     1       3.481   5.356  19.107  0.00  0.00    +0.000 A 
ATOM      5 BR   UNL     1       2.001   5.946  20.137  0.00  0.00    +0.000 Br
ATOM      6  C   UNL     1       3.814   4.028  18.847  0.00  0.00    +0.000 A 
ATOM      7  C   UNL     1       4.891   3.737  17.984  0.00  0.00    +0.000 A 
ATOM      8  C   UNL     1       5.657   4.760  17.392  0.00  0.00    +0.000 A 
ENDROOT
BRANCH   6   9
ATOM      9  S   UNL     1       2.883   2.659  19.499  0.00  0.00    +0.000 S 
ATOM     10  C   UNL     1       3.555   1.187  18.773  0.00  0.00    +0.000 C 
ATOM     11  O   UNL     1       3.107   2.630  20.928  0.00  0.00    +0.000 OA
ATOM     12  O   UNL     1       1.531   2.776  18.977  0.00  0.00    +0.000 OA
ENDBRANCH   6   9
BRANCH   8  13
ATOM     13  C   UNL     1       6.780   4.361  16.464  0.00  0.00    +0.000 C 
ATOM     14  O   UNL     1       7.941   4.455  16.845  0.00  0.00    +0.000 OA
BRANCH  13  15
ATOM     15  N   UNL     1       6.379   3.875  15.237  0.00  0.00    +0.000 NA
ATOM     16  C   UNL     1       6.809   4.406  14.141  0.00  0.00    +0.000 C 
ATOM     17  N   UNL     1       7.649   5.453  13.975  0.00  0.00    +0.000 N 
ATOM     18  N   UNL     1       6.376   3.946  12.955  0.00  0.00    +0.000 N 
ATOM     19  H   UNL     1       8.121   5.719  14.841  0.00  0.00    +0.000 HD
ATOM     20  H   UNL     1       8.280   5.412  13.187  0.00  0.00    +0.000 HD
ATOM     21  H   UNL     1       5.795   3.117  12.952  0.00  0.00    +0.000 HD
ATOM     22  H   UNL     1       6.809   4.212  12.083  0.00  0.00    +0.000 HD
ENDBRANCH  13  15
ENDBRANCH   8  13
TORSDOF 3
ENDMDL
MODEL 8
REMARK VINA RESULT:      -7.0      2.244      2.766
REMARK  Name = 
REMARK  5 active torsions:
REMARK  status: ('A' for Active; 'I' for Inactive)
REMARK    1  A    between atoms: C_1  and  C_2
REMARK    2  A    between atoms: C_6  and  S_7
REMARK    3  A    between atoms: S_7  and  C_8
REMARK    4  A    between atoms: C_12  and  C_13
REMARK    5  A    between atoms: C_13  and  N_15
REMARK                            x       y       z     vdW  Elec       q    Type
REMARK                         _______ _______ _______ _____ _____    ______ ____
ROOT
ATOM      1  C   UNL     1       2.292   7.316  19.103  0.00  0.00    +0.000 C 
ATOM      2  C   UNL     1       3.304   6.526  18.318  0.00  0.00    +0.000 A 
ATOM      3  C   UNL     1       4.562   7.126  18.098  0.00  0.00    +0.000 A 
ATOM      4  C   UNL     1       5.585   6.472  17.398  0.00  0.00    +0.000 A 
ATOM      5 BR   UNL     1       7.227   7.417  17.304  0.00  0.00    +0.000 Br
ATOM      6  C   UNL     1       5.343   5.204  16.872  0.00  0.00    +0.000 A 
ATOM      7  C   UNL     1       4.098   4.582  17.099  0.00  0.00    +0.000 A 
ATOM      8  C   UNL     1       3.078   5.223  17.830  0.00  0.00    +0.000 A 
ENDROOT
BRANCH   6   9
ATOM      9  S   UNL     1       6.577   4.284  15.979  0.00  0.00    +0.000 S 
ATOM     10  C   UNL     1       6.857   5.146  14.455  0.00  0.00    +0.000 C 
ATOM     11  O   UNL     1       7.788   4.310  16.771  0.00  0.00    +0.000 OA
ATOM     12  O   UNL     1       5.976   3.012  15.610  0.00  0.00    +0.000 OA
ENDBRANCH   6   9
BRANCH   8  13
ATOM     13  C   UNL     1       1.783   4.477  18.045  0.00  0.00    +0.000 C 
ATOM     14  O   UNL     1       1.116   4.132  17.076  0.00  0.00    +0.000 OA
BRANCH  13  15
ATOM     15  N   UNL     1       1.473   4.210  19.363  0.00  0.00    +0.000 NA
ATOM     16  C   UNL     1       1.387   2.995  19.792  0.00  0.00    +0.000 C 
ATOM     17  N   UNL     1       1.552   1.839  19.110  0.00  0.00    +0.000 N 
ATOM     18  N   UNL     1       1.045   2.754  21.069  0.00  0.00    +0.000 N 
ATOM     19  H   UNL     1       1.969   1.982  18.188  0.00  0.00    +0.000 HD
ATOM     20  H   UNL     1       1.974   1.069  19.610  0.00  0.00    +0.000 HD
ATOM     21  H   UNL     1       0.963   3.545  21.694  0.00  0.00    +0.000 HD
ATOM     22  H   UNL     1       1.131   1.839  21.486  0.00  0.00    +0.000 HD
ENDBRANCH  13  15
ENDBRANCH   8  13
TORSDOF 3
ENDMDL
MODEL 9
REMARK VINA RESULT:      -6.9      4.262      5.661
REMARK  Name = 
REMARK  5 active torsions:
REMARK  status: ('A' for Active; 'I' for Inactive)
REMARK    1  A    between atoms: C_1  and  C_2
REMARK    2  A    between atoms: C_6  and  S_7
REMARK    3  A    between atoms: S_7  and  C_8
REMARK    4  A    between atoms: C_12  and  C_13
REMARK    5  A    between atoms: C_13  and  N_15
REMARK                            x       y       z     vdW  Elec       q    Type
REMARK                         _______ _______ _______ _____ _____    ______ ____
ROOT
ATOM      1  C   UNL     1       3.280   8.098  17.492  0.00  0.00    +0.000 C 
ATOM      2  C   UNL     1       3.486   6.731  18.089  0.00  0.00    +0.000 A 
ATOM      3  C   UNL     1       2.397   6.156  18.776  0.00  0.00    +0.000 A 
ATOM      4  C   UNL     1       2.472   4.880  19.351  0.00  0.00    +0.000 A 
ATOM      5 BR   UNL     1       0.863   4.257  20.140  0.00  0.00    +0.000 Br
ATOM      6  C   UNL     1       3.669   4.171  19.273  0.00  0.00    +0.000 A 
ATOM      7  C   UNL     1       4.761   4.724  18.573  0.00  0.00    +0.000 A 
ATOM      8  C   UNL     1       4.680   5.992  17.965  0.00  0.00    +0.000 A 
ENDROOT
BRANCH   6   9
ATOM      9  S   UNL     1       3.865   2.541  19.960  0.00  0.00    +0.000 S 
ATOM     10  C   UNL     1       3.155   1.405  18.797  0.00  0.00    +0.000 C 
ATOM     11  O   UNL     1       5.286   2.288  20.067  0.00  0.00    +0.000 OA
ATOM     12  O   UNL     1       3.023   2.473  21.144  0.00  0.00    +0.000 OA
ENDBRANCH   6   9
BRANCH   8  13
ATOM     13  C   UNL     1       5.890   6.499  17.217  0.00  0.00    +0.000 C 
ATOM     14  O   UNL     1       6.737   7.155  17.811  0.00  0.00    +0.000 OA
BRANCH  13  15
ATOM     15  N   UNL     1       5.950   6.135  15.888  0.00  0.00    +0.000 NA
ATOM     16  C   UNL     1       6.801   5.253  15.479  0.00  0.00    +0.000 C 
ATOM     17  N   UNL     1       7.730   4.576  16.190  0.00  0.00    +0.000 N 
ATOM     18  N   UNL     1       6.873   4.941  14.174  0.00  0.00    +0.000 N 
ATOM     19  H   UNL     1       7.597   4.665  17.198  0.00  0.00    +0.000 HD
ATOM     20  H   UNL     1       7.918   3.623  15.907  0.00  0.00    +0.000 HD
ATOM     21  H   UNL     1       6.178   5.336  13.553  0.00  0.00    +0.000 HD
ATOM     22  H   UNL     1       7.396   4.146  13.838  0.00  0.00    +0.000 HD
ENDBRANCH  13  15
ENDBRANCH   8  13
TORSDOF 3
ENDMDL
