MODEL 1
REMARK VINA RESULT:      -6.6      0.000      0.000
REMARK  Name = 
REMARK  8 active torsions:
REMARK  status: ('A' for Active; 'I' for Inactive)
REMARK    1  A    between atoms: C_1  and  N_2
REMARK    2  A    between atoms: N_2  and  C_3
REMARK    3  A    between atoms: N_2  and  C_10
REMARK    4  A    between atoms: C_3  and  C_4
REMARK    5  A    between atoms: C_4  and  N_5
REMARK    6  A    between atoms: N_14  and  C_15
REMARK    7  A    between atoms: C_15  and  C_16
REMARK    8  A    between atoms: C_19  and  C_20
REMARK                            x       y       z     vdW  Elec       q    Type
REMARK                         _______ _______ _______ _____ _____    ______ ____
ROOT
ATOM      1  C   UNL     1       4.529   3.506  18.480  0.00  0.00    +0.000 C 
ATOM      2  C   UNL     1       3.720   2.347  17.845  0.00  0.00    +0.000 C 
ATOM      3  C   UNL     1       2.330   2.804  17.420  0.00  0.00    +0.000 C 
ATOM      4  C   UNL     1       1.565   3.404  18.598  0.00  0.00    +0.000 C 
ATOM      5  N   UNL     1       2.308   4.512  19.220  0.00  0.00    +0.000 NA
ATOM      6  C   UNL     1       3.639   4.047  19.658  0.00  0.00    +0.000 C 
ENDROOT
BRANCH   1   8
ATOM      7  C   UNL     1       5.317   5.807  18.142  0.00  0.00    +0.000 C 
ATOM      8  N   UNL     1       4.952   4.542  17.479  0.00  0.00    +0.000 NA
BRANCH   8   9
ATOM      9  C   UNL     1       6.094   4.072  16.648  0.00  0.00    +0.000 C 
BRANCH   9  10
ATOM     10  C   UNL     1       6.790   5.167  15.830  0.00  0.00    +0.000 C 
BRANCH  10  11
ATOM     11  N   UNL     1       6.933   4.800  14.430  0.00  0.00    +0.000 N 
ATOM     12  C   UNL     1       6.195   3.876  13.747  0.00  0.00    +0.000 A 
ATOM     13  C   UNL     1       6.614   3.946  12.439  0.00  0.00    +0.000 A 
ATOM     14  C   UNL     1       7.617   4.934  12.439  0.00  0.00    +0.000 A 
ATOM     15  N   UNL     1       7.816   5.456  13.650  0.00  0.00    +0.000 NA
ENDBRANCH  10  11
ENDBRANCH   9  10
ENDBRANCH   8   9
ENDBRANCH   1   8
BRANCH   5  16
ATOM     16  C   UNL     1       1.568   5.110  20.359  0.00  0.00    +0.000 C 
BRANCH  16  17
ATOM     17  C   UNL     1       1.695   6.604  20.383  0.00  0.00    +0.000 A 
ATOM     18  N   UNL     1       2.152   7.327  19.351  0.00  0.00    +0.000 NA
ATOM     19  O   UNL     1       1.906   8.644  19.755  0.00  0.00    +0.000 OA
ATOM     20  C   UNL     1       1.345   8.576  20.999  0.00  0.00    +0.000 A 
ATOM     21  N   UNL     1       1.256   7.345  21.455  0.00  0.00    +0.000 NA
BRANCH  20  22
ATOM     22  C   UNL     1       0.824   9.786  21.755  0.00  0.00    +0.000 C 
ATOM     23  C   UNL     1      -0.683   9.956  21.862  0.00  0.00    +0.000 C 
ATOM     24  C   UNL     1       0.101   9.573  23.068  0.00  0.00    +0.000 C 
ENDBRANCH  20  22
ENDBRANCH  16  17
ENDBRANCH   5  16
TORSDOF 7
ENDMDL
MODEL 2
REMARK VINA RESULT:      -6.6      1.015      1.177
REMARK  Name = 
REMARK  8 active torsions:
REMARK  status: ('A' for Active; 'I' for Inactive)
REMARK    1  A    between atoms: C_1  and  N_2
REMARK    2  A    between atoms: N_2  and  C_3
REMARK    3  A    between atoms: N_2  and  C_10
REMARK    4  A    between atoms: C_3  and  C_4
REMARK    5  A    between atoms: C_4  and  N_5
REMARK    6  A    between atoms: N_14  and  C_15
REMARK    7  A    between atoms: C_15  and  C_16
REMARK    8  A    between atoms: C_19  and  C_20
REMARK                            x       y       z     vdW  Elec       q    Type
REMARK                         _______ _______ _______ _____ _____    ______ ____
ROOT
ATOM      1  C   UNL     1       4.432   4.274  18.139  0.00  0.00    +0.000 C 
ATOM      2  C   UNL     1       3.630   2.968  17.912  0.00  0.00    +0.000 C 
ATOM      3  C   UNL     1       2.130   3.233  17.877  0.00  0.00    +0.000 C 
ATOM      4  C   UNL     1       1.665   3.928  19.156  0.00  0.00    +0.000 C 
ATOM      5  N   UNL     1       2.408   5.176  19.397  0.00  0.00    +0.000 NA
ATOM      6  C   UNL     1       3.858   4.899  19.462  0.00  0.00    +0.000 C 
ENDROOT
BRANCH   1   8
ATOM      7  C   UNL     1       5.223   6.395  17.190  0.00  0.00    +0.000 C 
ATOM      8  N   UNL     1       4.415   5.187  16.948  0.00  0.00    +0.000 NA
BRANCH   8   9
ATOM      9  C   UNL     1       4.904   4.502  15.721  0.00  0.00    +0.000 C 
BRANCH   9  10
ATOM     10  C   UNL     1       6.428   4.341  15.636  0.00  0.00    +0.000 C 
BRANCH  10  11
ATOM     11  N   UNL     1       6.926   4.529  14.282  0.00  0.00    +0.000 N 
ATOM     12  C   UNL     1       6.513   3.871  13.160  0.00  0.00    +0.000 A 
ATOM     13  C   UNL     1       7.186   4.450  12.110  0.00  0.00    +0.000 A 
ATOM     14  C   UNL     1       7.990   5.438  12.705  0.00  0.00    +0.000 A 
ATOM     15  N   UNL     1       7.837   5.490  14.029  0.00  0.00    +0.000 NA
ENDBRANCH  10  11
ENDBRANCH   9  10
ENDBRANCH   8   9
ENDBRANCH   1   8
BRANCH   5  16
ATOM     16  C   UNL     1       1.957   5.865  20.631  0.00  0.00    +0.000 C 
BRANCH  16  17
ATOM     17  C   UNL     1       1.715   7.326  20.397  0.00  0.00    +0.000 A 
ATOM     18  N   UNL     1       2.024   7.957  19.254  0.00  0.00    +0.000 NA
ATOM     19  O   UNL     1       1.448   9.220  19.426  0.00  0.00    +0.000 OA
ATOM     20  C   UNL     1       0.869   9.225  20.663  0.00  0.00    +0.000 A 
ATOM     21  N   UNL     1       1.064   8.105  21.325  0.00  0.00    +0.000 NA
BRANCH  20  22
ATOM     22  C   UNL     1       0.038  10.377  21.200  0.00  0.00    +0.000 C 
ATOM     23  C   UNL     1       0.546  11.788  20.952  0.00  0.00    +0.000 C 
ATOM     24  C   UNL     1      -0.654  11.299  20.218  0.00  0.00    +0.000 C 
ENDBRANCH  20  22
ENDBRANCH  16  17
ENDBRANCH   5  16
TORSDOF 7
ENDMDL
MODEL 3
REMARK VINA RESULT:      -6.5      2.617      7.281
REMARK  Name = 
REMARK  8 active torsions:
REMARK  status: ('A' for Active; 'I' for Inactive)
REMARK    1  A    between atoms: C_1  and  N_2
REMARK    2  A    between atoms: N_2  and  C_3
REMARK    3  A    between atoms: N_2  and  C_10
REMARK    4  A    between atoms: C_3  and  C_4
REMARK    5  A    between atoms: C_4  and  N_5
REMARK    6  A    between atoms: N_14  and  C_15
REMARK    7  A    between atoms: C_15  and  C_16
REMARK    8  A    between atoms: C_19  and  C_20
REMARK                            x       y       z     vdW  Elec       q    Type
REMARK                         _______ _______ _______ _____ _____    ______ ____
ROOT
ATOM      1  C   UNL     1       1.206   4.692  20.074  0.00  0.00    +0.000 C 
ATOM      2  C   UNL     1       1.309   3.540  21.105  0.00  0.00    +0.000 C 
ATOM      3  C   UNL     1       2.706   2.935  21.129  0.00  0.00    +0.000 C 
ATOM      4  C   UNL     1       3.115   2.444  19.741  0.00  0.00    +0.000 C 
ATOM      5  N   UNL     1       3.031   3.518  18.738  0.00  0.00    +0.000 NA
ATOM      6  C   UNL     1       1.663   4.073  18.703  0.00  0.00    +0.000 C 
ENDROOT
BRANCH   1   8
ATOM      7  C   UNL     1       2.757   6.465  19.383  0.00  0.00    +0.000 C 
ATOM      8  N   UNL     1       1.954   5.924  20.493  0.00  0.00    +0.000 NA
BRANCH   8   9
ATOM      9  C   UNL     1       1.037   6.979  21.002  0.00  0.00    +0.000 C 
BRANCH   9  10
ATOM     10  C   UNL     1       1.605   8.404  20.955  0.00  0.00    +0.000 C 
BRANCH  10  11
ATOM     11  N   UNL     1       0.791   9.294  20.142  0.00  0.00    +0.000 N 
ATOM     12  C   UNL     1       1.015   9.651  18.844  0.00  0.00    +0.000 A 
ATOM     13  C   UNL     1      -0.064  10.417  18.468  0.00  0.00    +0.000 A 
ATOM     14  C   UNL     1      -0.876  10.474  19.615  0.00  0.00    +0.000 A 
ATOM     15  N   UNL     1      -0.360   9.792  20.639  0.00  0.00    +0.000 NA
ENDBRANCH  10  11
ENDBRANCH   9  10
ENDBRANCH   8   9
ENDBRANCH   1   8
BRANCH   5  16
ATOM     16  C   UNL     1       3.438   3.055  17.388  0.00  0.00    +0.000 C 
BRANCH  16  17
ATOM     17  C   UNL     1       4.666   3.764  16.902  0.00  0.00    +0.000 A 
ATOM     18  N   UNL     1       4.815   4.216  15.648  0.00  0.00    +0.000 NA
ATOM     19  O   UNL     1       5.998   4.959  15.720  0.00  0.00    +0.000 OA
ATOM     20  C   UNL     1       6.449   4.861  17.005  0.00  0.00    +0.000 A 
ATOM     21  N   UNL     1       5.698   4.081  17.754  0.00  0.00    +0.000 NA
BRANCH  20  22
ATOM     22  C   UNL     1       7.656   5.616  17.535  0.00  0.00    +0.000 C 
ATOM     23  C   UNL     1       7.451   7.059  17.966  0.00  0.00    +0.000 C 
ATOM     24  C   UNL     1       7.688   6.011  18.996  0.00  0.00    +0.000 C 
ENDBRANCH  20  22
ENDBRANCH  16  17
ENDBRANCH   5  16
TORSDOF 7
ENDMDL
MODEL 4
REMARK VINA RESULT:      -6.5      3.140      7.801
REMARK  Name = 
REMARK  8 active torsions:
REMARK  status: ('A' for Active; 'I' for Inactive)
REMARK    1  A    between atoms: C_1  and  N_2
REMARK    2  A    between atoms: N_2  and  C_3
REMARK    3  A    between atoms: N_2  and  C_10
REMARK    4  A    between atoms: C_3  and  C_4
REMARK    5  A    between atoms: C_4  and  N_5
REMARK    6  A    between atoms: N_14  and  C_15
REMARK    7  A    between atoms: C_15  and  C_16
REMARK    8  A    between atoms: C_19  and  C_20
REMARK                            x       y       z     vdW  Elec       q    Type
REMARK                         _______ _______ _______ _____ _____    ______ ____
ROOT
ATOM      1  C   UNL     1       2.928   5.052  18.623  0.00  0.00    +0.000 C 
ATOM      2  C   UNL     1       2.135   6.264  19.175  0.00  0.00    +0.000 C 
ATOM      3  C   UNL     1       2.114   7.417  18.180  0.00  0.00    +0.000 C 
ATOM      4  C   UNL     1       3.532   7.839  17.799  0.00  0.00    +0.000 C 
ATOM      5  N   UNL     1       4.311   6.708  17.268  0.00  0.00    +0.000 NA
ATOM      6  C   UNL     1       4.350   5.611  18.255  0.00  0.00    +0.000 C 
ENDROOT
BRANCH   1   8
ATOM      7  C   UNL     1       3.070   3.303  16.907  0.00  0.00    +0.000 C 
ATOM      8  N   UNL     1       2.217   4.345  17.506  0.00  0.00    +0.000 NA
BRANCH   8   9
ATOM      9  C   UNL     1       0.939   3.736  17.965  0.00  0.00    +0.000 C 
BRANCH   9  10
ATOM     10  C   UNL     1       1.088   2.386  18.679  0.00  0.00    +0.000 C 
BRANCH  10  11
ATOM     11  N   UNL     1       1.712   2.522  19.986  0.00  0.00    +0.000 N 
ATOM     12  C   UNL     1       1.128   2.998  21.126  0.00  0.00    +0.000 A 
ATOM     13  C   UNL     1       2.062   2.843  22.124  0.00  0.00    +0.000 A 
ATOM     14  C   UNL     1       3.179   2.278  21.482  0.00  0.00    +0.000 A 
ATOM     15  N   UNL     1       2.972   2.082  20.178  0.00  0.00    +0.000 NA
ENDBRANCH  10  11
ENDBRANCH   9  10
ENDBRANCH   8   9
ENDBRANCH   1   8
BRANCH   5  16
ATOM     16  C   UNL     1       5.687   7.110  16.883  0.00  0.00    +0.000 C 
BRANCH  16  17
ATOM     17  C   UNL     1       6.290   6.158  15.894  0.00  0.00    +0.000 A 
ATOM     18  N   UNL     1       7.597   5.861  15.851  0.00  0.00    +0.000 NA
ATOM     19  O   UNL     1       7.652   4.812  14.928  0.00  0.00    +0.000 OA
ATOM     20  C   UNL     1       6.373   4.599  14.496  0.00  0.00    +0.000 A 
ATOM     21  N   UNL     1       5.510   5.447  15.013  0.00  0.00    +0.000 NA
BRANCH  20  22
ATOM     22  C   UNL     1       5.976   3.468  13.563  0.00  0.00    +0.000 C 
ATOM     23  C   UNL     1       5.113   3.816  12.361  0.00  0.00    +0.000 C 
ATOM     24  C   UNL     1       6.541   3.446  12.158  0.00  0.00    +0.000 C 
ENDBRANCH  20  22
ENDBRANCH  16  17
ENDBRANCH   5  16
TORSDOF 7
ENDMDL
MODEL 5
REMARK VINA RESULT:      -6.4      1.946      2.207
REMARK  Name = 
REMARK  8 active torsions:
REMARK  status: ('A' for Active; 'I' for Inactive)
REMARK    1  A    between atoms: C_1  and  N_2
REMARK    2  A    between atoms: N_2  and  C_3
REMARK    3  A    between atoms: N_2  and  C_10
REMARK    4  A    between atoms: C_3  and  C_4
REMARK    5  A    between atoms: C_4  and  N_5
REMARK    6  A    between atoms: N_14  and  C_15
REMARK    7  A    between atoms: C_15  and  C_16
REMARK    8  A    between atoms: C_19  and  C_20
REMARK                            x       y       z     vdW  Elec       q    Type
REMARK                         _______ _______ _______ _____ _____    ______ ____
ROOT
ATOM      1  C   UNL     1       5.230   4.279  18.549  0.00  0.00    +0.000 C 
ATOM      2  C   UNL     1       4.272   3.196  17.991  0.00  0.00    +0.000 C 
ATOM      3  C   UNL     1       3.078   3.820  17.281  0.00  0.00    +0.000 C 
ATOM      4  C   UNL     1       2.322   4.771  18.208  0.00  0.00    +0.000 C 
ATOM      5  N   UNL     1       3.206   5.815  18.752  0.00  0.00    +0.000 NA
ATOM      6  C   UNL     1       4.341   5.196  19.466  0.00  0.00    +0.000 C 
ENDROOT
BRANCH   1   8
ATOM      7  C   UNL     1       7.369   5.291  17.897  0.00  0.00    +0.000 C 
ATOM      8  N   UNL     1       5.987   5.002  17.474  0.00  0.00    +0.000 NA
BRANCH   8   9
ATOM      9  C   UNL     1       6.010   4.231  16.202  0.00  0.00    +0.000 C 
BRANCH   9  10
ATOM     10  C   UNL     1       5.446   4.977  14.985  0.00  0.00    +0.000 C 
BRANCH  10  11
ATOM     11  N   UNL     1       5.824   4.347  13.730  0.00  0.00    +0.000 N 
ATOM     12  C   UNL     1       7.076   4.287  13.190  0.00  0.00    +0.000 A 
ATOM     13  C   UNL     1       6.966   3.509  12.060  0.00  0.00    +0.000 A 
ATOM     14  C   UNL     1       5.604   3.161  12.000  0.00  0.00    +0.000 A 
ATOM     15  N   UNL     1       4.903   3.670  13.014  0.00  0.00    +0.000 NA
ENDBRANCH  10  11
ENDBRANCH   9  10
ENDBRANCH   8   9
ENDBRANCH   1   8
BRANCH   5  16
ATOM     16  C   UNL     1       2.480   6.751  19.644  0.00  0.00    +0.000 C 
BRANCH  16  17
ATOM     17  C   UNL     1       2.149   8.039  18.951  0.00  0.00    +0.000 A 
ATOM     18  N   UNL     1       2.564   8.344  17.713  0.00  0.00    +0.000 NA
ATOM     19  O   UNL     1       1.862   9.519  17.425  0.00  0.00    +0.000 OA
ATOM     20  C   UNL     1       1.113   9.810  18.530  0.00  0.00    +0.000 A 
ATOM     21  N   UNL     1       1.306   8.965  19.519  0.00  0.00    +0.000 NA
BRANCH  20  22
ATOM     22  C   UNL     1       0.116  10.955  18.593  0.00  0.00    +0.000 C 
ATOM     23  C   UNL     1      -1.308  10.677  18.139  0.00  0.00    +0.000 C 
ATOM     24  C   UNL     1      -1.024  10.879  19.586  0.00  0.00    +0.000 C 
ENDBRANCH  20  22
ENDBRANCH  16  17
ENDBRANCH   5  16
TORSDOF 7
ENDMDL
MODEL 6
REMARK VINA RESULT:      -6.4      2.319      8.411
REMARK  Name = 
REMARK  8 active torsions:
REMARK  status: ('A' for Active; 'I' for Inactive)
REMARK    1  A    between atoms: C_1  and  N_2
REMARK    2  A    between atoms: N_2  and  C_3
REMARK    3  A    between atoms: N_2  and  C_10
REMARK    4  A    between atoms: C_3  and  C_4
REMARK    5  A    between atoms: C_4  and  N_5
REMARK    6  A    between atoms: N_14  and  C_15
REMARK    7  A    between atoms: C_15  and  C_16
REMARK    8  A    between atoms: C_19  and  C_20
REMARK                            x       y       z     vdW  Elec       q    Type
REMARK                         _______ _______ _______ _____ _____    ______ ____
ROOT
ATOM      1  C   UNL     1       2.845   6.057  17.927  0.00  0.00    +0.000 C 
ATOM      2  C   UNL     1       2.270   4.829  18.677  0.00  0.00    +0.000 C 
ATOM      3  C   UNL     1       3.170   4.408  19.831  0.00  0.00    +0.000 C 
ATOM      4  C   UNL     1       4.589   4.118  19.344  0.00  0.00    +0.000 C 
ATOM      5  N   UNL     1       5.164   5.269  18.630  0.00  0.00    +0.000 NA
ATOM      6  C   UNL     1       4.298   5.645  17.494  0.00  0.00    +0.000 C 
ENDROOT
BRANCH   1   8
ATOM      7  C   UNL     1       2.770   8.510  17.850  0.00  0.00    +0.000 C 
ATOM      8  N   UNL     1       2.757   7.325  18.726  0.00  0.00    +0.000 NA
BRANCH   8   9
ATOM      9  C   UNL     1       1.540   7.355  19.581  0.00  0.00    +0.000 C 
BRANCH   9  10
ATOM     10  C   UNL     1       1.683   8.162  20.878  0.00  0.00    +0.000 C 
BRANCH  10  11
ATOM     11  N   UNL     1       0.890   9.382  20.857  0.00  0.00    +0.000 N 
ATOM     12  C   UNL     1      -0.055   9.727  19.934  0.00  0.00    +0.000 A 
ATOM     13  C   UNL     1      -0.607  10.906  20.377  0.00  0.00    +0.000 A 
ATOM     14  C   UNL     1       0.083  11.195  21.569  0.00  0.00    +0.000 A 
ATOM     15  N   UNL     1       0.997  10.270  21.865  0.00  0.00    +0.000 NA
ENDBRANCH  10  11
ENDBRANCH   9  10
ENDBRANCH   8   9
ENDBRANCH   1   8
BRANCH   5  16
ATOM     16  C   UNL     1       6.546   5.003  18.162  0.00  0.00    +0.000 C 
BRANCH  16  17
ATOM     17  C   UNL     1       6.640   5.010  16.666  0.00  0.00    +0.000 A 
ATOM     18  N   UNL     1       7.343   5.916  15.970  0.00  0.00    +0.000 NA
ATOM     19  O   UNL     1       7.300   5.413  14.665  0.00  0.00    +0.000 OA
ATOM     20  C   UNL     1       6.557   4.268  14.708  0.00  0.00    +0.000 A 
ATOM     21  N   UNL     1       6.074   4.014  15.905  0.00  0.00    +0.000 NA
BRANCH  20  22
ATOM     22  C   UNL     1       6.356   3.349  13.515  0.00  0.00    +0.000 C 
ATOM     23  C   UNL     1       5.271   3.718  12.516  0.00  0.00    +0.000 C 
ATOM     24  C   UNL     1       6.703   3.859  12.132  0.00  0.00    +0.000 C 
ENDBRANCH  20  22
ENDBRANCH  16  17
ENDBRANCH   5  16
TORSDOF 7
ENDMDL
MODEL 7
REMARK VINA RESULT:      -6.3      2.363      7.499
REMARK  Name = 
REMARK  8 active torsions:
REMARK  status: ('A' for Active; 'I' for Inactive)
REMARK    1  A    between atoms: C_1  and  N_2
REMARK    2  A    between atoms: N_2  and  C_3
REMARK    3  A    between atoms: N_2  and  C_10
REMARK    4  A    between atoms: C_3  and  C_4
REMARK    5  A    between atoms: C_4  and  N_5
REMARK    6  A    between atoms: N_14  and  C_15
REMARK    7  A    between atoms: C_15  and  C_16
REMARK    8  A    between atoms: C_19  and  C_20
REMARK                            x       y       z     vdW  Elec       q    Type
REMARK                         _______ _______ _______ _____ _____    ______ ____
ROOT
ATOM      1  C   UNL     1       1.789   4.700  18.926  0.00  0.00    +0.000 C 
ATOM      2  C   UNL     1       1.244   3.438  19.641  0.00  0.00    +0.000 C 
ATOM      3  C   UNL     1       2.355   2.437  19.931  0.00  0.00    +0.000 C 
ATOM      4  C   UNL     1       3.090   2.047  18.650  0.00  0.00    +0.000 C 
ATOM      5  N   UNL     1       3.624   3.226  17.949  0.00  0.00    +0.000 NA
ATOM      6  C   UNL     1       2.531   4.172  17.645  0.00  0.00    +0.000 C 
ENDROOT
BRANCH   1   8
ATOM      7  C   UNL     1       3.644   6.303  19.060  0.00  0.00    +0.000 C 
ATOM      8  N   UNL     1       2.618   5.571  19.824  0.00  0.00    +0.000 NA
BRANCH   8   9
ATOM      9  C   UNL     1       1.779   6.540  20.580  0.00  0.00    +0.000 C 
BRANCH   9  10
ATOM     10  C   UNL     1       1.774   7.967  20.015  0.00  0.00    +0.000 C 
BRANCH  10  11
ATOM     11  N   UNL     1       1.019   8.886  20.852  0.00  0.00    +0.000 N 
ATOM     12  C   UNL     1       0.115   9.819  20.433  0.00  0.00    +0.000 A 
ATOM     13  C   UNL     1      -0.415  10.374  21.575  0.00  0.00    +0.000 A 
ATOM     14  C   UNL     1       0.244   9.717  22.629  0.00  0.00    +0.000 A 
ATOM     15  N   UNL     1       1.121   8.810  22.195  0.00  0.00    +0.000 NA
ENDBRANCH  10  11
ENDBRANCH   9  10
ENDBRANCH   8   9
ENDBRANCH   1   8
BRANCH   5  16
ATOM     16  C   UNL     1       4.350   2.858  16.709  0.00  0.00    +0.000 C 
BRANCH  16  17
ATOM     17  C   UNL     1       5.275   3.949  16.259  0.00  0.00    +0.000 A 
ATOM     18  N   UNL     1       5.172   4.568  15.074  0.00  0.00    +0.000 NA
ATOM     19  O   UNL     1       6.095   5.613  15.183  0.00  0.00    +0.000 OA
ATOM     20  C   UNL     1       6.673   5.501  16.415  0.00  0.00    +0.000 A 
ATOM     21  N   UNL     1       6.249   4.453  17.088  0.00  0.00    +0.000 NA
BRANCH  20  22
ATOM     22  C   UNL     1       7.660   6.510  16.978  0.00  0.00    +0.000 C 
ATOM     23  C   UNL     1       7.094   7.745  17.661  0.00  0.00    +0.000 C 
ATOM     24  C   UNL     1       7.750   6.688  18.478  0.00  0.00    +0.000 C 
ENDBRANCH  20  22
ENDBRANCH  16  17
ENDBRANCH   5  16
TORSDOF 7
ENDMDL
MODEL 8
REMARK VINA RESULT:      -6.3      2.795      8.271
REMARK  Name = 
REMARK  8 active torsions:
REMARK  status: ('A' for Active; 'I' for Inactive)
REMARK    1  A    between atoms: C_1  and  N_2
REMARK    2  A    between atoms: N_2  and  C_3
REMARK    3  A    between atoms: N_2  and  C_10
REMARK    4  A    between atoms: C_3  and  C_4
REMARK    5  A    between atoms: C_4  and  N_5
REMARK    6  A    between atoms: N_14  and  C_15
REMARK    7  A    between atoms: C_15  and  C_16
REMARK    8  A    between atoms: C_19  and  C_20
REMARK                            x       y       z     vdW  Elec       q    Type
REMARK                         _______ _______ _______ _____ _____    ______ ____
ROOT
ATOM      1  C   UNL     1       3.493   5.325  17.527  0.00  0.00    +0.000 C 
ATOM      2  C   UNL     1       2.813   4.006  17.083  0.00  0.00    +0.000 C 
ATOM      3  C   UNL     1       3.664   2.793  17.436  0.00  0.00    +0.000 C 
ATOM      4  C   UNL     1       5.059   2.904  16.822  0.00  0.00    +0.000 C 
ATOM      5  N   UNL     1       5.733   4.148  17.229  0.00  0.00    +0.000 NA
ATOM      6  C   UNL     1       4.912   5.316  16.852  0.00  0.00    +0.000 C 
ENDROOT
BRANCH   1   8
ATOM      7  C   UNL     1       4.841   5.889  19.500  0.00  0.00    +0.000 C 
ATOM      8  N   UNL     1       3.502   5.509  19.017  0.00  0.00    +0.000 NA
BRANCH   8   9
ATOM      9  C   UNL     1       2.510   6.529  19.453  0.00  0.00    +0.000 C 
BRANCH   9  10
ATOM     10  C   UNL     1       1.671   6.132  20.675  0.00  0.00    +0.000 C 
BRANCH  10  11
ATOM     11  N   UNL     1       1.573   4.689  20.829  0.00  0.00    +0.000 N 
ATOM     12  C   UNL     1       0.808   3.838  20.084  0.00  0.00    +0.000 A 
ATOM     13  C   UNL     1       1.116   2.570  20.521  0.00  0.00    +0.000 A 
ATOM     14  C   UNL     1       2.067   2.766  21.539  0.00  0.00    +0.000 A 
ATOM     15  N   UNL     1       2.348   4.055  21.732  0.00  0.00    +0.000 NA
ENDBRANCH  10  11
ENDBRANCH   9  10
ENDBRANCH   8   9
ENDBRANCH   1   8
BRANCH   5  16
ATOM     16  C   UNL     1       7.094   4.261  16.649  0.00  0.00    +0.000 C 
BRANCH  16  17
ATOM     17  C   UNL     1       7.051   4.567  15.181  0.00  0.00    +0.000 A 
ATOM     18  N   UNL     1       7.759   5.550  14.606  0.00  0.00    +0.000 NA
ATOM     19  O   UNL     1       7.556   5.327  13.240  0.00  0.00    +0.000 OA
ATOM     20  C   UNL     1       6.728   4.246  13.136  0.00  0.00    +0.000 A 
ATOM     21  N   UNL     1       6.337   3.784  14.304  0.00  0.00    +0.000 NA
BRANCH  20  22
ATOM     22  C   UNL     1       6.343   3.604  11.814  0.00  0.00    +0.000 C 
ATOM     23  C   UNL     1       7.055   2.320  11.420  0.00  0.00    +0.000 C 
ATOM     24  C   UNL     1       5.625   2.271  11.829  0.00  0.00    +0.000 C 
ENDBRANCH  20  22
ENDBRANCH  16  17
ENDBRANCH   5  16
TORSDOF 7
ENDMDL
MODEL 9
REMARK VINA RESULT:      -6.2      1.634      1.937
REMARK  Name = 
REMARK  8 active torsions:
REMARK  status: ('A' for Active; 'I' for Inactive)
REMARK    1  A    between atoms: C_1  and  N_2
REMARK    2  A    between atoms: N_2  and  C_3
REMARK    3  A    between atoms: N_2  and  C_10
REMARK    4  A    between atoms: C_3  and  C_4
REMARK    5  A    between atoms: C_4  and  N_5
REMARK    6  A    between atoms: N_14  and  C_15
REMARK    7  A    between atoms: C_15  and  C_16
REMARK    8  A    between atoms: C_19  and  C_20
REMARK                            x       y       z     vdW  Elec       q    Type
REMARK                         _______ _______ _______ _____ _____    ______ ____
ROOT
ATOM      1  C   UNL     1       4.511   4.551  18.309  0.00  0.00    +0.000 C 
ATOM      2  C   UNL     1       3.654   3.261  18.316  0.00  0.00    +0.000 C 
ATOM      3  C   UNL     1       2.172   3.575  18.157  0.00  0.00    +0.000 C 
ATOM      4  C   UNL     1       1.694   4.535  19.245  0.00  0.00    +0.000 C 
ATOM      5  N   UNL     1       2.489   5.774  19.262  0.00  0.00    +0.000 NA
ATOM      6  C   UNL     1       3.919   5.457  19.449  0.00  0.00    +0.000 C 
ENDROOT
BRANCH   1   8
ATOM      7  C   UNL     1       5.427   6.409  16.991  0.00  0.00    +0.000 C 
ATOM      8  N   UNL     1       4.584   5.201  16.958  0.00  0.00    +0.000 NA
BRANCH   8   9
ATOM      9  C   UNL     1       5.101   4.264  15.924  0.00  0.00    +0.000 C 
BRANCH   9  10
ATOM     10  C   UNL     1       6.553   4.516  15.495  0.00  0.00    +0.000 C 
BRANCH  10  11
ATOM     11  N   UNL     1       6.725   4.416  14.054  0.00  0.00    +0.000 N 
ATOM     12  C   UNL     1       7.576   5.152  13.279  0.00  0.00    +0.000 A 
ATOM     13  C   UNL     1       7.469   4.640  12.007  0.00  0.00    +0.000 A 
ATOM     14  C   UNL     1       6.519   3.609  12.117  0.00  0.00    +0.000 A 
ATOM     15  N   UNL     1       6.061   3.469  13.362  0.00  0.00    +0.000 NA
ENDBRANCH  10  11
ENDBRANCH   9  10
ENDBRANCH   8   9
ENDBRANCH   1   8
BRANCH   5  16
ATOM     16  C   UNL     1       2.026   6.720  20.307  0.00  0.00    +0.000 C 
BRANCH  16  17
ATOM     17  C   UNL     1       1.764   8.086  19.747  0.00  0.00    +0.000 A 
ATOM     18  N   UNL     1       2.107   8.458  18.505  0.00  0.00    +0.000 NA
ATOM     19  O   UNL     1       1.499   9.711  18.372  0.00  0.00    +0.000 OA
ATOM     20  C   UNL     1       0.872   9.972  19.557  0.00  0.00    +0.000 A 
ATOM     21  N   UNL     1       1.062   9.032  20.457  0.00  0.00    +0.000 NA
BRANCH  20  22
ATOM     22  C   UNL     1      -0.003  11.191  19.796  0.00  0.00    +0.000 C 
ATOM     23  C   UNL     1       0.668  12.447  20.327  0.00  0.00    +0.000 C 
ATOM     24  C   UNL     1       0.186  12.411  18.919  0.00  0.00    +0.000 C 
ENDBRANCH  20  22
ENDBRANCH  16  17
ENDBRANCH   5  16
TORSDOF 7
ENDMDL
