MODEL 1
REMARK VINA RESULT:      -7.5      0.000      0.000
REMARK  Name = 
REMARK  3 active torsions:
REMARK  status: ('A' for Active; 'I' for Inactive)
REMARK    1  A    between atoms: C_1  and  C_2
REMARK    2  A    between atoms: C_6  and  C_7
REMARK    3  A    between atoms: C_7  and  N_8
REMARK                            x       y       z     vdW  Elec       q    Type
REMARK                         _______ _______ _______ _____ _____    ______ ____
ROOT
ATOM      1  N   UNL     1       3.161   5.981  19.140  0.00  0.00    +0.000 N 
ATOM      2  C   UNL     1       3.482   6.488  17.897  0.00  0.00    +0.000 A 
ATOM      3  C   UNL     1       3.098   7.712  17.529  0.00  0.00    +0.000 A 
ATOM      4  C   UNL     1       2.284   8.519  18.411  0.00  0.00    +0.000 A 
ATOM      5  C   UNL     1       1.850   8.043  19.602  0.00  0.00    +0.000 A 
ATOM      6  C   UNL     1       2.339   6.669  20.039  0.00  0.00    +0.000 A 
ATOM      7  O   UNL     1       2.039   6.195  21.134  0.00  0.00    +0.000 OA
ATOM      8  C   UNL     1       0.973   8.840  20.427  0.00  0.00    +0.000 A 
ATOM      9  C   UNL     1       0.362   8.522  21.677  0.00  0.00    +0.000 A 
ATOM     10  C   UNL     1      -0.451   9.536  22.140  0.00  0.00    +0.000 A 
ATOM     11  S   UNL     1      -0.467  10.877  21.084  0.00  0.00    +0.000 S 
ATOM     12  C   UNL     1       0.594  10.098  19.999  0.00  0.00    +0.000 A 
ATOM     13  C   UNL     1       1.005  10.765  18.730  0.00  0.00    +0.000 C 
ATOM     14  C   UNL     1       1.964   9.905  17.891  0.00  0.00    +0.000 C 
ENDROOT
BRANCH   1  15
ATOM     15  C   UNL     1       3.797   4.730  19.578  0.00  0.00    +0.000 C 
BRANCH  15  21
ATOM     16  C   UNL     1       1.277   2.847  20.998  0.00  0.00    +0.000 C 
ATOM     17  C   UNL     1       1.997   2.784  19.701  0.00  0.00    +0.000 A 
ATOM     18  N   UNL     1       1.694   1.804  18.787  0.00  0.00    +0.000 N 
ATOM     19  C   UNL     1       2.488   1.982  17.695  0.00  0.00    +0.000 A 
ATOM     20  N   UNL     1       3.303   3.007  17.860  0.00  0.00    +0.000 NA
ATOM     21  C   UNL     1       3.025   3.519  19.114  0.00  0.00    +0.000 A 
ATOM     22  H   UNL     1       1.004   1.074  18.899  0.00  0.00    +0.000 HD
ENDBRANCH  15  21
ENDBRANCH   1  15
TORSDOF 2
ENDMDL
MODEL 2
REMARK VINA RESULT:      -7.5      2.632      4.188
REMARK  Name = 
REMARK  3 active torsions:
REMARK  status: ('A' for Active; 'I' for Inactive)
REMARK    1  A    between atoms: C_1  and  C_2
REMARK    2  A    between atoms: C_6  and  C_7
REMARK    3  A    between atoms: C_7  and  N_8
REMARK                            x       y       z     vdW  Elec       q    Type
REMARK                         _______ _______ _______ _____ _____    ______ ____
ROOT
ATOM      1  N   UNL     1       3.622   4.652  18.491  0.00  0.00    +0.000 N 
ATOM      2  C   UNL     1       3.263   4.122  19.714  0.00  0.00    +0.000 A 
ATOM      3  C   UNL     1       2.500   4.808  20.568  0.00  0.00    +0.000 A 
ATOM      4  C   UNL     1       2.076   6.154  20.251  0.00  0.00    +0.000 A 
ATOM      5  C   UNL     1       2.476   6.770  19.114  0.00  0.00    +0.000 A 
ATOM      6  C   UNL     1       3.298   5.961  18.119  0.00  0.00    +0.000 A 
ATOM      7  O   UNL     1       3.645   6.430  17.037  0.00  0.00    +0.000 OA
ATOM      8  C   UNL     1       2.103   8.141  18.860  0.00  0.00    +0.000 A 
ATOM      9  C   UNL     1       2.450   8.991  17.767  0.00  0.00    +0.000 A 
ATOM     10  C   UNL     1       1.929  10.261  17.901  0.00  0.00    +0.000 A 
ATOM     11  S   UNL     1       1.009  10.429  19.329  0.00  0.00    +0.000 S 
ATOM     12  C   UNL     1       1.321   8.814  19.779  0.00  0.00    +0.000 A 
ATOM     13  C   UNL     1       0.787   8.266  21.059  0.00  0.00    +0.000 C 
ATOM     14  C   UNL     1       1.174   6.796  21.284  0.00  0.00    +0.000 C 
ENDROOT
BRANCH   1  15
ATOM     15  C   UNL     1       4.264   3.774  17.502  0.00  0.00    +0.000 C 
BRANCH  15  21
ATOM     16  C   UNL     1       6.240   4.113  14.692  0.00  0.00    +0.000 C 
ATOM     17  C   UNL     1       6.489   4.281  16.146  0.00  0.00    +0.000 A 
ATOM     18  N   UNL     1       7.737   4.634  16.600  0.00  0.00    +0.000 N 
ATOM     19  C   UNL     1       7.685   4.725  17.958  0.00  0.00    +0.000 A 
ATOM     20  N   UNL     1       6.481   4.429  18.410  0.00  0.00    +0.000 NA
ATOM     21  C   UNL     1       5.716   4.133  17.296  0.00  0.00    +0.000 A 
ATOM     22  H   UNL     1       8.556   4.798  16.031  0.00  0.00    +0.000 HD
ENDBRANCH  15  21
ENDBRANCH   1  15
TORSDOF 2
ENDMDL
MODEL 3
REMARK VINA RESULT:      -7.4      1.209      1.441
REMARK  Name = 
REMARK  3 active torsions:
REMARK  status: ('A' for Active; 'I' for Inactive)
REMARK    1  A    between atoms: C_1  and  C_2
REMARK    2  A    between atoms: C_6  and  C_7
REMARK    3  A    between atoms: C_7  and  N_8
REMARK                            x       y       z     vdW  Elec       q    Type
REMARK                         _______ _______ _______ _____ _____    ______ ____
ROOT
ATOM      1  N   UNL     1       2.499   7.218  19.199  0.00  0.00    +0.000 N 
ATOM      2  C   UNL     1       2.512   7.848  17.971  0.00  0.00    +0.000 A 
ATOM      3  C   UNL     1       1.937   9.041  17.799  0.00  0.00    +0.000 A 
ATOM      4  C   UNL     1       1.235   9.677  18.891  0.00  0.00    +0.000 A 
ATOM      5  C   UNL     1       1.099   9.068  20.093  0.00  0.00    +0.000 A 
ATOM      6  C   UNL     1       1.806   7.735  20.298  0.00  0.00    +0.000 A 
ATOM      7  O   UNL     1       1.781   7.151  21.380  0.00  0.00    +0.000 OA
ATOM      8  C   UNL     1       0.326   9.692  21.141  0.00  0.00    +0.000 A 
ATOM      9  C   UNL     1       0.012   9.213  22.448  0.00  0.00    +0.000 A 
ATOM     10  C   UNL     1      -0.794  10.086  23.150  0.00  0.00    +0.000 A 
ATOM     11  S   UNL     1      -1.160  11.488  22.247  0.00  0.00    +0.000 S 
ATOM     12  C   UNL     1      -0.260  10.923  20.912  0.00  0.00    +0.000 A 
ATOM     13  C   UNL     1      -0.181  11.724  19.657  0.00  0.00    +0.000 C 
ATOM     14  C   UNL     1       0.675  11.048  18.574  0.00  0.00    +0.000 C 
ENDROOT
BRANCH   1  15
ATOM     15  C   UNL     1       3.337   6.025  19.389  0.00  0.00    +0.000 C 
BRANCH  15  21
ATOM     16  C   UNL     1       0.799   3.907  20.382  0.00  0.00    +0.000 C 
ATOM     17  C   UNL     1       1.672   3.968  19.182  0.00  0.00    +0.000 A 
ATOM     18  N   UNL     1       1.550   3.029  18.187  0.00  0.00    +0.000 N 
ATOM     19  C   UNL     1       2.456   3.322  17.214  0.00  0.00    +0.000 A 
ATOM     20  N   UNL     1       3.173   4.383  17.532  0.00  0.00    +0.000 NA
ATOM     21  C   UNL     1       2.712   4.799  18.769  0.00  0.00    +0.000 A 
ATOM     22  H   UNL     1       0.903   2.252  18.173  0.00  0.00    +0.000 HD
ENDBRANCH  15  21
ENDBRANCH   1  15
TORSDOF 2
ENDMDL
MODEL 4
REMARK VINA RESULT:      -7.2      2.040      3.053
REMARK  Name = 
REMARK  3 active torsions:
REMARK  status: ('A' for Active; 'I' for Inactive)
REMARK    1  A    between atoms: C_1  and  C_2
REMARK    2  A    between atoms: C_6  and  C_7
REMARK    3  A    between atoms: C_7  and  N_8
REMARK                            x       y       z     vdW  Elec       q    Type
REMARK                         _______ _______ _______ _____ _____    ______ ____
ROOT
ATOM      1  N   UNL     1       3.512   5.939  18.686  0.00  0.00    +0.000 N 
ATOM      2  C   UNL     1       3.752   6.584  17.489  0.00  0.00    +0.000 A 
ATOM      3  C   UNL     1       3.270   7.806  17.253  0.00  0.00    +0.000 A 
ATOM      4  C   UNL     1       2.433   8.464  18.233  0.00  0.00    +0.000 A 
ATOM      5  C   UNL     1       2.077   7.847  19.384  0.00  0.00    +0.000 A 
ATOM      6  C   UNL     1       2.678   6.477  19.671  0.00  0.00    +0.000 A 
ATOM      7  O   UNL     1       2.452   5.881  20.723  0.00  0.00    +0.000 OA
ATOM      8  C   UNL     1       1.177   8.495  20.309  0.00  0.00    +0.000 A 
ATOM      9  C   UNL     1       0.636   8.016  21.539  0.00  0.00    +0.000 A 
ATOM     10  C   UNL     1      -0.229   8.919  22.122  0.00  0.00    +0.000 A 
ATOM     11  S   UNL     1      -0.378  10.349  21.202  0.00  0.00    +0.000 S 
ATOM     12  C   UNL     1       0.695   9.757  20.016  0.00  0.00    +0.000 A 
ATOM     13  C   UNL     1       1.013  10.569  18.806  0.00  0.00    +0.000 C 
ATOM     14  C   UNL     1       1.998   9.865  17.860  0.00  0.00    +0.000 C 
ENDROOT
BRANCH   1  15
ATOM     15  C   UNL     1       4.251   4.703  18.982  0.00  0.00    +0.000 C 
BRANCH  15  21
ATOM     16  C   UNL     1       6.074   4.002  16.136  0.00  0.00    +0.000 C 
ATOM     17  C   UNL     1       6.426   4.556  17.468  0.00  0.00    +0.000 A 
ATOM     18  N   UNL     1       7.726   4.891  17.758  0.00  0.00    +0.000 N 
ATOM     19  C   UNL     1       7.766   5.375  19.030  0.00  0.00    +0.000 A 
ATOM     20  N   UNL     1       6.570   5.353  19.587  0.00  0.00    +0.000 NA
ATOM     21  C   UNL     1       5.714   4.830  18.634  0.00  0.00    +0.000 A 
ATOM     22  H   UNL     1       8.521   4.795  17.140  0.00  0.00    +0.000 HD
ENDBRANCH  15  21
ENDBRANCH   1  15
TORSDOF 2
ENDMDL
MODEL 5
REMARK VINA RESULT:      -7.1      1.392      1.991
REMARK  Name = 
REMARK  3 active torsions:
REMARK  status: ('A' for Active; 'I' for Inactive)
REMARK    1  A    between atoms: C_1  and  C_2
REMARK    2  A    between atoms: C_6  and  C_7
REMARK    3  A    between atoms: C_7  and  N_8
REMARK                            x       y       z     vdW  Elec       q    Type
REMARK                         _______ _______ _______ _____ _____    ______ ____
ROOT
ATOM      1  N   UNL     1       2.420   7.160  19.266  0.00  0.00    +0.000 N 
ATOM      2  C   UNL     1       2.448   7.763  18.024  0.00  0.00    +0.000 A 
ATOM      3  C   UNL     1       1.898   8.963  17.825  0.00  0.00    +0.000 A 
ATOM      4  C   UNL     1       1.207   9.638  18.901  0.00  0.00    +0.000 A 
ATOM      5  C   UNL     1       1.056   9.059  20.115  0.00  0.00    +0.000 A 
ATOM      6  C   UNL     1       1.735   7.716  20.351  0.00  0.00    +0.000 A 
ATOM      7  O   UNL     1       1.696   7.157  21.446  0.00  0.00    +0.000 OA
ATOM      8  C   UNL     1       0.294   9.721  21.147  0.00  0.00    +0.000 A 
ATOM      9  C   UNL     1      -0.032   9.278  22.464  0.00  0.00    +0.000 A 
ATOM     10  C   UNL     1      -0.821  10.182  23.144  0.00  0.00    +0.000 A 
ATOM     11  S   UNL     1      -1.157  11.571  22.210  0.00  0.00    +0.000 S 
ATOM     12  C   UNL     1      -0.267  10.958  20.890  0.00  0.00    +0.000 A 
ATOM     13  C   UNL     1      -0.168  11.730  19.618  0.00  0.00    +0.000 C 
ATOM     14  C   UNL     1       0.676  11.013  18.552  0.00  0.00    +0.000 C 
ENDROOT
BRANCH   1  15
ATOM     15  C   UNL     1       3.233   5.955  19.484  0.00  0.00    +0.000 C 
BRANCH  15  21
ATOM     16  C   UNL     1       4.275   4.102  16.765  0.00  0.00    +0.000 C 
ATOM     17  C   UNL     1       3.108   4.013  17.678  0.00  0.00    +0.000 A 
ATOM     18  N   UNL     1       2.161   3.034  17.501  0.00  0.00    +0.000 N 
ATOM     19  C   UNL     1       1.215   3.177  18.470  0.00  0.00    +0.000 A 
ATOM     20  N   UNL     1       1.484   4.206  19.251  0.00  0.00    +0.000 NA
ATOM     21  C   UNL     1       2.658   4.757  18.767  0.00  0.00    +0.000 A 
ATOM     22  H   UNL     1       2.159   2.327  16.778  0.00  0.00    +0.000 HD
ENDBRANCH  15  21
ENDBRANCH   1  15
TORSDOF 2
ENDMDL
MODEL 6
REMARK VINA RESULT:      -7.1      1.438      2.041
REMARK  Name = 
REMARK  3 active torsions:
REMARK  status: ('A' for Active; 'I' for Inactive)
REMARK    1  A    between atoms: C_1  and  C_2
REMARK    2  A    between atoms: C_6  and  C_7
REMARK    3  A    between atoms: C_7  and  N_8
REMARK                            x       y       z     vdW  Elec       q    Type
REMARK                         _______ _______ _______ _____ _____    ______ ____
ROOT
ATOM      1  N   UNL     1       2.303   7.208  19.501  0.00  0.00    +0.000 N 
ATOM      2  C   UNL     1       2.369   7.720  18.221  0.00  0.00    +0.000 A 
ATOM      3  C   UNL     1       1.839   8.908  17.923  0.00  0.00    +0.000 A 
ATOM      4  C   UNL     1       1.132   9.666  18.930  0.00  0.00    +0.000 A 
ATOM      5  C   UNL     1       0.944   9.178  20.179  0.00  0.00    +0.000 A 
ATOM      6  C   UNL     1       1.600   7.848  20.527  0.00  0.00    +0.000 A 
ATOM      7  O   UNL     1       1.527   7.369  21.658  0.00  0.00    +0.000 OA
ATOM      8  C   UNL     1       0.166   9.921  21.142  0.00  0.00    +0.000 A 
ATOM      9  C   UNL     1      -0.196   9.577  22.478  0.00  0.00    +0.000 A 
ATOM     10  C   UNL     1      -0.990  10.537  23.073  0.00  0.00    +0.000 A 
ATOM     11  S   UNL     1      -1.285  11.859  22.033  0.00  0.00    +0.000 S 
ATOM     12  C   UNL     1      -0.372  11.143  20.783  0.00  0.00    +0.000 A 
ATOM     13  C   UNL     1      -0.233  11.819  19.461  0.00  0.00    +0.000 C 
ATOM     14  C   UNL     1       0.627  11.018  18.471  0.00  0.00    +0.000 C 
ENDROOT
BRANCH   1  15
ATOM     15  C   UNL     1       3.095   6.012  19.825  0.00  0.00    +0.000 C 
BRANCH  15  21
ATOM     16  C   UNL     1       1.392   4.147  17.473  0.00  0.00    +0.000 C 
ATOM     17  C   UNL     1       1.566   4.030  18.943  0.00  0.00    +0.000 A 
ATOM     18  N   UNL     1       0.959   3.010  19.634  0.00  0.00    +0.000 N 
ATOM     19  C   UNL     1       1.286   3.135  20.950  0.00  0.00    +0.000 A 
ATOM     20  N   UNL     1       2.052   4.190  21.153  0.00  0.00    +0.000 NA
ATOM     21  C   UNL     1       2.231   4.778  19.913  0.00  0.00    +0.000 A 
ATOM     22  H   UNL     1       0.369   2.289  19.241  0.00  0.00    +0.000 HD
ENDBRANCH  15  21
ENDBRANCH   1  15
TORSDOF 2
ENDMDL
MODEL 7
REMARK VINA RESULT:      -7.1      0.824      1.227
REMARK  Name = 
REMARK  3 active torsions:
REMARK  status: ('A' for Active; 'I' for Inactive)
REMARK    1  A    between atoms: C_1  and  C_2
REMARK    2  A    between atoms: C_6  and  C_7
REMARK    3  A    between atoms: C_7  and  N_8
REMARK                            x       y       z     vdW  Elec       q    Type
REMARK                         _______ _______ _______ _____ _____    ______ ____
ROOT
ATOM      1  N   UNL     1       2.842   5.867  19.217  0.00  0.00    +0.000 N 
ATOM      2  C   UNL     1       3.192   6.317  17.959  0.00  0.00    +0.000 A 
ATOM      3  C   UNL     1       2.929   7.567  17.574  0.00  0.00    +0.000 A 
ATOM      4  C   UNL     1       2.218   8.469  18.454  0.00  0.00    +0.000 A 
ATOM      5  C   UNL     1       1.758   8.061  19.660  0.00  0.00    +0.000 A 
ATOM      6  C   UNL     1       2.112   6.651  20.115  0.00  0.00    +0.000 A 
ATOM      7  O   UNL     1       1.784   6.230  21.223  0.00  0.00    +0.000 OA
ATOM      8  C   UNL     1       0.983   8.958  20.484  0.00  0.00    +0.000 A 
ATOM      9  C   UNL     1       0.365   8.726  21.749  0.00  0.00    +0.000 A 
ATOM     10  C   UNL     1      -0.331   9.826  22.205  0.00  0.00    +0.000 A 
ATOM     11  S   UNL     1      -0.229  11.143  21.124  0.00  0.00    +0.000 S 
ATOM     12  C   UNL     1       0.727  10.241  20.038  0.00  0.00    +0.000 A 
ATOM     13  C   UNL     1       1.183  10.840  18.750  0.00  0.00    +0.000 C 
ATOM     14  C   UNL     1       2.033   9.871  17.912  0.00  0.00    +0.000 C 
ENDROOT
BRANCH   1  15
ATOM     15  C   UNL     1       3.355   4.565  19.668  0.00  0.00    +0.000 C 
BRANCH  15  21
ATOM     16  C   UNL     1       3.999   1.375  18.518  0.00  0.00    +0.000 C 
ATOM     17  C   UNL     1       2.752   2.140  18.773  0.00  0.00    +0.000 A 
ATOM     18  N   UNL     1       1.527   1.571  18.526  0.00  0.00    +0.000 N 
ATOM     19  C   UNL     1       0.564   2.478  18.850  0.00  0.00    +0.000 A 
ATOM     20  N   UNL     1       1.097   3.609  19.271  0.00  0.00    +0.000 NA
ATOM     21  C   UNL     1       2.468   3.430  19.218  0.00  0.00    +0.000 A 
ATOM     22  H   UNL     1       1.360   0.641  18.166  0.00  0.00    +0.000 HD
ENDBRANCH  15  21
ENDBRANCH   1  15
TORSDOF 2
ENDMDL
MODEL 8
REMARK VINA RESULT:      -7.0      3.445      6.573
REMARK  Name = 
REMARK  3 active torsions:
REMARK  status: ('A' for Active; 'I' for Inactive)
REMARK    1  A    between atoms: C_1  and  C_2
REMARK    2  A    between atoms: C_6  and  C_7
REMARK    3  A    between atoms: C_7  and  N_8
REMARK                            x       y       z     vdW  Elec       q    Type
REMARK                         _______ _______ _______ _____ _____    ______ ____
ROOT
ATOM      1  N   UNL     1       1.154   9.329  19.593  0.00  0.00    +0.000 N 
ATOM      2  C   UNL     1       1.820   9.717  18.448  0.00  0.00    +0.000 A 
ATOM      3  C   UNL     1       2.562   8.853  17.751  0.00  0.00    +0.000 A 
ATOM      4  C   UNL     1       2.729   7.494  18.216  0.00  0.00    +0.000 A 
ATOM      5  C   UNL     1       2.186   7.075  19.384  0.00  0.00    +0.000 A 
ATOM      6  C   UNL     1       1.295   8.050  20.142  0.00  0.00    +0.000 A 
ATOM      7  O   UNL     1       0.716   7.723  21.177  0.00  0.00    +0.000 OA
ATOM      8  C   UNL     1       2.435   5.737  19.863  0.00  0.00    +0.000 A 
ATOM      9  C   UNL     1       2.012   5.110  21.072  0.00  0.00    +0.000 A 
ATOM     10  C   UNL     1       2.489   3.821  21.194  0.00  0.00    +0.000 A 
ATOM     11  S   UNL     1       3.431   3.357  19.848  0.00  0.00    +0.000 S 
ATOM     12  C   UNL     1       3.219   4.881  19.112  0.00  0.00    +0.000 A 
ATOM     13  C   UNL     1       3.864   5.187  17.802  0.00  0.00    +0.000 C 
ATOM     14  C   UNL     1       3.552   6.608  17.305  0.00  0.00    +0.000 C 
ENDROOT
BRANCH   1  15
ATOM     15  C   UNL     1       0.175  10.250  20.188  0.00  0.00    +0.000 C 
BRANCH  15  21
ATOM     16  C   UNL     1      -2.074  10.092  17.575  0.00  0.00    +0.000 C 
ATOM     17  C   UNL     1      -1.242  11.181  18.146  0.00  0.00    +0.000 A 
ATOM     18  N   UNL     1      -1.277  12.440  17.598  0.00  0.00    +0.000 N 
ATOM     19  C   UNL     1      -0.433  13.237  18.311  0.00  0.00    +0.000 A 
ATOM     20  N   UNL     1       0.161  12.560  19.275  0.00  0.00    +0.000 NA
ATOM     21  C   UNL     1      -0.317  11.265  19.185  0.00  0.00    +0.000 A 
ATOM     22  H   UNL     1      -1.828  12.732  16.802  0.00  0.00    +0.000 HD
ENDBRANCH  15  21
ENDBRANCH   1  15
TORSDOF 2
ENDMDL
MODEL 9
REMARK VINA RESULT:      -7.0      0.940      1.040
REMARK  Name = 
REMARK  3 active torsions:
REMARK  status: ('A' for Active; 'I' for Inactive)
REMARK    1  A    between atoms: C_1  and  C_2
REMARK    2  A    between atoms: C_6  and  C_7
REMARK    3  A    between atoms: C_7  and  N_8
REMARK                            x       y       z     vdW  Elec       q    Type
REMARK                         _______ _______ _______ _____ _____    ______ ____
ROOT
ATOM      1  N   UNL     1       3.374   5.880  19.127  0.00  0.00    +0.000 N 
ATOM      2  C   UNL     1       3.711   6.392  17.891  0.00  0.00    +0.000 A 
ATOM      3  C   UNL     1       3.291   7.599  17.503  0.00  0.00    +0.000 A 
ATOM      4  C   UNL     1       2.421   8.378  18.356  0.00  0.00    +0.000 A 
ATOM      5  C   UNL     1       1.972   7.893  19.538  0.00  0.00    +0.000 A 
ATOM      6  C   UNL     1       2.501   6.541  19.998  0.00  0.00    +0.000 A 
ATOM      7  O   UNL     1       2.189   6.062  21.087  0.00  0.00    +0.000 OA
ATOM      8  C   UNL     1       1.042   8.660  20.332  0.00  0.00    +0.000 A 
ATOM      9  C   UNL     1       0.408   8.325  21.566  0.00  0.00    +0.000 A 
ATOM     10  C   UNL     1      -0.456   9.310  21.999  0.00  0.00    +0.000 A 
ATOM     11  S   UNL     1      -0.494  10.643  20.934  0.00  0.00    +0.000 S 
ATOM     12  C   UNL     1       0.627   9.900  19.885  0.00  0.00    +0.000 A 
ATOM     13  C   UNL     1       1.049  10.575  18.623  0.00  0.00    +0.000 C 
ATOM     14  C   UNL     1       2.063   9.748  17.818  0.00  0.00    +0.000 C 
ENDROOT
BRANCH   1  15
ATOM     15  C   UNL     1       4.046   4.658  19.592  0.00  0.00    +0.000 C 
BRANCH  15  21
ATOM     16  C   UNL     1       1.255   4.092  17.642  0.00  0.00    +0.000 C 
ATOM     17  C   UNL     1       2.356   3.224  18.131  0.00  0.00    +0.000 A 
ATOM     18  N   UNL     1       2.376   1.886  17.819  0.00  0.00    +0.000 N 
ATOM     19  C   UNL     1       3.486   1.335  18.383  0.00  0.00    +0.000 A 
ATOM     20  N   UNL     1       4.174   2.235  19.060  0.00  0.00    +0.000 NA
ATOM     21  C   UNL     1       3.479   3.424  18.931  0.00  0.00    +0.000 A 
ATOM     22  H   UNL     1       1.688   1.390  17.268  0.00  0.00    +0.000 HD
ENDBRANCH  15  21
ENDBRANCH   1  15
TORSDOF 2
ENDMDL
