MODEL 1
REMARK VINA RESULT:      -8.6      0.000      0.000
REMARK  Name = 
REMARK  8 active torsions:
REMARK  status: ('A' for Active; 'I' for Inactive)
REMARK    1  A    between atoms: C_2  and  O_3
REMARK    2  A    between atoms: C_2  and  C_28
REMARK    3  A    between atoms: O_3  and  C_4
REMARK    4  A    between atoms: C_4  and  C_5
REMARK    5  A    between atoms: C_4  and  C_21
REMARK    6  A    between atoms: C_5  and  C_6
REMARK    7  A    between atoms: C_6  and  C_7
REMARK    8  A    between atoms: C_7  and  N_8
REMARK                            x       y       z     vdW  Elec       q    Type
REMARK                         _______ _______ _______ _____ _____    ______ ____
ROOT
ATOM      1  C   UNL     1       4.166   5.124  17.104  0.00  0.00    +0.000 C 
ENDROOT
BRANCH   1   2
ATOM      2  C   UNL     1       5.477   5.735  17.604  0.00  0.00    +0.000 A 
ATOM      3  C   UNL     1       6.044   6.858  16.972  0.00  0.00    +0.000 A 
ATOM      4  C   UNL     1       7.227   7.435  17.453  0.00  0.00    +0.000 A 
ATOM      5  C   UNL     1       7.847   6.893  18.571  0.00  0.00    +0.000 A 
ATOM      6  F   UNL     1       8.968   7.452  19.041  0.00  0.00    +0.000 F 
ATOM      7  C   UNL     1       7.322   5.773  19.203  0.00  0.00    +0.000 A 
ATOM      8  C   UNL     1       6.146   5.195  18.718  0.00  0.00    +0.000 A 
ENDBRANCH   1   2
BRANCH   1   9
ATOM      9  O   UNL     1       4.198   3.705  17.454  0.00  0.00    +0.000 OA
BRANCH   9  11
ATOM     10  O   UNL     1       2.269   2.675  16.743  0.00  0.00    +0.000 OA
ATOM     11  C   UNL     1       2.989   3.099  17.636  0.00  0.00    +0.000 C 
BRANCH  11  12
ATOM     12  C   UNL     1       2.563   3.021  19.070  0.00  0.00    +0.000 A 
ATOM     13  C   UNL     1       3.441   2.715  20.116  0.00  0.00    +0.000 A 
ATOM     14  C   UNL     1       2.955   2.580  21.429  0.00  0.00    +0.000 A 
ATOM     15  C   UNL     1       1.596   2.759  21.705  0.00  0.00    +0.000 A 
ATOM     16  C   UNL     1       0.716   3.049  20.663  0.00  0.00    +0.000 A 
ATOM     17  C   UNL     1       1.194   3.165  19.357  0.00  0.00    +0.000 A 
ENDBRANCH  11  12
ENDBRANCH   9  11
ENDBRANCH   1   9
BRANCH   1  18
ATOM     18  C   UNL     1       2.932   5.888  17.707  0.00  0.00    +0.000 C 
BRANCH  18  19
ATOM     19  C   UNL     1       3.297   6.828  18.878  0.00  0.00    +0.000 C 
BRANCH  19  20
ATOM     20  C   UNL     1       2.141   7.547  19.660  0.00  0.00    +0.000 C 
BRANCH  20  21
ATOM     21  N   UNL     1       1.834   8.964  19.409  0.00  0.00    +0.000 NA
ATOM     22  C   UNL     1       1.498   9.360  18.034  0.00  0.00    +0.000 C 
ATOM     23  C   UNL     1       0.004   9.440  17.624  0.00  0.00    +0.000 C 
ATOM     24  N   UNL     1      -0.765  10.240  18.576  0.00  0.00    +0.000 N 
ATOM     25  C   UNL     1      -2.042  10.626  18.148  0.00  0.00    +0.000 A 
ATOM     26  N   UNL     1      -2.452  10.277  16.905  0.00  0.00    +0.000 NA
ATOM     27  C   UNL     1      -3.626  10.774  16.452  0.00  0.00    +0.000 A 
ATOM     28  C   UNL     1      -4.414  11.631  17.170  0.00  0.00    +0.000 A 
ATOM     29  F   UNL     1      -5.553  12.138  16.683  0.00  0.00    +0.000 F 
ATOM     30  C   UNL     1      -3.946  11.930  18.422  0.00  0.00    +0.000 A 
ATOM     31  N   UNL     1      -2.786  11.432  18.942  0.00  0.00    +0.000 NA
ATOM     32  C   UNL     1      -0.630   9.814  19.971  0.00  0.00    +0.000 C 
ATOM     33  C   UNL     1       0.874   9.583  20.373  0.00  0.00    +0.000 C 
ENDBRANCH  20  21
ENDBRANCH  19  20
ENDBRANCH  18  19
ENDBRANCH   1  18
TORSDOF 8
ENDMDL
MODEL 2
REMARK VINA RESULT:      -8.6      2.299      2.939
REMARK  Name = 
REMARK  8 active torsions:
REMARK  status: ('A' for Active; 'I' for Inactive)
REMARK    1  A    between atoms: C_2  and  O_3
REMARK    2  A    between atoms: C_2  and  C_28
REMARK    3  A    between atoms: O_3  and  C_4
REMARK    4  A    between atoms: C_4  and  C_5
REMARK    5  A    between atoms: C_4  and  C_21
REMARK    6  A    between atoms: C_5  and  C_6
REMARK    7  A    between atoms: C_6  and  C_7
REMARK    8  A    between atoms: C_7  and  N_8
REMARK                            x       y       z     vdW  Elec       q    Type
REMARK                         _______ _______ _______ _____ _____    ______ ____
ROOT
ATOM      1  C   UNL     1       4.510   4.331  18.529  0.00  0.00    +0.000 C 
ENDROOT
BRANCH   1   2
ATOM      2  C   UNL     1       5.332   4.484  17.247  0.00  0.00    +0.000 A 
ATOM      3  C   UNL     1       6.700   4.815  17.296  0.00  0.00    +0.000 A 
ATOM      4  C   UNL     1       7.457   4.921  16.121  0.00  0.00    +0.000 A 
ATOM      5  C   UNL     1       6.851   4.694  14.893  0.00  0.00    +0.000 A 
ATOM      6  F   UNL     1       7.577   4.780  13.772  0.00  0.00    +0.000 F 
ATOM      7  C   UNL     1       5.499   4.386  14.813  0.00  0.00    +0.000 A 
ATOM      8  C   UNL     1       4.743   4.287  15.984  0.00  0.00    +0.000 A 
ENDBRANCH   1   2
BRANCH   1   9
ATOM      9  O   UNL     1       5.303   3.518  19.448  0.00  0.00    +0.000 OA
BRANCH   9  11
ATOM     10  O   UNL     1       5.228   1.477  20.506  0.00  0.00    +0.000 OA
ATOM     11  C   UNL     1       4.671   2.446  20.008  0.00  0.00    +0.000 C 
BRANCH  11  12
ATOM     12  C   UNL     1       3.178   2.517  19.929  0.00  0.00    +0.000 A 
ATOM     13  C   UNL     1       2.449   2.108  18.805  0.00  0.00    +0.000 A 
ATOM     14  C   UNL     1       1.053   2.279  18.770  0.00  0.00    +0.000 A 
ATOM     15  C   UNL     1       0.379   2.848  19.855  0.00  0.00    +0.000 A 
ATOM     16  C   UNL     1       1.104   3.270  20.969  0.00  0.00    +0.000 A 
ATOM     17  C   UNL     1       2.491   3.118  20.998  0.00  0.00    +0.000 A 
ENDBRANCH  11  12
ENDBRANCH   9  11
ENDBRANCH   1   9
BRANCH   1  18
ATOM     18  C   UNL     1       4.125   5.738  19.113  0.00  0.00    +0.000 C 
BRANCH  18  19
ATOM     19  C   UNL     1       2.672   6.162  18.798  0.00  0.00    +0.000 C 
BRANCH  19  20
ATOM     20  C   UNL     1       1.801   6.789  19.945  0.00  0.00    +0.000 C 
BRANCH  20  21
ATOM     21  N   UNL     1       1.959   8.203  20.320  0.00  0.00    +0.000 NA
ATOM     22  C   UNL     1       1.644   9.220  19.307  0.00  0.00    +0.000 C 
ATOM     23  C   UNL     1       0.230   9.857  19.302  0.00  0.00    +0.000 C 
ATOM     24  N   UNL     1      -0.136  10.345  20.631  0.00  0.00    +0.000 N 
ATOM     25  C   UNL     1      -1.247  11.197  20.677  0.00  0.00    +0.000 A 
ATOM     26  N   UNL     1      -1.866  11.533  19.520  0.00  0.00    +0.000 NA
ATOM     27  C   UNL     1      -2.846  12.465  19.562  0.00  0.00    +0.000 A 
ATOM     28  C   UNL     1      -3.233  13.108  20.707  0.00  0.00    +0.000 A 
ATOM     29  F   UNL     1      -4.180  14.053  20.714  0.00  0.00    +0.000 F 
ATOM     30  C   UNL     1      -2.574  12.710  21.839  0.00  0.00    +0.000 A 
ATOM     31  N   UNL     1      -1.601  11.752  21.861  0.00  0.00    +0.000 NA
ATOM     32  C   UNL     1      -0.017   9.346  21.696  0.00  0.00    +0.000 C 
ATOM     33  C   UNL     1       1.356   8.580  21.633  0.00  0.00    +0.000 C 
ENDBRANCH  20  21
ENDBRANCH  19  20
ENDBRANCH  18  19
ENDBRANCH   1  18
TORSDOF 8
ENDMDL
MODEL 3
REMARK VINA RESULT:      -8.5      3.100      5.147
REMARK  Name = 
REMARK  8 active torsions:
REMARK  status: ('A' for Active; 'I' for Inactive)
REMARK    1  A    between atoms: C_2  and  O_3
REMARK    2  A    between atoms: C_2  and  C_28
REMARK    3  A    between atoms: O_3  and  C_4
REMARK    4  A    between atoms: C_4  and  C_5
REMARK    5  A    between atoms: C_4  and  C_21
REMARK    6  A    between atoms: C_5  and  C_6
REMARK    7  A    between atoms: C_6  and  C_7
REMARK    8  A    between atoms: C_7  and  N_8
REMARK                            x       y       z     vdW  Elec       q    Type
REMARK                         _______ _______ _______ _____ _____    ______ ____
ROOT
ATOM      1  C   UNL     1       3.086   6.160  18.227  0.00  0.00    +0.000 C 
ENDROOT
BRANCH   1   2
ATOM      2  C   UNL     1       2.495   5.139  19.202  0.00  0.00    +0.000 A 
ATOM      3  C   UNL     1       2.924   5.079  20.541  0.00  0.00    +0.000 A 
ATOM      4  C   UNL     1       2.356   4.165  21.439  0.00  0.00    +0.000 A 
ATOM      5  C   UNL     1       1.354   3.309  21.002  0.00  0.00    +0.000 A 
ATOM      6  F   UNL     1       0.800   2.446  21.863  0.00  0.00    +0.000 F 
ATOM      7  C   UNL     1       0.924   3.332  19.681  0.00  0.00    +0.000 A 
ATOM      8  C   UNL     1       1.496   4.240  18.786  0.00  0.00    +0.000 A 
ENDBRANCH   1   2
BRANCH   1   9
ATOM      9  O   UNL     1       3.565   5.412  17.067  0.00  0.00    +0.000 OA
BRANCH   9  11
ATOM     10  O   UNL     1       4.704   3.415  17.137  0.00  0.00    +0.000 OA
ATOM     11  C   UNL     1       4.667   4.631  17.263  0.00  0.00    +0.000 C 
BRANCH  11  12
ATOM     12  C   UNL     1       5.876   5.395  17.706  0.00  0.00    +0.000 A 
ATOM     13  C   UNL     1       6.629   5.051  18.836  0.00  0.00    +0.000 A 
ATOM     14  C   UNL     1       7.705   5.861  19.240  0.00  0.00    +0.000 A 
ATOM     15  C   UNL     1       8.041   7.010  18.516  0.00  0.00    +0.000 A 
ATOM     16  C   UNL     1       7.283   7.363  17.400  0.00  0.00    +0.000 A 
ATOM     17  C   UNL     1       6.203   6.570  17.008  0.00  0.00    +0.000 A 
ENDBRANCH  11  12
ENDBRANCH   9  11
ENDBRANCH   1   9
BRANCH   1  18
ATOM     18  C   UNL     1       2.024   7.262  17.865  0.00  0.00    +0.000 C 
BRANCH  18  19
ATOM     19  C   UNL     1       2.085   8.505  18.781  0.00  0.00    +0.000 C 
BRANCH  19  20
ATOM     20  C   UNL     1       1.311   8.477  20.147  0.00  0.00    +0.000 C 
BRANCH  20  21
ATOM     21  N   UNL     1       1.308   9.652  21.033  0.00  0.00    +0.000 NA
ATOM     22  C   UNL     1       0.875  10.937  20.465  0.00  0.00    +0.000 C 
ATOM     23  C   UNL     1      -0.603  11.372  20.645  0.00  0.00    +0.000 C 
ATOM     24  N   UNL     1      -1.016  11.279  22.045  0.00  0.00    +0.000 N 
ATOM     25  C   UNL     1      -2.217  11.926  22.365  0.00  0.00    +0.000 A 
ATOM     26  N   UNL     1      -2.875  12.606  21.396  0.00  0.00    +0.000 NA
ATOM     27  C   UNL     1      -3.954  13.342  21.747  0.00  0.00    +0.000 A 
ATOM     28  C   UNL     1      -4.407  13.459  23.033  0.00  0.00    +0.000 A 
ATOM     29  F   UNL     1      -5.456  14.223  23.359  0.00  0.00    +0.000 F 
ATOM     30  C   UNL     1      -3.703  12.735  23.958  0.00  0.00    +0.000 A 
ATOM     31  N   UNL     1      -2.627  11.950  23.655  0.00  0.00    +0.000 NA
ATOM     32  C   UNL     1      -0.779   9.971  22.659  0.00  0.00    +0.000 C 
ATOM     33  C   UNL     1       0.672   9.437  22.367  0.00  0.00    +0.000 C 
ENDBRANCH  20  21
ENDBRANCH  19  20
ENDBRANCH  18  19
ENDBRANCH   1  18
TORSDOF 8
ENDMDL
MODEL 4
REMARK VINA RESULT:      -8.4      3.465      4.493
REMARK  Name = 
REMARK  8 active torsions:
REMARK  status: ('A' for Active; 'I' for Inactive)
REMARK    1  A    between atoms: C_2  and  O_3
REMARK    2  A    between atoms: C_2  and  C_28
REMARK    3  A    between atoms: O_3  and  C_4
REMARK    4  A    between atoms: C_4  and  C_5
REMARK    5  A    between atoms: C_4  and  C_21
REMARK    6  A    between atoms: C_5  and  C_6
REMARK    7  A    between atoms: C_6  and  C_7
REMARK    8  A    between atoms: C_7  and  N_8
REMARK                            x       y       z     vdW  Elec       q    Type
REMARK                         _______ _______ _______ _____ _____    ______ ____
ROOT
ATOM      1  C   UNL     1       2.648   7.009  18.207  0.00  0.00    +0.000 C 
ENDROOT
BRANCH   1   2
ATOM      2  C   UNL     1       3.655   6.150  17.439  0.00  0.00    +0.000 A 
ATOM      3  C   UNL     1       3.577   4.744  17.459  0.00  0.00    +0.000 A 
ATOM      4  C   UNL     1       4.481   3.963  16.727  0.00  0.00    +0.000 A 
ATOM      5  C   UNL     1       5.466   4.583  15.970  0.00  0.00    +0.000 A 
ATOM      6  F   UNL     1       6.321   3.838  15.259  0.00  0.00    +0.000 F 
ATOM      7  C   UNL     1       5.581   5.967  15.949  0.00  0.00    +0.000 A 
ATOM      8  C   UNL     1       4.683   6.745  16.684  0.00  0.00    +0.000 A 
ENDBRANCH   1   2
BRANCH   1   9
ATOM      9  O   UNL     1       2.950   6.849  19.628  0.00  0.00    +0.000 OA
BRANCH   9  11
ATOM     10  O   UNL     1       1.180   7.161  21.063  0.00  0.00    +0.000 OA
ATOM     11  C   UNL     1       1.922   6.430  20.422  0.00  0.00    +0.000 C 
BRANCH  11  12
ATOM     12  C   UNL     1       1.784   4.941  20.495  0.00  0.00    +0.000 A 
ATOM     13  C   UNL     1       0.881   4.215  19.709  0.00  0.00    +0.000 A 
ATOM     14  C   UNL     1       0.748   2.826  19.888  0.00  0.00    +0.000 A 
ATOM     15  C   UNL     1       1.520   2.155  20.842  0.00  0.00    +0.000 A 
ATOM     16  C   UNL     1       2.408   2.878  21.637  0.00  0.00    +0.000 A 
ATOM     17  C   UNL     1       2.528   4.259  21.473  0.00  0.00    +0.000 A 
ENDBRANCH  11  12
ENDBRANCH   9  11
ENDBRANCH   1   9
BRANCH   1  18
ATOM     18  C   UNL     1       2.706   8.502  17.720  0.00  0.00    +0.000 C 
BRANCH  18  19
ATOM     19  C   UNL     1       1.338   9.220  17.761  0.00  0.00    +0.000 C 
BRANCH  19  20
ATOM     20  C   UNL     1       1.039  10.213  18.941  0.00  0.00    +0.000 C 
BRANCH  20  21
ATOM     21  N   UNL     1      -0.199  10.093  19.727  0.00  0.00    +0.000 NA
ATOM     22  C   UNL     1      -0.089  10.147  21.192  0.00  0.00    +0.000 C 
ATOM     23  C   UNL     1      -0.310  11.505  21.908  0.00  0.00    +0.000 C 
ATOM     24  N   UNL     1      -1.558  12.134  21.477  0.00  0.00    +0.000 N 
ATOM     25  C   UNL     1      -2.003  13.200  22.270  0.00  0.00    +0.000 A 
ATOM     26  N   UNL     1      -1.292  13.541  23.370  0.00  0.00    +0.000 NA
ATOM     27  C   UNL     1      -1.805  14.476  24.203  0.00  0.00    +0.000 A 
ATOM     28  C   UNL     1      -3.017  15.080  24.010  0.00  0.00    +0.000 A 
ATOM     29  F   UNL     1      -3.519  15.974  24.870  0.00  0.00    +0.000 F 
ATOM     30  C   UNL     1      -3.675  14.696  22.872  0.00  0.00    +0.000 A 
ATOM     31  N   UNL     1      -3.190  13.783  21.980  0.00  0.00    +0.000 NA
ATOM     32  C   UNL     1      -1.691  12.281  20.026  0.00  0.00    +0.000 C 
ATOM     33  C   UNL     1      -1.327  10.954  19.263  0.00  0.00    +0.000 C 
ENDBRANCH  20  21
ENDBRANCH  19  20
ENDBRANCH  18  19
ENDBRANCH   1  18
TORSDOF 8
ENDMDL
MODEL 5
REMARK VINA RESULT:      -8.4      1.927      2.489
REMARK  Name = 
REMARK  8 active torsions:
REMARK  status: ('A' for Active; 'I' for Inactive)
REMARK    1  A    between atoms: C_2  and  O_3
REMARK    2  A    between atoms: C_2  and  C_28
REMARK    3  A    between atoms: O_3  and  C_4
REMARK    4  A    between atoms: C_4  and  C_5
REMARK    5  A    between atoms: C_4  and  C_21
REMARK    6  A    between atoms: C_5  and  C_6
REMARK    7  A    between atoms: C_6  and  C_7
REMARK    8  A    between atoms: C_7  and  N_8
REMARK                            x       y       z     vdW  Elec       q    Type
REMARK                         _______ _______ _______ _____ _____    ______ ____
ROOT
ATOM      1  C   UNL     1       4.605   4.212  18.592  0.00  0.00    +0.000 C 
ENDROOT
BRANCH   1   2
ATOM      2  C   UNL     1       5.391   4.365  17.287  0.00  0.00    +0.000 A 
ATOM      3  C   UNL     1       4.787   4.112  16.041  0.00  0.00    +0.000 A 
ATOM      4  C   UNL     1       5.500   4.286  14.847  0.00  0.00    +0.000 A 
ATOM      5  C   UNL     1       6.820   4.716  14.894  0.00  0.00    +0.000 A 
ATOM      6  F   UNL     1       7.497   4.897  13.754  0.00  0.00    +0.000 F 
ATOM      7  C   UNL     1       7.448   4.953  16.110  0.00  0.00    +0.000 A 
ATOM      8  C   UNL     1       6.738   4.773  17.300  0.00  0.00    +0.000 A 
ENDBRANCH   1   2
BRANCH   1   9
ATOM      9  O   UNL     1       5.367   3.298  19.441  0.00  0.00    +0.000 OA
BRANCH   9  11
ATOM     10  O   UNL     1       5.101   1.689  21.063  0.00  0.00    +0.000 OA
ATOM     11  C   UNL     1       4.638   2.456  20.230  0.00  0.00    +0.000 C 
BRANCH  11  12
ATOM     12  C   UNL     1       3.165   2.505  19.966  0.00  0.00    +0.000 A 
ATOM     13  C   UNL     1       2.584   2.044  18.778  0.00  0.00    +0.000 A 
ATOM     14  C   UNL     1       1.202   2.195  18.564  0.00  0.00    +0.000 A 
ATOM     15  C   UNL     1       0.394   2.796  19.535  0.00  0.00    +0.000 A 
ATOM     16  C   UNL     1       0.973   3.270  20.712  0.00  0.00    +0.000 A 
ATOM     17  C   UNL     1       2.347   3.137  20.918  0.00  0.00    +0.000 A 
ENDBRANCH  11  12
ENDBRANCH   9  11
ENDBRANCH   1   9
BRANCH   1  18
ATOM     18  C   UNL     1       4.351   5.614  19.254  0.00  0.00    +0.000 C 
BRANCH  18  19
ATOM     19  C   UNL     1       3.548   6.585  18.359  0.00  0.00    +0.000 C 
BRANCH  19  20
ATOM     20  C   UNL     1       2.247   7.248  18.937  0.00  0.00    +0.000 C 
BRANCH  20  21
ATOM     21  N   UNL     1       2.093   8.712  18.948  0.00  0.00    +0.000 NA
ATOM     22  C   UNL     1       1.413   9.338  17.806  0.00  0.00    +0.000 C 
ATOM     23  C   UNL     1      -0.105   9.638  17.912  0.00  0.00    +0.000 C 
ATOM     24  N   UNL     1      -0.416  10.368  19.140  0.00  0.00    +0.000 N 
ATOM     25  C   UNL     1      -1.690  10.948  19.192  0.00  0.00    +0.000 A 
ATOM     26  N   UNL     1      -2.509  10.832  18.120  0.00  0.00    +0.000 NA
ATOM     27  C   UNL     1      -3.678  11.514  18.127  0.00  0.00    +0.000 A 
ATOM     28  C   UNL     1      -4.070  12.336  19.147  0.00  0.00    +0.000 A 
ATOM     29  F   UNL     1      -5.215  13.029  19.112  0.00  0.00    +0.000 F 
ATOM     30  C   UNL     1      -3.201  12.397  20.203  0.00  0.00    +0.000 A 
ATOM     31  N   UNL     1      -2.024  11.705  20.264  0.00  0.00    +0.000 NA
ATOM     32  C   UNL     1       0.077   9.731  20.363  0.00  0.00    +0.000 C 
ATOM     33  C   UNL     1       1.579   9.282  20.229  0.00  0.00    +0.000 C 
ENDBRANCH  20  21
ENDBRANCH  19  20
ENDBRANCH  18  19
ENDBRANCH   1  18
TORSDOF 8
ENDMDL
MODEL 6
REMARK VINA RESULT:      -8.4      2.674      3.374
REMARK  Name = 
REMARK  8 active torsions:
REMARK  status: ('A' for Active; 'I' for Inactive)
REMARK    1  A    between atoms: C_2  and  O_3
REMARK    2  A    between atoms: C_2  and  C_28
REMARK    3  A    between atoms: O_3  and  C_4
REMARK    4  A    between atoms: C_4  and  C_5
REMARK    5  A    between atoms: C_4  and  C_21
REMARK    6  A    between atoms: C_5  and  C_6
REMARK    7  A    between atoms: C_6  and  C_7
REMARK    8  A    between atoms: C_7  and  N_8
REMARK                            x       y       z     vdW  Elec       q    Type
REMARK                         _______ _______ _______ _____ _____    ______ ____
ROOT
ATOM      1  C   UNL     1       2.914   6.624  17.540  0.00  0.00    +0.000 C 
ENDROOT
BRANCH   1   2
ATOM      2  C   UNL     1       4.326   6.035  17.580  0.00  0.00    +0.000 A 
ATOM      3  C   UNL     1       5.063   5.992  18.778  0.00  0.00    +0.000 A 
ATOM      4  C   UNL     1       6.343   5.421  18.817  0.00  0.00    +0.000 A 
ATOM      5  C   UNL     1       6.889   4.887  17.658  0.00  0.00    +0.000 A 
ATOM      6  F   UNL     1       8.105   4.328  17.697  0.00  0.00    +0.000 F 
ATOM      7  C   UNL     1       6.194   4.934  16.456  0.00  0.00    +0.000 A 
ATOM      8  C   UNL     1       4.921   5.509  16.417  0.00  0.00    +0.000 A 
ENDBRANCH   1   2
BRANCH   1   9
ATOM      9  O   UNL     1       2.146   5.957  18.590  0.00  0.00    +0.000 OA
BRANCH   9  11
ATOM     10  O   UNL     1       1.272   4.263  17.303  0.00  0.00    +0.000 OA
ATOM     11  C   UNL     1       1.775   4.668  18.342  0.00  0.00    +0.000 C 
BRANCH  11  12
ATOM     12  C   UNL     1       1.995   3.744  19.500  0.00  0.00    +0.000 A 
ATOM     13  C   UNL     1       1.051   3.549  20.516  0.00  0.00    +0.000 A 
ATOM     14  C   UNL     1       1.358   2.727  21.615  0.00  0.00    +0.000 A 
ATOM     15  C   UNL     1       2.601   2.091  21.702  0.00  0.00    +0.000 A 
ATOM     16  C   UNL     1       3.548   2.296  20.700  0.00  0.00    +0.000 A 
ATOM     17  C   UNL     1       3.252   3.125  19.617  0.00  0.00    +0.000 A 
ENDBRANCH  11  12
ENDBRANCH   9  11
ENDBRANCH   1   9
BRANCH   1  18
ATOM     18  C   UNL     1       2.960   8.187  17.696  0.00  0.00    +0.000 C 
BRANCH  18  19
ATOM     19  C   UNL     1       1.928   8.739  18.705  0.00  0.00    +0.000 C 
BRANCH  19  20
ATOM     20  C   UNL     1       1.192  10.086  18.375  0.00  0.00    +0.000 C 
BRANCH  20  21
ATOM     21  N   UNL     1       1.113  11.162  19.376  0.00  0.00    +0.000 NA
ATOM     22  C   UNL     1       0.206  12.287  19.103  0.00  0.00    +0.000 C 
ATOM     23  C   UNL     1      -1.226  12.253  19.699  0.00  0.00    +0.000 C 
ATOM     24  N   UNL     1      -1.195  11.972  21.134  0.00  0.00    +0.000 N 
ATOM     25  C   UNL     1      -2.391  12.215  21.823  0.00  0.00    +0.000 A 
ATOM     26  N   UNL     1      -3.450  12.716  21.144  0.00  0.00    +0.000 NA
ATOM     27  C   UNL     1      -4.550  13.079  21.844  0.00  0.00    +0.000 A 
ATOM     28  C   UNL     1      -4.644  12.992  23.206  0.00  0.00    +0.000 A 
ATOM     29  F   UNL     1      -5.730  13.393  23.878  0.00  0.00    +0.000 F 
ATOM     30  C   UNL     1      -3.542  12.465  23.826  0.00  0.00    +0.000 A 
ATOM     31  N   UNL     1      -2.420  12.052  23.167  0.00  0.00    +0.000 NA
ATOM     32  C   UNL     1      -0.450  10.764  21.498  0.00  0.00    +0.000 C 
ATOM     33  C   UNL     1       0.952  10.701  20.788  0.00  0.00    +0.000 C 
ENDBRANCH  20  21
ENDBRANCH  19  20
ENDBRANCH  18  19
ENDBRANCH   1  18
TORSDOF 8
ENDMDL
MODEL 7
REMARK VINA RESULT:      -8.4      3.549      5.516
REMARK  Name = 
REMARK  8 active torsions:
REMARK  status: ('A' for Active; 'I' for Inactive)
REMARK    1  A    between atoms: C_2  and  O_3
REMARK    2  A    between atoms: C_2  and  C_28
REMARK    3  A    between atoms: O_3  and  C_4
REMARK    4  A    between atoms: C_4  and  C_5
REMARK    5  A    between atoms: C_4  and  C_21
REMARK    6  A    between atoms: C_5  and  C_6
REMARK    7  A    between atoms: C_6  and  C_7
REMARK    8  A    between atoms: C_7  and  N_8
REMARK                            x       y       z     vdW  Elec       q    Type
REMARK                         _______ _______ _______ _____ _____    ______ ____
ROOT
ATOM      1  C   UNL     1       3.081   6.279  18.147  0.00  0.00    +0.000 C 
ENDROOT
BRANCH   1   2
ATOM      2  C   UNL     1       2.492   5.238  19.102  0.00  0.00    +0.000 A 
ATOM      3  C   UNL     1       2.829   5.231  20.469  0.00  0.00    +0.000 A 
ATOM      4  C   UNL     1       2.261   4.297  21.346  0.00  0.00    +0.000 A 
ATOM      5  C   UNL     1       1.351   3.368  20.860  0.00  0.00    +0.000 A 
ATOM      6  F   UNL     1       0.797   2.485  21.700  0.00  0.00    +0.000 F 
ATOM      7  C   UNL     1       1.015   3.337  19.513  0.00  0.00    +0.000 A 
ATOM      8  C   UNL     1       1.588   4.265  18.638  0.00  0.00    +0.000 A 
ENDBRANCH   1   2
BRANCH   1   9
ATOM      9  O   UNL     1       3.651   5.546  17.019  0.00  0.00    +0.000 OA
BRANCH   9  11
ATOM     10  O   UNL     1       4.911   3.628  17.182  0.00  0.00    +0.000 OA
ATOM     11  C   UNL     1       4.794   4.843  17.268  0.00  0.00    +0.000 C 
BRANCH  11  12
ATOM     12  C   UNL     1       5.940   5.695  17.719  0.00  0.00    +0.000 A 
ATOM     13  C   UNL     1       6.354   6.847  17.039  0.00  0.00    +0.000 A 
ATOM     14  C   UNL     1       7.489   7.554  17.475  0.00  0.00    +0.000 A 
ATOM     15  C   UNL     1       8.209   7.122  18.593  0.00  0.00    +0.000 A 
ATOM     16  C   UNL     1       7.808   5.966  19.263  0.00  0.00    +0.000 A 
ATOM     17  C   UNL     1       6.693   5.253  18.821  0.00  0.00    +0.000 A 
ENDBRANCH  11  12
ENDBRANCH   9  11
ENDBRANCH   1   9
BRANCH   1  18
ATOM     18  C   UNL     1       1.988   7.326  17.724  0.00  0.00    +0.000 C 
BRANCH  18  19
ATOM     19  C   UNL     1       2.044   8.641  18.534  0.00  0.00    +0.000 C 
BRANCH  19  20
ATOM     20  C   UNL     1       1.383   8.682  19.958  0.00  0.00    +0.000 C 
BRANCH  20  21
ATOM     21  N   UNL     1       0.327   9.658  20.267  0.00  0.00    +0.000 NA
ATOM     22  C   UNL     1       0.596  10.650  21.317  0.00  0.00    +0.000 C 
ATOM     23  C   UNL     1       1.128  12.048  20.905  0.00  0.00    +0.000 C 
ATOM     24  N   UNL     1       0.299  12.642  19.856  0.00  0.00    +0.000 N 
ATOM     25  C   UNL     1       0.503  14.009  19.626  0.00  0.00    +0.000 A 
ATOM     26  N   UNL     1       1.398  14.677  20.392  0.00  0.00    +0.000 NA
ATOM     27  C   UNL     1       1.484  16.021  20.256  0.00  0.00    +0.000 A 
ATOM     28  C   UNL     1       0.698  16.748  19.404  0.00  0.00    +0.000 A 
ATOM     29  F   UNL     1       0.778  18.081  19.316  0.00  0.00    +0.000 F 
ATOM     30  C   UNL     1      -0.174  16.007  18.652  0.00  0.00    +0.000 A 
ATOM     31  N   UNL     1      -0.279  14.647  18.724  0.00  0.00    +0.000 NA
ATOM     32  C   UNL     1       0.108  11.789  18.681  0.00  0.00    +0.000 C 
ATOM     33  C   UNL     1      -0.290  10.319  19.078  0.00  0.00    +0.000 C 
ENDBRANCH  20  21
ENDBRANCH  19  20
ENDBRANCH  18  19
ENDBRANCH   1  18
TORSDOF 8
ENDMDL
MODEL 8
REMARK VINA RESULT:      -8.4      3.286      4.063
REMARK  Name = 
REMARK  8 active torsions:
REMARK  status: ('A' for Active; 'I' for Inactive)
REMARK    1  A    between atoms: C_2  and  O_3
REMARK    2  A    between atoms: C_2  and  C_28
REMARK    3  A    between atoms: O_3  and  C_4
REMARK    4  A    between atoms: C_4  and  C_5
REMARK    5  A    between atoms: C_4  and  C_21
REMARK    6  A    between atoms: C_5  and  C_6
REMARK    7  A    between atoms: C_6  and  C_7
REMARK    8  A    between atoms: C_7  and  N_8
REMARK                            x       y       z     vdW  Elec       q    Type
REMARK                         _______ _______ _______ _____ _____    ______ ____
ROOT
ATOM      1  C   UNL     1       4.592   4.490  18.625  0.00  0.00    +0.000 C 
ENDROOT
BRANCH   1   2
ATOM      2  C   UNL     1       5.325   4.553  17.282  0.00  0.00    +0.000 A 
ATOM      3  C   UNL     1       6.705   4.826  17.218  0.00  0.00    +0.000 A 
ATOM      4  C   UNL     1       7.378   4.849  15.989  0.00  0.00    +0.000 A 
ATOM      5  C   UNL     1       6.675   4.596  14.819  0.00  0.00    +0.000 A 
ATOM      6  F   UNL     1       7.320   4.603  13.646  0.00  0.00    +0.000 F 
ATOM      7  C   UNL     1       5.309   4.344  14.849  0.00  0.00    +0.000 A 
ATOM      8  C   UNL     1       4.638   4.328  16.075  0.00  0.00    +0.000 A 
ENDBRANCH   1   2
BRANCH   1   9
ATOM      9  O   UNL     1       5.365   3.600  19.489  0.00  0.00    +0.000 OA
BRANCH   9  11
ATOM     10  O   UNL     1       5.224   1.540  20.502  0.00  0.00    +0.000 OA
ATOM     11  C   UNL     1       4.699   2.523  19.999  0.00  0.00    +0.000 C 
BRANCH  11  12
ATOM     12  C   UNL     1       3.211   2.610  19.854  0.00  0.00    +0.000 A 
ATOM     13  C   UNL     1       2.519   2.120  18.740  0.00  0.00    +0.000 A 
ATOM     14  C   UNL     1       1.129   2.309  18.634  0.00  0.00    +0.000 A 
ATOM     15  C   UNL     1       0.424   2.976  19.640  0.00  0.00    +0.000 A 
ATOM     16  C   UNL     1       1.113   3.479  20.743  0.00  0.00    +0.000 A 
ATOM     17  C   UNL     1       2.494   3.309  20.841  0.00  0.00    +0.000 A 
ENDBRANCH  11  12
ENDBRANCH   9  11
ENDBRANCH   1   9
BRANCH   1  18
ATOM     18  C   UNL     1       4.404   5.931  19.222  0.00  0.00    +0.000 C 
BRANCH  18  19
ATOM     19  C   UNL     1       3.074   6.603  18.809  0.00  0.00    +0.000 C 
BRANCH  19  20
ATOM     20  C   UNL     1       2.216   7.322  19.910  0.00  0.00    +0.000 C 
BRANCH  20  21
ATOM     21  N   UNL     1       1.160   8.275  19.535  0.00  0.00    +0.000 NA
ATOM     22  C   UNL     1       0.534   9.063  20.607  0.00  0.00    +0.000 C 
ATOM     23  C   UNL     1       1.075  10.486  20.902  0.00  0.00    +0.000 C 
ATOM     24  N   UNL     1       1.160  11.284  19.679  0.00  0.00    +0.000 N 
ATOM     25  C   UNL     1       1.344  12.660  19.868  0.00  0.00    +0.000 A 
ATOM     26  N   UNL     1       1.391  13.150  21.130  0.00  0.00    +0.000 NA
ATOM     27  C   UNL     1       1.427  14.492  21.298  0.00  0.00    +0.000 A 
ATOM     28  C   UNL     1       1.394  15.387  20.264  0.00  0.00    +0.000 A 
ATOM     29  F   UNL     1       1.393  16.711  20.459  0.00  0.00    +0.000 F 
ATOM     30  C   UNL     1       1.360  14.822  19.016  0.00  0.00    +0.000 A 
ATOM     31  N   UNL     1       1.356  13.476  18.787  0.00  0.00    +0.000 NA
ATOM     32  C   UNL     1       1.917  10.653  18.596  0.00  0.00    +0.000 C 
ATOM     33  C   UNL     1       1.488   9.155  18.373  0.00  0.00    +0.000 C 
ENDBRANCH  20  21
ENDBRANCH  19  20
ENDBRANCH  18  19
ENDBRANCH   1  18
TORSDOF 8
ENDMDL
MODEL 9
REMARK VINA RESULT:      -8.4      3.157      5.329
REMARK  Name = 
REMARK  8 active torsions:
REMARK  status: ('A' for Active; 'I' for Inactive)
REMARK    1  A    between atoms: C_2  and  O_3
REMARK    2  A    between atoms: C_2  and  C_28
REMARK    3  A    between atoms: O_3  and  C_4
REMARK    4  A    between atoms: C_4  and  C_5
REMARK    5  A    between atoms: C_4  and  C_21
REMARK    6  A    between atoms: C_5  and  C_6
REMARK    7  A    between atoms: C_6  and  C_7
REMARK    8  A    between atoms: C_7  and  N_8
REMARK                            x       y       z     vdW  Elec       q    Type
REMARK                         _______ _______ _______ _____ _____    ______ ____
ROOT
ATOM      1  C   UNL     1       3.422   6.227  18.158  0.00  0.00    +0.000 C 
ENDROOT
BRANCH   1   2
ATOM      2  C   UNL     1       2.912   5.115  19.078  0.00  0.00    +0.000 A 
ATOM      3  C   UNL     1       3.021   3.761  18.711  0.00  0.00    +0.000 A 
ATOM      4  C   UNL     1       2.583   2.745  19.572  0.00  0.00    +0.000 A 
ATOM      5  C   UNL     1       2.037   3.079  20.804  0.00  0.00    +0.000 A 
ATOM      6  F   UNL     1       1.632   2.109  21.632  0.00  0.00    +0.000 F 
ATOM      7  C   UNL     1       1.898   4.408  21.184  0.00  0.00    +0.000 A 
ATOM      8  C   UNL     1       2.329   5.420  20.322  0.00  0.00    +0.000 A 
ENDBRANCH   1   2
BRANCH   1   9
ATOM      9  O   UNL     1       3.987   5.576  16.978  0.00  0.00    +0.000 OA
BRANCH   9  11
ATOM     10  O   UNL     1       5.123   6.499  15.204  0.00  0.00    +0.000 OA
ATOM     11  C   UNL     1       5.046   6.204  16.388  0.00  0.00    +0.000 C 
BRANCH  11  12
ATOM     12  C   UNL     1       6.180   6.483  17.325  0.00  0.00    +0.000 A 
ATOM     13  C   UNL     1       6.946   7.654  17.275  0.00  0.00    +0.000 A 
ATOM     14  C   UNL     1       8.049   7.813  18.134  0.00  0.00    +0.000 A 
ATOM     15  C   UNL     1       8.385   6.812  19.051  0.00  0.00    +0.000 A 
ATOM     16  C   UNL     1       7.634   5.638  19.092  0.00  0.00    +0.000 A 
ATOM     17  C   UNL     1       6.551   5.471  18.228  0.00  0.00    +0.000 A 
ENDBRANCH  11  12
ENDBRANCH   9  11
ENDBRANCH   1   9
BRANCH   1  18
ATOM     18  C   UNL     1       2.270   7.241  17.820  0.00  0.00    +0.000 C 
BRANCH  18  19
ATOM     19  C   UNL     1       2.746   8.708  17.716  0.00  0.00    +0.000 C 
BRANCH  19  20
ATOM     20  C   UNL     1       1.768   9.854  18.158  0.00  0.00    +0.000 C 
BRANCH  20  21
ATOM     21  N   UNL     1       0.596   9.559  18.997  0.00  0.00    +0.000 NA
ATOM     22  C   UNL     1       0.756   9.649  20.456  0.00  0.00    +0.000 C 
ATOM     23  C   UNL     1       0.360  10.967  21.170  0.00  0.00    +0.000 C 
ATOM     24  N   UNL     1      -0.986  11.393  20.788  0.00  0.00    +0.000 N 
ATOM     25  C   UNL     1      -1.556  12.390  21.591  0.00  0.00    +0.000 A 
ATOM     26  N   UNL     1      -0.860  12.851  22.658  0.00  0.00    +0.000 NA
ATOM     27  C   UNL     1      -1.476  13.708  23.505  0.00  0.00    +0.000 A 
ATOM     28  C   UNL     1      -2.773  14.118  23.359  0.00  0.00    +0.000 A 
ATOM     29  F   UNL     1      -3.369  14.938  24.233  0.00  0.00    +0.000 F 
ATOM     30  C   UNL     1      -3.410  13.623  22.253  0.00  0.00    +0.000 A 
ATOM     31  N   UNL     1      -2.828  12.782  21.348  0.00  0.00    +0.000 NA
ATOM     32  C   UNL     1      -1.199  11.499  19.343  0.00  0.00    +0.000 C 
ATOM     33  C   UNL     1      -0.669  10.232  18.575  0.00  0.00    +0.000 C 
ENDBRANCH  20  21
ENDBRANCH  19  20
ENDBRANCH  18  19
ENDBRANCH   1  18
TORSDOF 8
ENDMDL
