MODEL 1
REMARK VINA RESULT:      -7.2      0.000      0.000
REMARK  Name = 
REMARK  8 active torsions:
REMARK  status: ('A' for Active; 'I' for Inactive)
REMARK    1  A    between atoms: C_1  and  C_2
REMARK    2  A    between atoms: C_2  and  C_3
REMARK    3  A    between atoms: C_5  and  C_6
REMARK    4  A    between atoms: C_11  and  O_12
REMARK    5  A    between atoms: O_12  and  C_13
REMARK    6  A    between atoms: C_14  and  C_15
REMARK    7  A    between atoms: N_17  and  C_18
REMARK    8  A    between atoms: C_23  and  N_24
REMARK                            x       y       z     vdW  Elec       q    Type
REMARK                         _______ _______ _______ _____ _____    ______ ____
ROOT
ATOM      1  C   UNL     1       2.866   6.905  18.350  0.00  0.00    +0.000 C 
ATOM      2  O   UNL     1       3.758   7.407  17.670  0.00  0.00    +0.000 OA
ATOM      3  N   UNL     1       2.639   5.537  18.257  0.00  0.00    +0.000 N 
ATOM      4  H   UNL     1       1.820   5.153  18.719  0.00  0.00    +0.000 HD
ENDROOT
BRANCH   1  10
ATOM      5  C   UNL     1       1.555   9.019  18.778  0.00  0.00    +0.000 A 
ATOM      6  C   UNL     1       0.620   9.788  19.505  0.00  0.00    +0.000 A 
ATOM      7  C   UNL     1       0.305   9.462  20.814  0.00  0.00    +0.000 A 
ATOM      8  C   UNL     1       0.818   8.268  21.336  0.00  0.00    +0.000 A 
ATOM      9  C   UNL     1       1.626   7.394  20.567  0.00  0.00    +0.000 A 
ATOM     10  C   UNL     1       2.015   7.761  19.259  0.00  0.00    +0.000 A 
BRANCH   7  11
ATOM     11  C   UNL     1      -0.443  10.444  21.685  0.00  0.00    +0.000 C 
ATOM     12  F   UNL     1      -1.025   9.872  22.778  0.00  0.00    +0.000 F 
ATOM     13  F   UNL     1       0.341  11.447  22.157  0.00  0.00    +0.000 F 
ATOM     14  F   UNL     1      -1.460  11.049  21.007  0.00  0.00    +0.000 F 
ENDBRANCH   7  11
BRANCH   5  16
ATOM     15  C   UNL     1       2.167  11.284  18.078  0.00  0.00    +0.000 C 
ATOM     16  C   UNL     1       2.258   9.814  17.684  0.00  0.00    +0.000 C 
ENDBRANCH   5  16
BRANCH   9  17
ATOM     17  O   UNL     1       2.110   6.218  21.094  0.00  0.00    +0.000 OA
ATOM     18  C   UNL     1       1.323   5.047  20.862  0.00  0.00    +0.000 C 
ENDBRANCH   9  17
ENDBRANCH   1  10
BRANCH   3  19
ATOM     19  C   UNL     1       3.441   4.623  17.379  0.00  0.00    +0.000 C 
ATOM     20  C   UNL     1       2.639   3.338  17.142  0.00  0.00    +0.000 C 
ATOM     21  O   UNL     1       2.470   2.612  18.367  0.00  0.00    +0.000 OA
ATOM     22  C   UNL     1       3.716   2.182  18.913  0.00  0.00    +0.000 C 
ATOM     23  C   UNL     1       4.627   3.362  19.227  0.00  0.00    +0.000 C 
ATOM     24  C   UNL     1       4.839   4.307  18.030  0.00  0.00    +0.000 C 
BRANCH  24  25
ATOM     25  N   UNL     1       5.942   3.938  17.091  0.00  0.00    +0.000 NA
ATOM     26  C   UNL     1       7.247   4.595  17.163  0.00  0.00    +0.000 C 
ATOM     27  C   UNL     1       7.209   5.728  16.153  0.00  0.00    +0.000 C 
ATOM     28  C   UNL     1       6.344   5.179  15.037  0.00  0.00    +0.000 C 
ATOM     29  C   UNL     1       5.548   4.038  15.671  0.00  0.00    +0.000 C 
ENDBRANCH  24  25
ENDBRANCH   3  19
TORSDOF 6
ENDMDL
MODEL 2
REMARK VINA RESULT:      -7.1      1.494      2.267
REMARK  Name = 
REMARK  8 active torsions:
REMARK  status: ('A' for Active; 'I' for Inactive)
REMARK    1  A    between atoms: C_1  and  C_2
REMARK    2  A    between atoms: C_2  and  C_3
REMARK    3  A    between atoms: C_5  and  C_6
REMARK    4  A    between atoms: C_11  and  O_12
REMARK    5  A    between atoms: O_12  and  C_13
REMARK    6  A    between atoms: C_14  and  C_15
REMARK    7  A    between atoms: N_17  and  C_18
REMARK    8  A    between atoms: C_23  and  N_24
REMARK                            x       y       z     vdW  Elec       q    Type
REMARK                         _______ _______ _______ _____ _____    ______ ____
ROOT
ATOM      1  C   UNL     1       2.913   6.635  18.473  0.00  0.00    +0.000 C 
ATOM      2  O   UNL     1       2.429   6.098  17.478  0.00  0.00    +0.000 OA
ATOM      3  N   UNL     1       4.249   6.401  18.780  0.00  0.00    +0.000 N 
ATOM      4  H   UNL     1       4.604   6.739  19.669  0.00  0.00    +0.000 HD
ENDROOT
BRANCH   1  10
ATOM      5  C   UNL     1       1.670   8.795  18.872  0.00  0.00    +0.000 A 
ATOM      6  C   UNL     1       0.744   9.595  19.575  0.00  0.00    +0.000 A 
ATOM      7  C   UNL     1       0.377   9.276  20.872  0.00  0.00    +0.000 A 
ATOM      8  C   UNL     1       0.828   8.061  21.403  0.00  0.00    +0.000 A 
ATOM      9  C   UNL     1       1.626   7.160  20.654  0.00  0.00    +0.000 A 
ATOM     10  C   UNL     1       2.068   7.518  19.361  0.00  0.00    +0.000 A 
BRANCH   7  11
ATOM     11  C   UNL     1      -0.360  10.282  21.726  0.00  0.00    +0.000 C 
ATOM     12  F   UNL     1      -1.017   9.724  22.784  0.00  0.00    +0.000 F 
ATOM     13  F   UNL     1       0.451  11.238  22.248  0.00  0.00    +0.000 F 
ATOM     14  F   UNL     1      -1.315  10.946  21.014  0.00  0.00    +0.000 F 
ENDBRANCH   7  11
BRANCH   5  16
ATOM     15  C   UNL     1       2.146  11.046  18.036  0.00  0.00    +0.000 C 
ATOM     16  C   UNL     1       2.436   9.567  17.805  0.00  0.00    +0.000 C 
ENDBRANCH   5  16
BRANCH   9  17
ATOM     17  O   UNL     1       2.050   5.965  21.190  0.00  0.00    +0.000 OA
ATOM     18  C   UNL     1       1.379   4.790  20.727  0.00  0.00    +0.000 C 
ENDBRANCH   9  17
ENDBRANCH   1  10
BRANCH   3  19
ATOM     19  C   UNL     1       5.150   5.538  17.948  0.00  0.00    +0.000 C 
ATOM     20  C   UNL     1       5.904   4.576  18.875  0.00  0.00    +0.000 C 
ATOM     21  O   UNL     1       6.788   5.297  19.743  0.00  0.00    +0.000 OA
ATOM     22  C   UNL     1       7.801   5.994  19.019  0.00  0.00    +0.000 C 
ATOM     23  C   UNL     1       7.203   7.015  18.060  0.00  0.00    +0.000 C 
ATOM     24  C   UNL     1       6.149   6.417  17.109  0.00  0.00    +0.000 C 
BRANCH  24  25
ATOM     25  N   UNL     1       6.674   5.811  15.849  0.00  0.00    +0.000 NA
ATOM     26  C   UNL     1       5.863   5.776  14.631  0.00  0.00    +0.000 C 
ATOM     27  C   UNL     1       5.181   4.420  14.613  0.00  0.00    +0.000 C 
ATOM     28  C   UNL     1       6.204   3.500  15.248  0.00  0.00    +0.000 C 
ATOM     29  C   UNL     1       7.142   4.421  16.029  0.00  0.00    +0.000 C 
ENDBRANCH  24  25
ENDBRANCH   3  19
TORSDOF 6
ENDMDL
MODEL 3
REMARK VINA RESULT:      -7.1      1.757      3.465
REMARK  Name = 
REMARK  8 active torsions:
REMARK  status: ('A' for Active; 'I' for Inactive)
REMARK    1  A    between atoms: C_1  and  C_2
REMARK    2  A    between atoms: C_2  and  C_3
REMARK    3  A    between atoms: C_5  and  C_6
REMARK    4  A    between atoms: C_11  and  O_12
REMARK    5  A    between atoms: O_12  and  C_13
REMARK    6  A    between atoms: C_14  and  C_15
REMARK    7  A    between atoms: N_17  and  C_18
REMARK    8  A    between atoms: C_23  and  N_24
REMARK                            x       y       z     vdW  Elec       q    Type
REMARK                         _______ _______ _______ _____ _____    ______ ____
ROOT
ATOM      1  C   UNL     1       3.006   6.340  18.477  0.00  0.00    +0.000 C 
ATOM      2  O   UNL     1       2.489   5.724  17.547  0.00  0.00    +0.000 OA
ATOM      3  N   UNL     1       4.376   6.226  18.679  0.00  0.00    +0.000 N 
ATOM      4  H   UNL     1       4.773   6.630  19.522  0.00  0.00    +0.000 HD
ENDROOT
BRANCH   1  10
ATOM      5  C   UNL     1       1.585   6.586  20.548  0.00  0.00    +0.000 A 
ATOM      6  C   UNL     1       0.935   7.355  21.537  0.00  0.00    +0.000 A 
ATOM      7  C   UNL     1       0.630   8.687  21.307  0.00  0.00    +0.000 A 
ATOM      8  C   UNL     1       1.121   9.282  20.138  0.00  0.00    +0.000 A 
ATOM      9  C   UNL     1       1.920   8.570  19.208  0.00  0.00    +0.000 A 
ATOM     10  C   UNL     1       2.165   7.192  19.399  0.00  0.00    +0.000 A 
BRANCH   7  11
ATOM     11  C   UNL     1      -0.326   9.419  22.219  0.00  0.00    +0.000 C 
ATOM     12  F   UNL     1       0.281  10.006  23.290  0.00  0.00    +0.000 F 
ATOM     13  F   UNL     1      -1.018  10.405  21.591  0.00  0.00    +0.000 F 
ATOM     14  F   UNL     1      -1.263   8.580  22.748  0.00  0.00    +0.000 F 
ENDBRANCH   7  11
BRANCH   5  16
ATOM     15  C   UNL     1       2.458   4.449  21.365  0.00  0.00    +0.000 C 
ATOM     16  C   UNL     1       1.276   5.097  20.653  0.00  0.00    +0.000 C 
ENDBRANCH   5  16
BRANCH   9  17
ATOM     17  O   UNL     1       2.404   9.176  18.070  0.00  0.00    +0.000 OA
ATOM     18  C   UNL     1       2.061  10.552  17.889  0.00  0.00    +0.000 C 
ENDBRANCH   9  17
ENDBRANCH   1  10
BRANCH   3  19
ATOM     19  C   UNL     1       5.275   5.401  17.807  0.00  0.00    +0.000 C 
ATOM     20  C   UNL     1       6.065   4.429  18.693  0.00  0.00    +0.000 C 
ATOM     21  O   UNL     1       6.954   5.143  19.562  0.00  0.00    +0.000 OA
ATOM     22  C   UNL     1       7.939   5.876  18.837  0.00  0.00    +0.000 C 
ATOM     23  C   UNL     1       7.305   6.911  17.917  0.00  0.00    +0.000 C 
ATOM     24  C   UNL     1       6.242   6.320  16.972  0.00  0.00    +0.000 C 
BRANCH  24  25
ATOM     25  N   UNL     1       6.752   5.755  15.686  0.00  0.00    +0.000 NA
ATOM     26  C   UNL     1       5.926   5.760  14.478  0.00  0.00    +0.000 C 
ATOM     27  C   UNL     1       5.245   4.404  14.424  0.00  0.00    +0.000 C 
ATOM     28  C   UNL     1       6.277   3.465  15.016  0.00  0.00    +0.000 C 
ATOM     29  C   UNL     1       7.224   4.361  15.815  0.00  0.00    +0.000 C 
ENDBRANCH  24  25
ENDBRANCH   3  19
TORSDOF 6
ENDMDL
MODEL 4
REMARK VINA RESULT:      -7.0      5.627     10.375
REMARK  Name = 
REMARK  8 active torsions:
REMARK  status: ('A' for Active; 'I' for Inactive)
REMARK    1  A    between atoms: C_1  and  C_2
REMARK    2  A    between atoms: C_2  and  C_3
REMARK    3  A    between atoms: C_5  and  C_6
REMARK    4  A    between atoms: C_11  and  O_12
REMARK    5  A    between atoms: O_12  and  C_13
REMARK    6  A    between atoms: C_14  and  C_15
REMARK    7  A    between atoms: N_17  and  C_18
REMARK    8  A    between atoms: C_23  and  N_24
REMARK                            x       y       z     vdW  Elec       q    Type
REMARK                         _______ _______ _______ _____ _____    ______ ____
ROOT
ATOM      1  C   UNL     1      -1.673  12.345  20.165  0.00  0.00    +0.000 C 
ATOM      2  O   UNL     1      -1.791  13.316  19.419  0.00  0.00    +0.000 OA
ATOM      3  N   UNL     1      -2.461  12.278  21.308  0.00  0.00    +0.000 N 
ATOM      4  H   UNL     1      -2.267  11.543  21.983  0.00  0.00    +0.000 HD
ENDROOT
BRANCH   1  10
ATOM      5  C   UNL     1      -0.564  10.790  18.516  0.00  0.00    +0.000 A 
ATOM      6  C   UNL     1       0.460   9.899  18.129  0.00  0.00    +0.000 A 
ATOM      7  C   UNL     1       1.238   9.261  19.081  0.00  0.00    +0.000 A 
ATOM      8  C   UNL     1       1.083   9.643  20.420  0.00  0.00    +0.000 A 
ATOM      9  C   UNL     1       0.175  10.657  20.815  0.00  0.00    +0.000 A 
ATOM     10  C   UNL     1      -0.676  11.253  19.857  0.00  0.00    +0.000 A 
BRANCH   7  11
ATOM     11  C   UNL     1       2.111   8.090  18.694  0.00  0.00    +0.000 C 
ATOM     12  F   UNL     1       3.286   8.456  18.105  0.00  0.00    +0.000 F 
ATOM     13  F   UNL     1       2.446   7.300  19.746  0.00  0.00    +0.000 F 
ATOM     14  F   UNL     1       1.492   7.275  17.792  0.00  0.00    +0.000 F 
ENDBRANCH   7  11
BRANCH   5  16
ATOM     15  C   UNL     1      -2.638   9.727  17.766  0.00  0.00    +0.000 C 
ATOM     16  C   UNL     1      -1.688  10.888  17.492  0.00  0.00    +0.000 C 
ENDBRANCH   5  16
BRANCH   9  17
ATOM     17  O   UNL     1       0.046  11.027  22.135  0.00  0.00    +0.000 OA
ATOM     18  C   UNL     1      -0.328   9.994  23.049  0.00  0.00    +0.000 C 
ENDBRANCH   9  17
ENDBRANCH   1  10
BRANCH   3  19
ATOM     19  C   UNL     1      -3.472  13.321  21.680  0.00  0.00    +0.000 C 
ATOM     20  C   UNL     1      -2.744  14.501  22.335  0.00  0.00    +0.000 C 
ATOM     21  O   UNL     1      -2.153  14.105  23.580  0.00  0.00    +0.000 OA
ATOM     22  C   UNL     1      -3.133  13.693  24.531  0.00  0.00    +0.000 C 
ATOM     23  C   UNL     1      -3.935  12.499  24.030  0.00  0.00    +0.000 C 
ATOM     24  C   UNL     1      -4.565  12.724  22.642  0.00  0.00    +0.000 C 
BRANCH  24  25
ATOM     25  N   UNL     1      -5.900  13.395  22.631  0.00  0.00    +0.000 NA
ATOM     26  C   UNL     1      -6.814  13.280  23.767  0.00  0.00    +0.000 C 
ATOM     27  C   UNL     1      -7.753  12.132  23.443  0.00  0.00    +0.000 C 
ATOM     28  C   UNL     1      -7.916  12.222  21.939  0.00  0.00    +0.000 C 
ATOM     29  C   UNL     1      -6.716  13.034  21.453  0.00  0.00    +0.000 C 
ENDBRANCH  24  25
ENDBRANCH   3  19
TORSDOF 6
ENDMDL
MODEL 5
REMARK VINA RESULT:      -7.0      2.357      3.712
REMARK  Name = 
REMARK  8 active torsions:
REMARK  status: ('A' for Active; 'I' for Inactive)
REMARK    1  A    between atoms: C_1  and  C_2
REMARK    2  A    between atoms: C_2  and  C_3
REMARK    3  A    between atoms: C_5  and  C_6
REMARK    4  A    between atoms: C_11  and  O_12
REMARK    5  A    between atoms: O_12  and  C_13
REMARK    6  A    between atoms: C_14  and  C_15
REMARK    7  A    between atoms: N_17  and  C_18
REMARK    8  A    between atoms: C_23  and  N_24
REMARK                            x       y       z     vdW  Elec       q    Type
REMARK                         _______ _______ _______ _____ _____    ______ ____
ROOT
ATOM      1  C   UNL     1       1.451   7.601  20.542  0.00  0.00    +0.000 C 
ATOM      2  O   UNL     1       0.879   6.873  21.353  0.00  0.00    +0.000 OA
ATOM      3  N   UNL     1       2.528   7.092  19.826  0.00  0.00    +0.000 N 
ATOM      4  H   UNL     1       3.073   7.734  19.258  0.00  0.00    +0.000 HD
ENDROOT
BRANCH   1  10
ATOM      5  C   UNL     1       0.722   9.477  19.019  0.00  0.00    +0.000 A 
ATOM      6  C   UNL     1       0.140  10.740  18.778  0.00  0.00    +0.000 A 
ATOM      7  C   UNL     1       0.046  11.678  19.793  0.00  0.00    +0.000 A 
ATOM      8  C   UNL     1       0.400  11.283  21.089  0.00  0.00    +0.000 A 
ATOM      9  C   UNL     1       0.832   9.966  21.385  0.00  0.00    +0.000 A 
ATOM     10  C   UNL     1       1.004   9.030  20.341  0.00  0.00    +0.000 A 
BRANCH   7  11
ATOM     11  C   UNL     1      -0.283  13.118  19.473  0.00  0.00    +0.000 C 
ATOM     12  F   UNL     1      -1.217  13.663  20.304  0.00  0.00    +0.000 F 
ATOM     13  F   UNL     1       0.796  13.940  19.527  0.00  0.00    +0.000 F 
ATOM     14  F   UNL     1      -0.795  13.251  18.215  0.00  0.00    +0.000 F 
ENDBRANCH   7  11
BRANCH   5  16
ATOM     15  C   UNL     1       2.649   9.570  17.512  0.00  0.00    +0.000 C 
ATOM     16  C   UNL     1       1.329   8.852  17.769  0.00  0.00    +0.000 C 
ENDBRANCH   5  16
BRANCH   9  17
ATOM     17  O   UNL     1       1.163   9.593  22.668  0.00  0.00    +0.000 OA
ATOM     18  C   UNL     1       0.081   9.479  23.595  0.00  0.00    +0.000 C 
ENDBRANCH   9  17
ENDBRANCH   1  10
BRANCH   3  19
ATOM     19  C   UNL     1       3.027   5.686  19.970  0.00  0.00    +0.000 C 
ATOM     20  C   UNL     1       4.472   5.621  19.458  0.00  0.00    +0.000 C 
ATOM     21  O   UNL     1       4.523   5.884  18.049  0.00  0.00    +0.000 OA
ATOM     22  C   UNL     1       3.812   4.905  17.294  0.00  0.00    +0.000 C 
ATOM     23  C   UNL     1       2.338   4.862  17.677  0.00  0.00    +0.000 C 
ATOM     24  C   UNL     1       2.103   4.680  19.188  0.00  0.00    +0.000 C 
BRANCH  24  25
ATOM     25  N   UNL     1       2.085   3.270  19.683  0.00  0.00    +0.000 NA
ATOM     26  C   UNL     1       3.115   2.776  20.597  0.00  0.00    +0.000 C 
ATOM     27  C   UNL     1       4.170   2.112  19.731  0.00  0.00    +0.000 C 
ATOM     28  C   UNL     1       3.368   1.514  18.593  0.00  0.00    +0.000 C 
ATOM     29  C   UNL     1       2.043   2.276  18.590  0.00  0.00    +0.000 C 
ENDBRANCH  24  25
ENDBRANCH   3  19
TORSDOF 6
ENDMDL
MODEL 6
REMARK VINA RESULT:      -7.0      2.293      4.074
REMARK  Name = 
REMARK  8 active torsions:
REMARK  status: ('A' for Active; 'I' for Inactive)
REMARK    1  A    between atoms: C_1  and  C_2
REMARK    2  A    between atoms: C_2  and  C_3
REMARK    3  A    between atoms: C_5  and  C_6
REMARK    4  A    between atoms: C_11  and  O_12
REMARK    5  A    between atoms: O_12  and  C_13
REMARK    6  A    between atoms: C_14  and  C_15
REMARK    7  A    between atoms: N_17  and  C_18
REMARK    8  A    between atoms: C_23  and  N_24
REMARK                            x       y       z     vdW  Elec       q    Type
REMARK                         _______ _______ _______ _____ _____    ______ ____
ROOT
ATOM      1  C   UNL     1       1.530   7.610  20.498  0.00  0.00    +0.000 C 
ATOM      2  O   UNL     1       0.943   6.903  21.315  0.00  0.00    +0.000 OA
ATOM      3  N   UNL     1       2.601   7.074  19.792  0.00  0.00    +0.000 N 
ATOM      4  H   UNL     1       3.159   7.699  19.219  0.00  0.00    +0.000 HD
ENDROOT
BRANCH   1  10
ATOM      5  C   UNL     1       0.819   9.853  21.410  0.00  0.00    +0.000 A 
ATOM      6  C   UNL     1       0.588  11.240  21.284  0.00  0.00    +0.000 A 
ATOM      7  C   UNL     1       0.395  11.813  20.038  0.00  0.00    +0.000 A 
ATOM      8  C   UNL     1       0.592  11.009  18.907  0.00  0.00    +0.000 A 
ATOM      9  C   UNL     1       0.988   9.652  19.006  0.00  0.00    +0.000 A 
ATOM     10  C   UNL     1       1.108   9.043  20.276  0.00  0.00    +0.000 A 
BRANCH   7  11
ATOM     11  C   UNL     1      -0.154  13.215  19.919  0.00  0.00    +0.000 C 
ATOM     12  F   UNL     1       0.655  14.168  20.466  0.00  0.00    +0.000 F 
ATOM     13  F   UNL     1      -0.373  13.599  18.635  0.00  0.00    +0.000 F 
ATOM     14  F   UNL     1      -1.351  13.345  20.560  0.00  0.00    +0.000 F 
ENDBRANCH   7  11
BRANCH   5  16
ATOM     15  C   UNL     1      -0.828  10.121  23.202  0.00  0.00    +0.000 C 
ATOM     16  C   UNL     1       0.374   9.294  22.756  0.00  0.00    +0.000 C 
ENDBRANCH   5  16
BRANCH   9  17
ATOM     17  O   UNL     1       1.189   8.882  17.883  0.00  0.00    +0.000 OA
ATOM     18  C   UNL     1       2.523   8.842  17.371  0.00  0.00    +0.000 C 
ENDBRANCH   9  17
ENDBRANCH   1  10
BRANCH   3  19
ATOM     19  C   UNL     1       3.077   5.662  19.957  0.00  0.00    +0.000 C 
ATOM     20  C   UNL     1       4.527   5.570  19.464  0.00  0.00    +0.000 C 
ATOM     21  O   UNL     1       4.599   5.818  18.053  0.00  0.00    +0.000 OA
ATOM     22  C   UNL     1       3.883   4.841  17.300  0.00  0.00    +0.000 C 
ATOM     23  C   UNL     1       2.404   4.825  17.664  0.00  0.00    +0.000 C 
ATOM     24  C   UNL     1       2.147   4.662  19.174  0.00  0.00    +0.000 C 
BRANCH  24  25
ATOM     25  N   UNL     1       2.101   3.258  19.682  0.00  0.00    +0.000 NA
ATOM     26  C   UNL     1       3.101   2.763  20.628  0.00  0.00    +0.000 C 
ATOM     27  C   UNL     1       4.171   2.079  19.797  0.00  0.00    +0.000 C 
ATOM     28  C   UNL     1       3.393   1.477  18.644  0.00  0.00    +0.000 C 
ATOM     29  C   UNL     1       2.077   2.253  18.599  0.00  0.00    +0.000 C 
ENDBRANCH  24  25
ENDBRANCH   3  19
TORSDOF 6
ENDMDL
MODEL 7
REMARK VINA RESULT:      -6.9      2.092      3.212
REMARK  Name = 
REMARK  8 active torsions:
REMARK  status: ('A' for Active; 'I' for Inactive)
REMARK    1  A    between atoms: C_1  and  C_2
REMARK    2  A    between atoms: C_2  and  C_3
REMARK    3  A    between atoms: C_5  and  C_6
REMARK    4  A    between atoms: C_11  and  O_12
REMARK    5  A    between atoms: O_12  and  C_13
REMARK    6  A    between atoms: C_14  and  C_15
REMARK    7  A    between atoms: N_17  and  C_18
REMARK    8  A    between atoms: C_23  and  N_24
REMARK                            x       y       z     vdW  Elec       q    Type
REMARK                         _______ _______ _______ _____ _____    ______ ____
ROOT
ATOM      1  C   UNL     1       1.601   8.573  18.243  0.00  0.00    +0.000 C 
ATOM      2  O   UNL     1       2.312   8.996  17.333  0.00  0.00    +0.000 OA
ATOM      3  N   UNL     1       1.644   7.219  18.555  0.00  0.00    +0.000 N 
ATOM      4  H   UNL     1       0.963   6.857  19.215  0.00  0.00    +0.000 HD
ENDROOT
BRANCH   1  10
ATOM      5  C   UNL     1       0.977   9.801  20.358  0.00  0.00    +0.000 A 
ATOM      6  C   UNL     1       0.261  10.790  21.067  0.00  0.00    +0.000 A 
ATOM      7  C   UNL     1      -0.902  11.330  20.544  0.00  0.00    +0.000 A 
ATOM      8  C   UNL     1      -1.258  10.983  19.234  0.00  0.00    +0.000 A 
ATOM      9  C   UNL     1      -0.463  10.118  18.441  0.00  0.00    +0.000 A 
ATOM     10  C   UNL     1       0.681   9.503  18.997  0.00  0.00    +0.000 A 
BRANCH   7  11
ATOM     11  C   UNL     1      -1.826  12.145  21.419  0.00  0.00    +0.000 C 
ATOM     12  F   UNL     1      -1.345  13.387  21.714  0.00  0.00    +0.000 F 
ATOM     13  F   UNL     1      -3.054  12.336  20.872  0.00  0.00    +0.000 F 
ATOM     14  F   UNL     1      -2.039  11.544  22.625  0.00  0.00    +0.000 F 
ENDBRANCH   7  11
BRANCH   5  16
ATOM     15  C   UNL     1       1.251   9.079  22.681  0.00  0.00    +0.000 C 
ATOM     16  C   UNL     1       1.786   8.883  21.266  0.00  0.00    +0.000 C 
ENDBRANCH   5  16
BRANCH   9  17
ATOM     17  O   UNL     1      -0.823   9.799  17.151  0.00  0.00    +0.000 OA
ATOM     18  C   UNL     1      -2.189  10.029  16.798  0.00  0.00    +0.000 C 
ENDBRANCH   9  17
ENDBRANCH   1  10
BRANCH   3  19
ATOM     19  C   UNL     1       2.532   6.236  17.852  0.00  0.00    +0.000 C 
ATOM     20  C   UNL     1       1.817   4.880  17.796  0.00  0.00    +0.000 C 
ATOM     21  O   UNL     1       1.648   4.341  19.115  0.00  0.00    +0.000 OA
ATOM     22  C   UNL     1       2.896   4.083  19.753  0.00  0.00    +0.000 C 
ATOM     23  C   UNL     1       3.723   5.353  19.905  0.00  0.00    +0.000 C 
ATOM     24  C   UNL     1       3.922   6.115  18.581  0.00  0.00    +0.000 C 
BRANCH  24  25
ATOM     25  N   UNL     1       5.078   5.680  17.741  0.00  0.00    +0.000 NA
ATOM     26  C   UNL     1       6.173   4.895  18.312  0.00  0.00    +0.000 C 
ATOM     27  C   UNL     1       7.252   5.891  18.699  0.00  0.00    +0.000 C 
ATOM     28  C   UNL     1       7.141   6.965  17.636  0.00  0.00    +0.000 C 
ATOM     29  C   UNL     1       5.741   6.802  17.045  0.00  0.00    +0.000 C 
ENDBRANCH  24  25
ENDBRANCH   3  19
TORSDOF 6
ENDMDL
MODEL 8
REMARK VINA RESULT:      -6.9      1.929      2.613
REMARK  Name = 
REMARK  8 active torsions:
REMARK  status: ('A' for Active; 'I' for Inactive)
REMARK    1  A    between atoms: C_1  and  C_2
REMARK    2  A    between atoms: C_2  and  C_3
REMARK    3  A    between atoms: C_5  and  C_6
REMARK    4  A    between atoms: C_11  and  O_12
REMARK    5  A    between atoms: O_12  and  C_13
REMARK    6  A    between atoms: C_14  and  C_15
REMARK    7  A    between atoms: N_17  and  C_18
REMARK    8  A    between atoms: C_23  and  N_24
REMARK                            x       y       z     vdW  Elec       q    Type
REMARK                         _______ _______ _______ _____ _____    ______ ____
ROOT
ATOM      1  C   UNL     1       1.872   8.963  18.368  0.00  0.00    +0.000 C 
ATOM      2  O   UNL     1       1.908   9.145  17.153  0.00  0.00    +0.000 OA
ATOM      3  N   UNL     1       2.346   7.762  18.883  0.00  0.00    +0.000 N 
ATOM      4  H   UNL     1       2.193   7.568  19.868  0.00  0.00    +0.000 HD
ENDROOT
BRANCH   1  10
ATOM      5  C   UNL     1       1.420  11.387  18.910  0.00  0.00    +0.000 A 
ATOM      6  C   UNL     1       0.765  12.407  19.634  0.00  0.00    +0.000 A 
ATOM      7  C   UNL     1       0.191  12.141  20.866  0.00  0.00    +0.000 A 
ATOM      8  C   UNL     1       0.144  10.809  21.296  0.00  0.00    +0.000 A 
ATOM      9  C   UNL     1       0.648   9.744  20.508  0.00  0.00    +0.000 A 
ATOM     10  C   UNL     1       1.305  10.019  19.288  0.00  0.00    +0.000 A 
BRANCH   7  11
ATOM     11  C   UNL     1      -0.229  13.275  21.772  0.00  0.00    +0.000 C 
ATOM     12  F   UNL     1       0.804  14.078  22.158  0.00  0.00    +0.000 F 
ATOM     13  F   UNL     1      -1.155  14.096  21.211  0.00  0.00    +0.000 F 
ATOM     14  F   UNL     1      -0.785  12.817  22.931  0.00  0.00    +0.000 F 
ENDBRANCH   7  11
BRANCH   5  16
ATOM     15  C   UNL     1       2.636  13.410  18.259  0.00  0.00    +0.000 C 
ATOM     16  C   UNL     1       2.501  11.917  17.977  0.00  0.00    +0.000 C 
ENDBRANCH   5  16
BRANCH   9  17
ATOM     17  O   UNL     1       0.580   8.439  20.943  0.00  0.00    +0.000 OA
ATOM     18  C   UNL     1      -0.412   8.150  21.931  0.00  0.00    +0.000 C 
ENDBRANCH   9  17
ENDBRANCH   1  10
BRANCH   3  19
ATOM     19  C   UNL     1       2.923   6.669  18.034  0.00  0.00    +0.000 C 
ATOM     20  C   UNL     1       1.891   5.540  17.916  0.00  0.00    +0.000 C 
ATOM     21  O   UNL     1       1.660   4.928  19.193  0.00  0.00    +0.000 OA
ATOM     22  C   UNL     1       2.836   4.311  19.712  0.00  0.00    +0.000 C 
ATOM     23  C   UNL     1       3.960   5.320  19.909  0.00  0.00    +0.000 C 
ATOM     24  C   UNL     1       4.274   6.141  18.644  0.00  0.00    +0.000 C 
BRANCH  24  25
ATOM     25  N   UNL     1       5.241   5.524  17.687  0.00  0.00    +0.000 NA
ATOM     26  C   UNL     1       6.314   4.647  18.155  0.00  0.00    +0.000 C 
ATOM     27  C   UNL     1       7.541   5.525  18.319  0.00  0.00    +0.000 C 
ATOM     28  C   UNL     1       7.396   6.546  17.208  0.00  0.00    +0.000 C 
ATOM     29  C   UNL     1       5.916   6.519  16.828  0.00  0.00    +0.000 C 
ENDBRANCH  24  25
ENDBRANCH   3  19
TORSDOF 6
ENDMDL
MODEL 9
REMARK VINA RESULT:      -6.9      2.272      4.385
REMARK  Name = 
REMARK  8 active torsions:
REMARK  status: ('A' for Active; 'I' for Inactive)
REMARK    1  A    between atoms: C_1  and  C_2
REMARK    2  A    between atoms: C_2  and  C_3
REMARK    3  A    between atoms: C_5  and  C_6
REMARK    4  A    between atoms: C_11  and  O_12
REMARK    5  A    between atoms: O_12  and  C_13
REMARK    6  A    between atoms: C_14  and  C_15
REMARK    7  A    between atoms: N_17  and  C_18
REMARK    8  A    between atoms: C_23  and  N_24
REMARK                            x       y       z     vdW  Elec       q    Type
REMARK                         _______ _______ _______ _____ _____    ______ ____
ROOT
ATOM      1  C   UNL     1       1.619   7.524  20.419  0.00  0.00    +0.000 C 
ATOM      2  O   UNL     1       1.027   6.812  21.229  0.00  0.00    +0.000 OA
ATOM      3  N   UNL     1       2.681   6.985  19.703  0.00  0.00    +0.000 N 
ATOM      4  H   UNL     1       3.244   7.612  19.136  0.00  0.00    +0.000 HD
ENDROOT
BRANCH   1  10
ATOM      5  C   UNL     1       0.913   9.756  21.362  0.00  0.00    +0.000 A 
ATOM      6  C   UNL     1       0.695  11.147  21.259  0.00  0.00    +0.000 A 
ATOM      7  C   UNL     1       0.526  11.744  20.020  0.00  0.00    +0.000 A 
ATOM      8  C   UNL     1       0.733  10.960  18.878  0.00  0.00    +0.000 A 
ATOM      9  C   UNL     1       1.116   9.598  18.958  0.00  0.00    +0.000 A 
ATOM     10  C   UNL     1       1.212   8.964  20.218  0.00  0.00    +0.000 A 
BRANCH   7  11
ATOM     11  C   UNL     1      -0.010  13.153  19.920  0.00  0.00    +0.000 C 
ATOM     12  F   UNL     1       0.144  13.880  21.064  0.00  0.00    +0.000 F 
ATOM     13  F   UNL     1       0.572  13.879  18.931  0.00  0.00    +0.000 F 
ATOM     14  F   UNL     1      -1.349  13.167  19.659  0.00  0.00    +0.000 F 
ENDBRANCH   7  11
BRANCH   5  16
ATOM     15  C   UNL     1      -0.729  10.033  23.157  0.00  0.00    +0.000 C 
ATOM     16  C   UNL     1       0.443   9.176  22.691  0.00  0.00    +0.000 C 
ENDBRANCH   5  16
BRANCH   9  17
ATOM     17  O   UNL     1       1.327   8.846  17.824  0.00  0.00    +0.000 OA
ATOM     18  C   UNL     1       2.666   8.813  17.324  0.00  0.00    +0.000 C 
ENDBRANCH   9  17
ENDBRANCH   1  10
BRANCH   3  19
ATOM     19  C   UNL     1       3.142   5.566  19.847  0.00  0.00    +0.000 C 
ATOM     20  C   UNL     1       4.629   5.491  19.479  0.00  0.00    +0.000 C 
ATOM     21  O   UNL     1       4.824   5.799  18.091  0.00  0.00    +0.000 OA
ATOM     22  C   UNL     1       4.177   4.858  17.237  0.00  0.00    +0.000 C 
ATOM     23  C   UNL     1       2.671   4.831  17.470  0.00  0.00    +0.000 C 
ATOM     24  C   UNL     1       2.285   4.604  18.944  0.00  0.00    +0.000 C 
BRANCH  24  25
ATOM     25  N   UNL     1       2.195   3.180  19.385  0.00  0.00    +0.000 NA
ATOM     26  C   UNL     1       0.989   2.662  20.031  0.00  0.00    +0.000 C 
ATOM     27  C   UNL     1       1.229   2.768  21.526  0.00  0.00    +0.000 C 
ATOM     28  C   UNL     1       2.715   2.511  21.666  0.00  0.00    +0.000 C 
ATOM     29  C   UNL     1       3.302   2.783  20.281  0.00  0.00    +0.000 C 
ENDBRANCH  24  25
ENDBRANCH   3  19
TORSDOF 6
ENDMDL
