MODEL 1
REMARK VINA RESULT:      -8.6      0.000      0.000
REMARK  Name = 
REMARK  5 active torsions:
REMARK  status: ('A' for Active; 'I' for Inactive)
REMARK    1  A    between atoms: O_1  and  C_2
REMARK    2  A    between atoms: C_2  and  C_3
REMARK    3  A    between atoms: C_16  and  O_17
REMARK    4  A    between atoms: O_17  and  C_18
REMARK    5  A    between atoms: C_18  and  C_19
REMARK                            x       y       z     vdW  Elec       q    Type
REMARK                         _______ _______ _______ _____ _____    ______ ____
ROOT
ATOM      1  C   UNL     1       2.939   3.663  17.958  0.00  0.00    +0.000 C 
ATOM      2  C   UNL     1       2.411   4.689  18.960  0.00  0.00    +0.000 A 
ATOM      3  C   UNL     1       1.518   4.501  20.010  0.00  0.00    +0.000 A 
ATOM      4  C   UNL     1       1.190   5.603  20.801  0.00  0.00    +0.000 A 
ATOM      5  C   UNL     1       1.739   6.867  20.537  0.00  0.00    +0.000 A 
ATOM      6  C   UNL     1       2.634   7.053  19.478  0.00  0.00    +0.000 A 
ATOM      7  C   UNL     1       2.970   5.960  18.699  0.00  0.00    +0.000 A 
ATOM      8  C   UNL     1       3.868   5.855  17.570  0.00  0.00    +0.000 A 
ATOM      9  C   UNL     1       4.666   6.807  16.960  0.00  0.00    +0.000 A 
ATOM     10  C   UNL     1       5.468   6.416  15.882  0.00  0.00    +0.000 A 
ATOM     11  C   UNL     1       5.450   5.095  15.398  0.00  0.00    +0.000 A 
ATOM     12  C   UNL     1       4.640   4.139  16.011  0.00  0.00    +0.000 A 
ATOM     13  C   UNL     1       3.867   4.524  17.101  0.00  0.00    +0.000 A 
ENDROOT
BRANCH   1  14
ATOM     14  C   UNL     1       3.656   2.439  18.617  0.00  0.00    +0.000 C 
ATOM     15  F   UNL     1       4.832   2.833  19.179  0.00  0.00    +0.000 F 
ATOM     16  F   UNL     1       2.939   1.848  19.600  0.00  0.00    +0.000 F 
ATOM     17  F   UNL     1       3.978   1.468  17.726  0.00  0.00    +0.000 F 
ENDBRANCH   1  14
BRANCH   1  18
ATOM     18  O   UNL     1       1.838   3.286  17.108  0.00  0.00    +0.000 OA
ATOM     19  H   UNL     1       1.936   2.337  16.922  0.00  0.00    +0.000 HD
ENDBRANCH   1  18
BRANCH  11  20
ATOM     20  O   UNL     1       6.305   4.856  14.354  0.00  0.00    +0.000 OA
BRANCH  20  21
ATOM     21  C   UNL     1       6.288   3.533  13.819  0.00  0.00    +0.000 C 
BRANCH  21  22
ATOM     22  C   UNL     1       6.016   3.618  12.345  0.00  0.00    +0.000 C 
ATOM     23  C   UNL     1       5.773   2.368  11.537  0.00  0.00    +0.000 C 
ATOM     24  C   UNL     1       4.638   3.313  11.814  0.00  0.00    +0.000 C 
ENDBRANCH  21  22
ENDBRANCH  20  21
ENDBRANCH  11  20
TORSDOF 5
ENDMDL
MODEL 2
REMARK VINA RESULT:      -8.5      2.195      6.683
REMARK  Name = 
REMARK  5 active torsions:
REMARK  status: ('A' for Active; 'I' for Inactive)
REMARK    1  A    between atoms: O_1  and  C_2
REMARK    2  A    between atoms: C_2  and  C_3
REMARK    3  A    between atoms: C_16  and  O_17
REMARK    4  A    between atoms: O_17  and  C_18
REMARK    5  A    between atoms: C_18  and  C_19
REMARK                            x       y       z     vdW  Elec       q    Type
REMARK                         _______ _______ _______ _____ _____    ______ ____
ROOT
ATOM      1  C   UNL     1       4.209   3.748  18.269  0.00  0.00    +0.000 C 
ATOM      2  C   UNL     1       4.914   4.152  16.974  0.00  0.00    +0.000 A 
ATOM      3  C   UNL     1       5.701   3.373  16.133  0.00  0.00    +0.000 A 
ATOM      4  C   UNL     1       6.237   3.971  14.991  0.00  0.00    +0.000 A 
ATOM      5  C   UNL     1       5.995   5.325  14.707  0.00  0.00    +0.000 A 
ATOM      6  C   UNL     1       5.206   6.106  15.558  0.00  0.00    +0.000 A 
ATOM      7  C   UNL     1       4.664   5.512  16.685  0.00  0.00    +0.000 A 
ATOM      8  C   UNL     1       3.810   6.062  17.714  0.00  0.00    +0.000 A 
ATOM      9  C   UNL     1       3.269   7.328  17.857  0.00  0.00    +0.000 A 
ATOM     10  C   UNL     1       2.443   7.581  18.957  0.00  0.00    +0.000 A 
ATOM     11  C   UNL     1       2.183   6.590  19.922  0.00  0.00    +0.000 A 
ATOM     12  C   UNL     1       2.734   5.317  19.778  0.00  0.00    +0.000 A 
ATOM     13  C   UNL     1       3.531   5.059  18.667  0.00  0.00    +0.000 A 
ENDROOT
BRANCH   1  14
ATOM     14  C   UNL     1       3.212   2.555  18.106  0.00  0.00    +0.000 C 
ATOM     15  F   UNL     1       2.313   2.828  17.120  0.00  0.00    +0.000 F 
ATOM     16  F   UNL     1       3.805   1.386  17.772  0.00  0.00    +0.000 F 
ATOM     17  F   UNL     1       2.478   2.319  19.221  0.00  0.00    +0.000 F 
ENDBRANCH   1  14
BRANCH   1  18
ATOM     18  O   UNL     1       5.230   3.505  19.256  0.00  0.00    +0.000 OA
ATOM     19  H   UNL     1       5.963   4.113  19.060  0.00  0.00    +0.000 HD
ENDBRANCH   1  18
BRANCH  11  20
ATOM     20  O   UNL     1       1.338   6.978  20.928  0.00  0.00    +0.000 OA
BRANCH  20  21
ATOM     21  C   UNL     1       1.377   8.359  21.284  0.00  0.00    +0.000 C 
BRANCH  21  22
ATOM     22  C   UNL     1       0.024   8.759  21.795  0.00  0.00    +0.000 C 
ATOM     23  C   UNL     1      -0.119   9.464  23.121  0.00  0.00    +0.000 C 
ATOM     24  C   UNL     1      -0.364  10.216  21.843  0.00  0.00    +0.000 C 
ENDBRANCH  21  22
ENDBRANCH  20  21
ENDBRANCH  11  20
TORSDOF 5
ENDMDL
MODEL 3
REMARK VINA RESULT:      -8.4      0.597      1.060
REMARK  Name = 
REMARK  5 active torsions:
REMARK  status: ('A' for Active; 'I' for Inactive)
REMARK    1  A    between atoms: O_1  and  C_2
REMARK    2  A    between atoms: C_2  and  C_3
REMARK    3  A    between atoms: C_16  and  O_17
REMARK    4  A    between atoms: O_17  and  C_18
REMARK    5  A    between atoms: C_18  and  C_19
REMARK                            x       y       z     vdW  Elec       q    Type
REMARK                         _______ _______ _______ _____ _____    ______ ____
ROOT
ATOM      1  C   UNL     1       3.047   3.478  18.098  0.00  0.00    +0.000 C 
ATOM      2  C   UNL     1       2.562   4.690  18.892  0.00  0.00    +0.000 A 
ATOM      3  C   UNL     1       1.633   4.739  19.926  0.00  0.00    +0.000 A 
ATOM      4  C   UNL     1       1.358   5.978  20.507  0.00  0.00    +0.000 A 
ATOM      5  C   UNL     1       1.994   7.144  20.051  0.00  0.00    +0.000 A 
ATOM      6  C   UNL     1       2.924   7.091  19.008  0.00  0.00    +0.000 A 
ATOM      7  C   UNL     1       3.208   5.863  18.438  0.00  0.00    +0.000 A 
ATOM      8  C   UNL     1       4.124   5.512  17.375  0.00  0.00    +0.000 A 
ATOM      9  C   UNL     1       4.997   6.296  16.641  0.00  0.00    +0.000 A 
ATOM     10  C   UNL     1       5.797   5.679  15.674  0.00  0.00    +0.000 A 
ATOM     11  C   UNL     1       5.706   4.298  15.420  0.00  0.00    +0.000 A 
ATOM     12  C   UNL     1       4.822   3.511  16.158  0.00  0.00    +0.000 A 
ATOM     13  C   UNL     1       4.049   4.122  17.140  0.00  0.00    +0.000 A 
ENDROOT
BRANCH   1  14
ATOM     14  C   UNL     1       3.667   2.345  18.979  0.00  0.00    +0.000 C 
ATOM     15  F   UNL     1       2.831   2.046  20.013  0.00  0.00    +0.000 F 
ATOM     16  F   UNL     1       3.883   1.188  18.313  0.00  0.00    +0.000 F 
ATOM     17  F   UNL     1       4.846   2.699  19.548  0.00  0.00    +0.000 F 
ENDBRANCH   1  14
BRANCH   1  18
ATOM     18  O   UNL     1       1.944   3.027  17.287  0.00  0.00    +0.000 OA
ATOM     19  H   UNL     1       2.177   2.141  16.962  0.00  0.00    +0.000 HD
ENDBRANCH   1  18
BRANCH  11  20
ATOM     20  O   UNL     1       6.569   3.833  14.463  0.00  0.00    +0.000 OA
BRANCH  20  21
ATOM     21  C   UNL     1       6.217   4.119  13.110  0.00  0.00    +0.000 C 
BRANCH  21  22
ATOM     22  C   UNL     1       5.207   3.106  12.655  0.00  0.00    +0.000 C 
ATOM     23  C   UNL     1       4.433   3.315  11.377  0.00  0.00    +0.000 C 
ATOM     24  C   UNL     1       5.490   2.250  11.446  0.00  0.00    +0.000 C 
ENDBRANCH  21  22
ENDBRANCH  20  21
ENDBRANCH  11  20
TORSDOF 5
ENDMDL
MODEL 4
REMARK VINA RESULT:      -7.8      2.437      6.551
REMARK  Name = 
REMARK  5 active torsions:
REMARK  status: ('A' for Active; 'I' for Inactive)
REMARK    1  A    between atoms: O_1  and  C_2
REMARK    2  A    between atoms: C_2  and  C_3
REMARK    3  A    between atoms: C_16  and  O_17
REMARK    4  A    between atoms: O_17  and  C_18
REMARK    5  A    between atoms: C_18  and  C_19
REMARK                            x       y       z     vdW  Elec       q    Type
REMARK                         _______ _______ _______ _____ _____    ______ ____
ROOT
ATOM      1  C   UNL     1       6.280   6.102  17.352  0.00  0.00    +0.000 C 
ATOM      2  C   UNL     1       6.432   5.380  16.013  0.00  0.00    +0.000 A 
ATOM      3  C   UNL     1       7.518   5.376  15.144  0.00  0.00    +0.000 A 
ATOM      4  C   UNL     1       7.421   4.627  13.971  0.00  0.00    +0.000 A 
ATOM      5  C   UNL     1       6.254   3.905  13.673  0.00  0.00    +0.000 A 
ATOM      6  C   UNL     1       5.163   3.914  14.547  0.00  0.00    +0.000 A 
ATOM      7  C   UNL     1       5.260   4.647  15.716  0.00  0.00    +0.000 A 
ATOM      8  C   UNL     1       4.312   4.822  16.795  0.00  0.00    +0.000 A 
ATOM      9  C   UNL     1       3.049   4.287  16.981  0.00  0.00    +0.000 A 
ATOM     10  C   UNL     1       2.352   4.612  18.149  0.00  0.00    +0.000 A 
ATOM     11  C   UNL     1       2.897   5.485  19.109  0.00  0.00    +0.000 A 
ATOM     12  C   UNL     1       4.168   6.026  18.916  0.00  0.00    +0.000 A 
ATOM     13  C   UNL     1       4.871   5.677  17.768  0.00  0.00    +0.000 A 
ENDROOT
BRANCH   1  14
ATOM     14  C   UNL     1       7.378   5.732  18.403  0.00  0.00    +0.000 C 
ATOM     15  F   UNL     1       8.021   4.592  18.026  0.00  0.00    +0.000 F 
ATOM     16  F   UNL     1       8.332   6.679  18.555  0.00  0.00    +0.000 F 
ATOM     17  F   UNL     1       6.872   5.481  19.635  0.00  0.00    +0.000 F 
ENDBRANCH   1  14
BRANCH   1  18
ATOM     18  O   UNL     1       6.212   7.514  17.074  0.00  0.00    +0.000 OA
ATOM     19  H   UNL     1       5.366   7.672  16.620  0.00  0.00    +0.000 HD
ENDBRANCH   1  18
BRANCH  11  20
ATOM     20  O   UNL     1       2.109   5.689  20.211  0.00  0.00    +0.000 OA
BRANCH  20  21
ATOM     21  C   UNL     1       1.284   4.594  20.605  0.00  0.00    +0.000 C 
BRANCH  21  22
ATOM     22  C   UNL     1       2.046   3.751  21.585  0.00  0.00    +0.000 C 
ATOM     23  C   UNL     1       1.565   2.368  21.946  0.00  0.00    +0.000 C 
ATOM     24  C   UNL     1       2.800   2.535  21.108  0.00  0.00    +0.000 C 
ENDBRANCH  21  22
ENDBRANCH  20  21
ENDBRANCH  11  20
TORSDOF 5
ENDMDL
MODEL 5
REMARK VINA RESULT:      -7.7      2.502      6.914
REMARK  Name = 
REMARK  5 active torsions:
REMARK  status: ('A' for Active; 'I' for Inactive)
REMARK    1  A    between atoms: O_1  and  C_2
REMARK    2  A    between atoms: C_2  and  C_3
REMARK    3  A    between atoms: C_16  and  O_17
REMARK    4  A    between atoms: O_17  and  C_18
REMARK    5  A    between atoms: C_18  and  C_19
REMARK                            x       y       z     vdW  Elec       q    Type
REMARK                         _______ _______ _______ _____ _____    ______ ____
ROOT
ATOM      1  C   UNL     1       3.421   4.208  18.579  0.00  0.00    +0.000 C 
ATOM      2  C   UNL     1       4.244   4.560  17.340  0.00  0.00    +0.000 A 
ATOM      3  C   UNL     1       4.970   3.714  16.508  0.00  0.00    +0.000 A 
ATOM      4  C   UNL     1       5.642   4.275  15.421  0.00  0.00    +0.000 A 
ATOM      5  C   UNL     1       5.595   5.658  15.183  0.00  0.00    +0.000 A 
ATOM      6  C   UNL     1       4.867   6.506  16.024  0.00  0.00    +0.000 A 
ATOM      7  C   UNL     1       4.190   5.950  17.095  0.00  0.00    +0.000 A 
ATOM      8  C   UNL     1       3.358   6.572  18.102  0.00  0.00    +0.000 A 
ATOM      9  C   UNL     1       2.980   7.893  18.269  0.00  0.00    +0.000 A 
ATOM     10  C   UNL     1       2.133   8.215  19.336  0.00  0.00    +0.000 A 
ATOM     11  C   UNL     1       1.692   7.234  20.243  0.00  0.00    +0.000 A 
ATOM     12  C   UNL     1       2.081   5.905  20.075  0.00  0.00    +0.000 A 
ATOM     13  C   UNL     1       2.898   5.583  18.997  0.00  0.00    +0.000 A 
ENDROOT
BRANCH   1  14
ATOM     14  C   UNL     1       2.288   3.164  18.316  0.00  0.00    +0.000 C 
ATOM     15  F   UNL     1       1.250   3.755  17.659  0.00  0.00    +0.000 F 
ATOM     16  F   UNL     1       2.675   2.114  17.555  0.00  0.00    +0.000 F 
ATOM     17  F   UNL     1       1.760   2.652  19.455  0.00  0.00    +0.000 F 
ENDBRANCH   1  14
BRANCH   1  18
ATOM     18  O   UNL     1       4.345   3.798  19.606  0.00  0.00    +0.000 OA
ATOM     19  H   UNL     1       4.587   2.875  19.416  0.00  0.00    +0.000 HD
ENDBRANCH   1  18
BRANCH  11  20
ATOM     20  O   UNL     1       0.850   7.695  21.221  0.00  0.00    +0.000 OA
BRANCH  20  21
ATOM     21  C   UNL     1       0.195   8.934  20.952  0.00  0.00    +0.000 C 
BRANCH  21  22
ATOM     22  C   UNL     1       0.371   9.833  22.140  0.00  0.00    +0.000 C 
ATOM     23  C   UNL     1      -0.322  11.172  22.200  0.00  0.00    +0.000 C 
ATOM     24  C   UNL     1      -0.775  10.054  23.096  0.00  0.00    +0.000 C 
ENDBRANCH  21  22
ENDBRANCH  20  21
ENDBRANCH  11  20
TORSDOF 5
ENDMDL
MODEL 6
REMARK VINA RESULT:      -7.7      3.230      6.478
REMARK  Name = 
REMARK  5 active torsions:
REMARK  status: ('A' for Active; 'I' for Inactive)
REMARK    1  A    between atoms: O_1  and  C_2
REMARK    2  A    between atoms: C_2  and  C_3
REMARK    3  A    between atoms: C_16  and  O_17
REMARK    4  A    between atoms: O_17  and  C_18
REMARK    5  A    between atoms: C_18  and  C_19
REMARK                            x       y       z     vdW  Elec       q    Type
REMARK                         _______ _______ _______ _____ _____    ______ ____
ROOT
ATOM      1  C   UNL     1       3.042   5.348  19.163  0.00  0.00    +0.000 C 
ATOM      2  C   UNL     1       3.993   5.187  17.978  0.00  0.00    +0.000 A 
ATOM      3  C   UNL     1       4.721   4.066  17.591  0.00  0.00    +0.000 A 
ATOM      4  C   UNL     1       5.525   4.162  16.455  0.00  0.00    +0.000 A 
ATOM      5  C   UNL     1       5.604   5.361  15.729  0.00  0.00    +0.000 A 
ATOM      6  C   UNL     1       4.874   6.487  16.122  0.00  0.00    +0.000 A 
ATOM      7  C   UNL     1       4.067   6.391  17.242  0.00  0.00    +0.000 A 
ATOM      8  C   UNL     1       3.201   7.372  17.859  0.00  0.00    +0.000 A 
ATOM      9  C   UNL     1       2.911   8.676  17.496  0.00  0.00    +0.000 A 
ATOM     10  C   UNL     1       2.002   9.400  18.275  0.00  0.00    +0.000 A 
ATOM     11  C   UNL     1       1.412   8.840  19.423  0.00  0.00    +0.000 A 
ATOM     12  C   UNL     1       1.710   7.527  19.789  0.00  0.00    +0.000 A 
ATOM     13  C   UNL     1       2.591   6.799  18.996  0.00  0.00    +0.000 A 
ENDROOT
BRANCH   1  14
ATOM     14  C   UNL     1       1.859   4.325  19.174  0.00  0.00    +0.000 C 
ATOM     15  F   UNL     1       2.334   3.061  19.354  0.00  0.00    +0.000 F 
ATOM     16  F   UNL     1       0.958   4.540  20.161  0.00  0.00    +0.000 F 
ATOM     17  F   UNL     1       1.167   4.298  18.008  0.00  0.00    +0.000 F 
ENDBRANCH   1  14
BRANCH   1  18
ATOM     18  O   UNL     1       3.839   5.308  20.362  0.00  0.00    +0.000 OA
ATOM     19  H   UNL     1       4.578   5.925  20.231  0.00  0.00    +0.000 HD
ENDBRANCH   1  18
BRANCH  11  20
ATOM     20  O   UNL     1       0.525   9.660  20.070  0.00  0.00    +0.000 OA
BRANCH  20  21
ATOM     21  C   UNL     1      -0.012  10.735  19.300  0.00  0.00    +0.000 C 
BRANCH  21  22
ATOM     22  C   UNL     1      -1.385  10.347  18.833  0.00  0.00    +0.000 C 
ATOM     23  C   UNL     1      -2.206  11.294  17.995  0.00  0.00    +0.000 C 
ATOM     24  C   UNL     1      -1.630  10.053  17.374  0.00  0.00    +0.000 C 
ENDBRANCH  21  22
ENDBRANCH  20  21
ENDBRANCH  11  20
TORSDOF 5
ENDMDL
MODEL 7
REMARK VINA RESULT:      -7.6      2.916      7.096
REMARK  Name = 
REMARK  5 active torsions:
REMARK  status: ('A' for Active; 'I' for Inactive)
REMARK    1  A    between atoms: O_1  and  C_2
REMARK    2  A    between atoms: C_2  and  C_3
REMARK    3  A    between atoms: C_16  and  O_17
REMARK    4  A    between atoms: O_17  and  C_18
REMARK    5  A    between atoms: C_18  and  C_19
REMARK                            x       y       z     vdW  Elec       q    Type
REMARK                         _______ _______ _______ _____ _____    ______ ____
ROOT
ATOM      1  C   UNL     1       3.169   5.250  19.124  0.00  0.00    +0.000 C 
ATOM      2  C   UNL     1       4.098   5.160  17.914  0.00  0.00    +0.000 A 
ATOM      3  C   UNL     1       4.859   4.080  17.479  0.00  0.00    +0.000 A 
ATOM      4  C   UNL     1       5.633   4.239  16.328  0.00  0.00    +0.000 A 
ATOM      5  C   UNL     1       5.648   5.460  15.636  0.00  0.00    +0.000 A 
ATOM      6  C   UNL     1       4.884   6.545  16.078  0.00  0.00    +0.000 A 
ATOM      7  C   UNL     1       4.108   6.386  17.212  0.00  0.00    +0.000 A 
ATOM      8  C   UNL     1       3.219   7.314  17.877  0.00  0.00    +0.000 A 
ATOM      9  C   UNL     1       2.871   8.615  17.558  0.00  0.00    +0.000 A 
ATOM     10  C   UNL     1       1.953   9.281  18.378  0.00  0.00    +0.000 A 
ATOM     11  C   UNL     1       1.412   8.666  19.521  0.00  0.00    +0.000 A 
ATOM     12  C   UNL     1       1.769   7.356  19.843  0.00  0.00    +0.000 A 
ATOM     13  C   UNL     1       2.659   6.686  19.009  0.00  0.00    +0.000 A 
ENDROOT
BRANCH   1  14
ATOM     14  C   UNL     1       2.027   4.182  19.132  0.00  0.00    +0.000 C 
ATOM     15  F   UNL     1       1.284   4.283  17.994  0.00  0.00    +0.000 F 
ATOM     16  F   UNL     1       2.471   2.905  19.188  0.00  0.00    +0.000 F 
ATOM     17  F   UNL     1       1.156   4.341  20.158  0.00  0.00    +0.000 F 
ENDBRANCH   1  14
BRANCH   1  18
ATOM     18  O   UNL     1       3.995   5.207  20.304  0.00  0.00    +0.000 OA
ATOM     19  H   UNL     1       3.644   5.873  20.919  0.00  0.00    +0.000 HD
ENDBRANCH   1  18
BRANCH  11  20
ATOM     20  O   UNL     1       0.509   9.432  20.212  0.00  0.00    +0.000 OA
BRANCH  20  21
ATOM     21  C   UNL     1       0.051   8.896  21.452  0.00  0.00    +0.000 C 
BRANCH  21  22
ATOM     22  C   UNL     1       0.128   9.974  22.494  0.00  0.00    +0.000 C 
ATOM     23  C   UNL     1      -0.417  11.352  22.215  0.00  0.00    +0.000 C 
ATOM     24  C   UNL     1      -1.127  10.449  23.183  0.00  0.00    +0.000 C 
ENDBRANCH  21  22
ENDBRANCH  20  21
ENDBRANCH  11  20
TORSDOF 5
ENDMDL
MODEL 8
REMARK VINA RESULT:      -7.6      2.883      7.019
REMARK  Name = 
REMARK  5 active torsions:
REMARK  status: ('A' for Active; 'I' for Inactive)
REMARK    1  A    between atoms: O_1  and  C_2
REMARK    2  A    between atoms: C_2  and  C_3
REMARK    3  A    between atoms: C_16  and  O_17
REMARK    4  A    between atoms: O_17  and  C_18
REMARK    5  A    between atoms: C_18  and  C_19
REMARK                            x       y       z     vdW  Elec       q    Type
REMARK                         _______ _______ _______ _____ _____    ______ ____
ROOT
ATOM      1  C   UNL     1       3.021   5.291  18.988  0.00  0.00    +0.000 C 
ATOM      2  C   UNL     1       4.043   5.146  17.861  0.00  0.00    +0.000 A 
ATOM      3  C   UNL     1       4.786   4.028  17.498  0.00  0.00    +0.000 A 
ATOM      4  C   UNL     1       5.660   4.140  16.416  0.00  0.00    +0.000 A 
ATOM      5  C   UNL     1       5.792   5.352  15.720  0.00  0.00    +0.000 A 
ATOM      6  C   UNL     1       5.047   6.476  16.091  0.00  0.00    +0.000 A 
ATOM      7  C   UNL     1       4.171   6.364  17.156  0.00  0.00    +0.000 A 
ATOM      8  C   UNL     1       3.274   7.339  17.738  0.00  0.00    +0.000 A 
ATOM      9  C   UNL     1       3.017   8.652  17.384  0.00  0.00    +0.000 A 
ATOM     10  C   UNL     1       2.066   9.368  18.120  0.00  0.00    +0.000 A 
ATOM     11  C   UNL     1       1.401   8.790  19.217  0.00  0.00    +0.000 A 
ATOM     12  C   UNL     1       1.668   7.468  19.575  0.00  0.00    +0.000 A 
ATOM     13  C   UNL     1       2.591   6.749  18.823  0.00  0.00    +0.000 A 
ENDROOT
BRANCH   1  14
ATOM     14  C   UNL     1       1.833   4.278  18.905  0.00  0.00    +0.000 C 
ATOM     15  F   UNL     1       0.980   4.470  19.950  0.00  0.00    +0.000 F 
ATOM     16  F   UNL     1       1.092   4.393  17.779  0.00  0.00    +0.000 F 
ATOM     17  F   UNL     1       2.230   2.984  18.984  0.00  0.00    +0.000 F 
ENDBRANCH   1  14
BRANCH   1  18
ATOM     18  O   UNL     1       3.742   5.221  20.233  0.00  0.00    +0.000 OA
ATOM     19  H   UNL     1       4.639   5.553  20.060  0.00  0.00    +0.000 HD
ENDBRANCH   1  18
BRANCH  11  20
ATOM     20  O   UNL     1       0.482   9.604  19.824  0.00  0.00    +0.000 OA
BRANCH  20  21
ATOM     21  C   UNL     1       0.806  10.041  21.144  0.00  0.00    +0.000 C 
BRANCH  21  22
ATOM     22  C   UNL     1      -0.277   9.581  22.077  0.00  0.00    +0.000 C 
ATOM     23  C   UNL     1      -0.016   9.467  23.558  0.00  0.00    +0.000 C 
ATOM     24  C   UNL     1      -0.908  10.558  23.038  0.00  0.00    +0.000 C 
ENDBRANCH  21  22
ENDBRANCH  20  21
ENDBRANCH  11  20
TORSDOF 5
ENDMDL
MODEL 9
REMARK VINA RESULT:      -7.5      2.478      3.335
REMARK  Name = 
REMARK  5 active torsions:
REMARK  status: ('A' for Active; 'I' for Inactive)
REMARK    1  A    between atoms: O_1  and  C_2
REMARK    2  A    between atoms: C_2  and  C_3
REMARK    3  A    between atoms: C_16  and  O_17
REMARK    4  A    between atoms: O_17  and  C_18
REMARK    5  A    between atoms: C_18  and  C_19
REMARK                            x       y       z     vdW  Elec       q    Type
REMARK                         _______ _______ _______ _____ _____    ______ ____
ROOT
ATOM      1  C   UNL     1       3.420   6.011  18.922  0.00  0.00    +0.000 C 
ATOM      2  C   UNL     1       2.535   4.868  19.418  0.00  0.00    +0.000 A 
ATOM      3  C   UNL     1       1.651   4.854  20.492  0.00  0.00    +0.000 A 
ATOM      4  C   UNL     1       0.940   3.680  20.746  0.00  0.00    +0.000 A 
ATOM      5  C   UNL     1       1.122   2.542  19.945  0.00  0.00    +0.000 A 
ATOM      6  C   UNL     1       2.015   2.558  18.869  0.00  0.00    +0.000 A 
ATOM      7  C   UNL     1       2.712   3.724  18.607  0.00  0.00    +0.000 A 
ATOM      8  C   UNL     1       3.670   4.030  17.568  0.00  0.00    +0.000 A 
ATOM      9  C   UNL     1       4.146   3.256  16.523  0.00  0.00    +0.000 A 
ATOM     10  C   UNL     1       5.067   3.825  15.636  0.00  0.00    +0.000 A 
ATOM     11  C   UNL     1       5.531   5.142  15.807  0.00  0.00    +0.000 A 
ATOM     12  C   UNL     1       5.054   5.917  16.864  0.00  0.00    +0.000 A 
ATOM     13  C   UNL     1       4.116   5.359  17.727  0.00  0.00    +0.000 A 
ENDROOT
BRANCH   1  14
ATOM     14  C   UNL     1       2.634   7.311  18.553  0.00  0.00    +0.000 C 
ATOM     15  F   UNL     1       1.636   7.020  17.672  0.00  0.00    +0.000 F 
ATOM     16  F   UNL     1       2.048   7.917  19.611  0.00  0.00    +0.000 F 
ATOM     17  F   UNL     1       3.406   8.244  17.943  0.00  0.00    +0.000 F 
ENDBRANCH   1  14
BRANCH   1  18
ATOM     18  O   UNL     1       4.441   6.226  19.916  0.00  0.00    +0.000 OA
ATOM     19  H   UNL     1       4.460   5.433  20.478  0.00  0.00    +0.000 HD
ENDBRANCH   1  18
BRANCH  11  20
ATOM     20  O   UNL     1       6.411   5.568  14.848  0.00  0.00    +0.000 OA
BRANCH  20  21
ATOM     21  C   UNL     1       7.147   4.548  14.173  0.00  0.00    +0.000 C 
BRANCH  21  22
ATOM     22  C   UNL     1       6.691   4.497  12.744  0.00  0.00    +0.000 C 
ATOM     23  C   UNL     1       7.150   3.388  11.831  0.00  0.00    +0.000 C 
ATOM     24  C   UNL     1       5.723   3.429  12.299  0.00  0.00    +0.000 C 
ENDBRANCH  21  22
ENDBRANCH  20  21
ENDBRANCH  11  20
TORSDOF 5
ENDMDL
