MODEL 1
REMARK VINA RESULT:      -9.0      0.000      0.000
REMARK  Name = 
REMARK  7 active torsions:
REMARK  status: ('A' for Active; 'I' for Inactive)
REMARK    1  A    between atoms: C_2  and  C_5
REMARK    2  A    between atoms: N_3  and  O_4
REMARK    3  A    between atoms: C_9  and  O_10
REMARK    4  A    between atoms: O_10  and  C_11
REMARK    5  A    between atoms: C_11  and  C_12
REMARK    6  A    between atoms: N_22  and  S_23
REMARK    7  A    between atoms: S_23  and  C_26
REMARK                            x       y       z     vdW  Elec       q    Type
REMARK                         _______ _______ _______ _____ _____    ______ ____
ROOT
ATOM      1  C   UNL     1       5.496   5.011  18.120  0.00  0.00    +0.000 C 
ATOM      2  C   UNL     1       4.229   5.616  18.725  0.00  0.00    +0.000 A 
ATOM      3  C   UNL     1       3.562   5.042  19.814  0.00  0.00    +0.000 A 
ATOM      4  C   UNL     1       2.476   5.704  20.397  0.00  0.00    +0.000 A 
ATOM      5  C   UNL     1       2.069   6.950  19.915  0.00  0.00    +0.000 A 
ATOM      6  C   UNL     1       2.767   7.546  18.866  0.00  0.00    +0.000 A 
ATOM      7  C   UNL     1       3.805   6.863  18.242  0.00  0.00    +0.000 A 
ATOM      8  C   UNL     1       4.484   7.425  17.026  0.00  0.00    +0.000 C 
ATOM      9  C   UNL     1       4.709   6.269  16.059  0.00  0.00    +0.000 C 
ATOM     10  N   UNL     1       5.604   5.219  16.625  0.00  0.00    +0.000 NA
ENDROOT
BRANCH   1  12
ATOM     11  O   UNL     1       7.073   5.045  20.018  0.00  0.00    +0.000 OA
ATOM     12  C   UNL     1       6.690   5.541  18.955  0.00  0.00    +0.000 C 
ATOM     13  N   UNL     1       7.371   6.600  18.384  0.00  0.00    +0.000 N 
ATOM     14  H   UNL     1       6.837   7.331  17.918  0.00  0.00    +0.000 HD
BRANCH  13  15
ATOM     15  O   UNL     1       8.457   7.070  19.172  0.00  0.00    +0.000 OA
ATOM     16  H   UNL     1       8.168   6.851  20.088  0.00  0.00    +0.000 HD
ENDBRANCH  13  15
ENDBRANCH   1  12
BRANCH  10  17
ATOM     17  S   UNL     1       7.177   5.155  16.000  0.00  0.00    +0.000 S 
ATOM     18  O   UNL     1       7.691   6.506  15.983  0.00  0.00    +0.000 OA
ATOM     19  O   UNL     1       7.861   4.085  16.695  0.00  0.00    +0.000 OA
BRANCH  17  20
ATOM     20  C   UNL     1       6.952   4.638  14.311  0.00  0.00    +0.000 A 
ATOM     21  C   UNL     1       5.967   3.692  14.001  0.00  0.00    +0.000 A 
ATOM     22  C   UNL     1       5.794   3.284  12.678  0.00  0.00    +0.000 A 
ATOM     23  C   UNL     1       6.597   3.821  11.672  0.00  0.00    +0.000 A 
ATOM     24  C   UNL     1       7.572   4.771  11.983  0.00  0.00    +0.000 A 
ATOM     25  C   UNL     1       7.754   5.185  13.306  0.00  0.00    +0.000 A 
ENDBRANCH  17  20
ENDBRANCH  10  17
BRANCH   5  26
ATOM     26  O   UNL     1       0.971   7.505  20.518  0.00  0.00    +0.000 OA
BRANCH  26  27
ATOM     27  C   UNL     1       1.263   8.249  21.705  0.00  0.00    +0.000 C 
BRANCH  27  28
ATOM     28  C   UNL     1       0.341   9.433  21.790  0.00  0.00    +0.000 A 
ATOM     29  C   UNL     1       0.108  10.233  20.667  0.00  0.00    +0.000 A 
ATOM     30  C   UNL     1      -0.743  11.333  20.752  0.00  0.00    +0.000 A 
ATOM     31  C   UNL     1      -1.366  11.639  21.961  0.00  0.00    +0.000 A 
ATOM     32  C   UNL     1      -1.146  10.843  23.083  0.00  0.00    +0.000 A 
ATOM     33  C   UNL     1      -0.296   9.742  23.000  0.00  0.00    +0.000 A 
ENDBRANCH  27  28
ENDBRANCH  26  27
ENDBRANCH   5  26
TORSDOF 7
ENDMDL
MODEL 2
REMARK VINA RESULT:      -9.0      0.588      1.127
REMARK  Name = 
REMARK  7 active torsions:
REMARK  status: ('A' for Active; 'I' for Inactive)
REMARK    1  A    between atoms: C_2  and  C_5
REMARK    2  A    between atoms: N_3  and  O_4
REMARK    3  A    between atoms: C_9  and  O_10
REMARK    4  A    between atoms: O_10  and  C_11
REMARK    5  A    between atoms: C_11  and  C_12
REMARK    6  A    between atoms: N_22  and  S_23
REMARK    7  A    between atoms: S_23  and  C_26
REMARK                            x       y       z     vdW  Elec       q    Type
REMARK                         _______ _______ _______ _____ _____    ______ ____
ROOT
ATOM      1  C   UNL     1       5.511   5.140  18.007  0.00  0.00    +0.000 C 
ATOM      2  C   UNL     1       4.252   5.794  18.577  0.00  0.00    +0.000 A 
ATOM      3  C   UNL     1       3.575   5.286  19.692  0.00  0.00    +0.000 A 
ATOM      4  C   UNL     1       2.498   5.993  20.238  0.00  0.00    +0.000 A 
ATOM      5  C   UNL     1       2.110   7.219  19.691  0.00  0.00    +0.000 A 
ATOM      6  C   UNL     1       2.819   7.750  18.616  0.00  0.00    +0.000 A 
ATOM      7  C   UNL     1       3.848   7.021  18.030  0.00  0.00    +0.000 A 
ATOM      8  C   UNL     1       4.537   7.510  16.789  0.00  0.00    +0.000 C 
ATOM      9  C   UNL     1       4.747   6.304  15.882  0.00  0.00    +0.000 C 
ATOM     10  N   UNL     1       5.625   5.270  16.504  0.00  0.00    +0.000 NA
ENDROOT
BRANCH   1  12
ATOM     11  O   UNL     1       7.223   6.801  18.638  0.00  0.00    +0.000 OA
ATOM     12  C   UNL     1       6.711   5.694  18.818  0.00  0.00    +0.000 C 
ATOM     13  N   UNL     1       7.148   4.871  19.840  0.00  0.00    +0.000 N 
ATOM     14  H   UNL     1       7.189   3.868  19.677  0.00  0.00    +0.000 HD
BRANCH  13  15
ATOM     15  O   UNL     1       8.252   5.400  20.563  0.00  0.00    +0.000 OA
ATOM     16  H   UNL     1       8.438   6.241  20.086  0.00  0.00    +0.000 HD
ENDBRANCH  13  15
ENDBRANCH   1  12
BRANCH  10  17
ATOM     17  S   UNL     1       7.198   5.151  15.887  0.00  0.00    +0.000 S 
ATOM     18  O   UNL     1       7.751   6.486  15.853  0.00  0.00    +0.000 OA
ATOM     19  O   UNL     1       7.848   4.072  16.602  0.00  0.00    +0.000 OA
BRANCH  17  20
ATOM     20  C   UNL     1       6.966   4.616  14.205  0.00  0.00    +0.000 A 
ATOM     21  C   UNL     1       5.988   3.656  13.912  0.00  0.00    +0.000 A 
ATOM     22  C   UNL     1       5.809   3.234  12.594  0.00  0.00    +0.000 A 
ATOM     23  C   UNL     1       6.599   3.769  11.577  0.00  0.00    +0.000 A 
ATOM     24  C   UNL     1       7.565   4.733  11.871  0.00  0.00    +0.000 A 
ATOM     25  C   UNL     1       7.754   5.161  13.189  0.00  0.00    +0.000 A 
ENDBRANCH  17  20
ENDBRANCH  10  17
BRANCH   5  26
ATOM     26  O   UNL     1       1.019   7.820  20.262  0.00  0.00    +0.000 OA
BRANCH  26  27
ATOM     27  C   UNL     1       1.245   8.317  21.585  0.00  0.00    +0.000 C 
BRANCH  27  28
ATOM     28  C   UNL     1       0.410   9.548  21.804  0.00  0.00    +0.000 A 
ATOM     29  C   UNL     1      -0.385   9.672  22.948  0.00  0.00    +0.000 A 
ATOM     30  C   UNL     1      -1.161  10.811  23.144  0.00  0.00    +0.000 A 
ATOM     31  C   UNL     1      -1.148  11.834  22.197  0.00  0.00    +0.000 A 
ATOM     32  C   UNL     1      -0.352  11.724  21.059  0.00  0.00    +0.000 A 
ATOM     33  C   UNL     1       0.426  10.586  20.861  0.00  0.00    +0.000 A 
ENDBRANCH  27  28
ENDBRANCH  26  27
ENDBRANCH   5  26
TORSDOF 7
ENDMDL
MODEL 3
REMARK VINA RESULT:      -8.9      4.253      9.871
REMARK  Name = 
REMARK  7 active torsions:
REMARK  status: ('A' for Active; 'I' for Inactive)
REMARK    1  A    between atoms: C_2  and  C_5
REMARK    2  A    between atoms: N_3  and  O_4
REMARK    3  A    between atoms: C_9  and  O_10
REMARK    4  A    between atoms: O_10  and  C_11
REMARK    5  A    between atoms: C_11  and  C_12
REMARK    6  A    between atoms: N_22  and  S_23
REMARK    7  A    between atoms: S_23  and  C_26
REMARK                            x       y       z     vdW  Elec       q    Type
REMARK                         _______ _______ _______ _____ _____    ______ ____
ROOT
ATOM      1  C   UNL     1       0.651  10.618  18.388  0.00  0.00    +0.000 C 
ATOM      2  C   UNL     1       1.332   9.276  18.660  0.00  0.00    +0.000 A 
ATOM      3  C   UNL     1       2.105   8.613  17.701  0.00  0.00    +0.000 A 
ATOM      4  C   UNL     1       2.798   7.447  18.046  0.00  0.00    +0.000 A 
ATOM      5  C   UNL     1       2.744   6.955  19.352  0.00  0.00    +0.000 A 
ATOM      6  C   UNL     1       2.017   7.646  20.320  0.00  0.00    +0.000 A 
ATOM      7  C   UNL     1       1.276   8.768  19.967  0.00  0.00    +0.000 A 
ATOM      8  C   UNL     1       0.380   9.450  20.960  0.00  0.00    +0.000 C 
ATOM      9  C   UNL     1      -0.906   9.821  20.230  0.00  0.00    +0.000 C 
ATOM     10  N   UNL     1      -0.669  10.777  19.110  0.00  0.00    +0.000 NA
ENDROOT
BRANCH   1  12
ATOM     11  O   UNL     1       2.076  12.056  19.799  0.00  0.00    +0.000 OA
ATOM     12  C   UNL     1       1.704  11.721  18.672  0.00  0.00    +0.000 C 
ATOM     13  N   UNL     1       2.274  12.282  17.544  0.00  0.00    +0.000 N 
ATOM     14  H   UNL     1       1.679  12.476  16.741  0.00  0.00    +0.000 HD
BRANCH  13  15
ATOM     15  O   UNL     1       3.230  13.294  17.833  0.00  0.00    +0.000 OA
ATOM     16  H   UNL     1       3.108  13.923  17.085  0.00  0.00    +0.000 HD
ENDBRANCH  13  15
ENDBRANCH   1  12
BRANCH  10  17
ATOM     17  S   UNL     1      -1.160  12.377  19.372  0.00  0.00    +0.000 S 
ATOM     18  O   UNL     1      -0.728  12.750  20.699  0.00  0.00    +0.000 OA
ATOM     19  O   UNL     1      -0.770  13.132  18.199  0.00  0.00    +0.000 OA
BRANCH  17  20
ATOM     20  C   UNL     1      -2.938  12.289  19.384  0.00  0.00    +0.000 A 
ATOM     21  C   UNL     1      -3.606  11.618  18.352  0.00  0.00    +0.000 A 
ATOM     22  C   UNL     1      -5.000  11.552  18.361  0.00  0.00    +0.000 A 
ATOM     23  C   UNL     1      -5.720  12.150  19.394  0.00  0.00    +0.000 A 
ATOM     24  C   UNL     1      -5.050  12.809  20.427  0.00  0.00    +0.000 A 
ATOM     25  C   UNL     1      -3.654  12.882  20.427  0.00  0.00    +0.000 A 
ENDBRANCH  17  20
ENDBRANCH  10  17
BRANCH   5  26
ATOM     26  O   UNL     1       3.417   5.786  19.588  0.00  0.00    +0.000 OA
BRANCH  26  27
ATOM     27  C   UNL     1       3.355   4.842  18.514  0.00  0.00    +0.000 C 
BRANCH  27  28
ATOM     28  C   UNL     1       4.710   4.728  17.872  0.00  0.00    +0.000 A 
ATOM     29  C   UNL     1       4.829   4.368  16.526  0.00  0.00    +0.000 A 
ATOM     30  C   UNL     1       6.086   4.258  15.936  0.00  0.00    +0.000 A 
ATOM     31  C   UNL     1       7.232   4.508  16.690  0.00  0.00    +0.000 A 
ATOM     32  C   UNL     1       7.123   4.876  18.028  0.00  0.00    +0.000 A 
ATOM     33  C   UNL     1       5.867   4.988  18.620  0.00  0.00    +0.000 A 
ENDBRANCH  27  28
ENDBRANCH  26  27
ENDBRANCH   5  26
TORSDOF 7
ENDMDL
MODEL 4
REMARK VINA RESULT:      -8.9      0.615      1.149
REMARK  Name = 
REMARK  7 active torsions:
REMARK  status: ('A' for Active; 'I' for Inactive)
REMARK    1  A    between atoms: C_2  and  C_5
REMARK    2  A    between atoms: N_3  and  O_4
REMARK    3  A    between atoms: C_9  and  O_10
REMARK    4  A    between atoms: O_10  and  C_11
REMARK    5  A    between atoms: C_11  and  C_12
REMARK    6  A    between atoms: N_22  and  S_23
REMARK    7  A    between atoms: S_23  and  C_26
REMARK                            x       y       z     vdW  Elec       q    Type
REMARK                         _______ _______ _______ _____ _____    ______ ____
ROOT
ATOM      1  C   UNL     1       5.548   5.008  18.160  0.00  0.00    +0.000 C 
ATOM      2  C   UNL     1       4.265   5.576  18.768  0.00  0.00    +0.000 A 
ATOM      3  C   UNL     1       3.632   4.997  19.874  0.00  0.00    +0.000 A 
ATOM      4  C   UNL     1       2.528   5.629  20.457  0.00  0.00    +0.000 A 
ATOM      5  C   UNL     1       2.068   6.849  19.957  0.00  0.00    +0.000 A 
ATOM      6  C   UNL     1       2.732   7.451  18.890  0.00  0.00    +0.000 A 
ATOM      7  C   UNL     1       3.789   6.797  18.267  0.00  0.00    +0.000 A 
ATOM      8  C   UNL     1       4.433   7.361  17.033  0.00  0.00    +0.000 C 
ATOM      9  C   UNL     1       4.692   6.197  16.085  0.00  0.00    +0.000 C 
ATOM     10  N   UNL     1       5.632   5.193  16.660  0.00  0.00    +0.000 NA
ENDROOT
BRANCH   1  12
ATOM     11  O   UNL     1       7.170   6.741  18.831  0.00  0.00    +0.000 OA
ATOM     12  C   UNL     1       6.729   5.598  18.972  0.00  0.00    +0.000 C 
ATOM     13  N   UNL     1       7.235   4.761  19.950  0.00  0.00    +0.000 N 
ATOM     14  H   UNL     1       7.333   3.770  19.742  0.00  0.00    +0.000 HD
BRANCH  13  15
ATOM     15  O   UNL     1       8.321   5.324  20.675  0.00  0.00    +0.000 OA
ATOM     16  H   UNL     1       8.660   6.010  20.055  0.00  0.00    +0.000 HD
ENDBRANCH  13  15
ENDBRANCH   1  12
BRANCH  10  17
ATOM     17  S   UNL     1       7.200   5.177  16.018  0.00  0.00    +0.000 S 
ATOM     18  O   UNL     1       7.678   6.540  16.013  0.00  0.00    +0.000 OA
ATOM     19  O   UNL     1       7.919   4.117  16.694  0.00  0.00    +0.000 OA
BRANCH  17  20
ATOM     20  C   UNL     1       6.972   4.674  14.326  0.00  0.00    +0.000 A 
ATOM     21  C   UNL     1       7.778   5.228  13.324  0.00  0.00    +0.000 A 
ATOM     22  C   UNL     1       7.596   4.836  11.997  0.00  0.00    +0.000 A 
ATOM     23  C   UNL     1       6.617   3.896  11.675  0.00  0.00    +0.000 A 
ATOM     24  C   UNL     1       5.823   3.338  12.679  0.00  0.00    +0.000 A 
ATOM     25  C   UNL     1       5.996   3.725  14.011  0.00  0.00    +0.000 A 
ENDBRANCH  17  20
ENDBRANCH  10  17
BRANCH   5  26
ATOM     26  O   UNL     1       0.956   7.373  20.562  0.00  0.00    +0.000 OA
BRANCH  26  27
ATOM     27  C   UNL     1       1.239   8.281  21.631  0.00  0.00    +0.000 C 
BRANCH  27  28
ATOM     28  C   UNL     1       0.344   9.483  21.513  0.00  0.00    +0.000 A 
ATOM     29  C   UNL     1       0.040  10.022  20.259  0.00  0.00    +0.000 A 
ATOM     30  C   UNL     1      -0.785  11.139  20.156  0.00  0.00    +0.000 A 
ATOM     31  C   UNL     1      -1.311  11.725  21.306  0.00  0.00    +0.000 A 
ATOM     32  C   UNL     1      -1.021  11.190  22.559  0.00  0.00    +0.000 A 
ATOM     33  C   UNL     1      -0.197  10.072  22.665  0.00  0.00    +0.000 A 
ENDBRANCH  27  28
ENDBRANCH  26  27
ENDBRANCH   5  26
TORSDOF 7
ENDMDL
MODEL 5
REMARK VINA RESULT:      -8.9      5.368     10.640
REMARK  Name = 
REMARK  7 active torsions:
REMARK  status: ('A' for Active; 'I' for Inactive)
REMARK    1  A    between atoms: C_2  and  C_5
REMARK    2  A    between atoms: N_3  and  O_4
REMARK    3  A    between atoms: C_9  and  O_10
REMARK    4  A    between atoms: O_10  and  C_11
REMARK    5  A    between atoms: C_11  and  C_12
REMARK    6  A    between atoms: N_22  and  S_23
REMARK    7  A    between atoms: S_23  and  C_26
REMARK                            x       y       z     vdW  Elec       q    Type
REMARK                         _______ _______ _______ _____ _____    ______ ____
ROOT
ATOM      1  C   UNL     1      -0.005  11.800  19.976  0.00  0.00    +0.000 C 
ATOM      2  C   UNL     1       0.626  10.477  19.540  0.00  0.00    +0.000 A 
ATOM      3  C   UNL     1       0.983  10.211  18.213  0.00  0.00    +0.000 A 
ATOM      4  C   UNL     1       1.663   9.030  17.896  0.00  0.00    +0.000 A 
ATOM      5  C   UNL     1       2.013   8.126  18.901  0.00  0.00    +0.000 A 
ATOM      6  C   UNL     1       1.705   8.418  20.229  0.00  0.00    +0.000 A 
ATOM      7  C   UNL     1       0.973   9.558  20.541  0.00  0.00    +0.000 A 
ATOM      8  C   UNL     1       0.515   9.825  21.946  0.00  0.00    +0.000 C 
ATOM      9  C   UNL     1      -0.910  10.360  21.863  0.00  0.00    +0.000 C 
ATOM     10  N   UNL     1      -0.992  11.646  21.113  0.00  0.00    +0.000 NA
ENDROOT
BRANCH   1  12
ATOM     11  O   UNL     1       2.006  12.657  21.121  0.00  0.00    +0.000 OA
ATOM     12  C   UNL     1       1.160  12.790  20.234  0.00  0.00    +0.000 C 
ATOM     13  N   UNL     1       1.241  13.836  19.333  0.00  0.00    +0.000 N 
ATOM     14  H   UNL     1       0.380  14.284  19.025  0.00  0.00    +0.000 HD
BRANCH  13  15
ATOM     15  O   UNL     1       2.313  14.732  19.596  0.00  0.00    +0.000 OA
ATOM     16  H   UNL     1       2.075  15.517  19.052  0.00  0.00    +0.000 HD
ENDBRANCH  13  15
ENDBRANCH   1  12
BRANCH  10  17
ATOM     17  S   UNL     1      -1.248  13.041  22.040  0.00  0.00    +0.000 S 
ATOM     18  O   UNL     1      -0.430  12.928  23.226  0.00  0.00    +0.000 OA
ATOM     19  O   UNL     1      -1.136  14.169  21.139  0.00  0.00    +0.000 OA
BRANCH  17  20
ATOM     20  C   UNL     1      -2.952  12.923  22.541  0.00  0.00    +0.000 A 
ATOM     21  C   UNL     1      -3.266  12.759  23.896  0.00  0.00    +0.000 A 
ATOM     22  C   UNL     1      -4.602  12.663  24.288  0.00  0.00    +0.000 A 
ATOM     23  C   UNL     1      -5.616  12.733  23.333  0.00  0.00    +0.000 A 
ATOM     24  C   UNL     1      -5.299  12.907  21.984  0.00  0.00    +0.000 A 
ATOM     25  C   UNL     1      -3.964  13.002  21.581  0.00  0.00    +0.000 A 
ENDBRANCH  17  20
ENDBRANCH  10  17
BRANCH   5  26
ATOM     26  O   UNL     1       2.638   6.978  18.493  0.00  0.00    +0.000 OA
BRANCH  26  27
ATOM     27  C   UNL     1       3.074   6.132  19.562  0.00  0.00    +0.000 C 
BRANCH  27  28
ATOM     28  C   UNL     1       2.261   4.867  19.562  0.00  0.00    +0.000 A 
ATOM     29  C   UNL     1       1.831   4.300  20.765  0.00  0.00    +0.000 A 
ATOM     30  C   UNL     1       1.083   3.125  20.760  0.00  0.00    +0.000 A 
ATOM     31  C   UNL     1       0.761   2.510  19.551  0.00  0.00    +0.000 A 
ATOM     32  C   UNL     1       1.177   3.073  18.347  0.00  0.00    +0.000 A 
ATOM     33  C   UNL     1       1.925   4.249  18.349  0.00  0.00    +0.000 A 
ENDBRANCH  27  28
ENDBRANCH  26  27
ENDBRANCH   5  26
TORSDOF 7
ENDMDL
MODEL 6
REMARK VINA RESULT:      -8.8      4.436     10.143
REMARK  Name = 
REMARK  7 active torsions:
REMARK  status: ('A' for Active; 'I' for Inactive)
REMARK    1  A    between atoms: C_2  and  C_5
REMARK    2  A    between atoms: N_3  and  O_4
REMARK    3  A    between atoms: C_9  and  O_10
REMARK    4  A    between atoms: O_10  and  C_11
REMARK    5  A    between atoms: C_11  and  C_12
REMARK    6  A    between atoms: N_22  and  S_23
REMARK    7  A    between atoms: S_23  and  C_26
REMARK                            x       y       z     vdW  Elec       q    Type
REMARK                         _______ _______ _______ _____ _____    ______ ____
ROOT
ATOM      1  C   UNL     1       0.382  11.001  18.830  0.00  0.00    +0.000 C 
ATOM      2  C   UNL     1       1.028   9.616  18.856  0.00  0.00    +0.000 A 
ATOM      3  C   UNL     1       1.519   8.989  17.705  0.00  0.00    +0.000 A 
ATOM      4  C   UNL     1       2.205   7.774  17.810  0.00  0.00    +0.000 A 
ATOM      5  C   UNL     1       2.425   7.194  19.061  0.00  0.00    +0.000 A 
ATOM      6  C   UNL     1       1.983   7.846  20.211  0.00  0.00    +0.000 A 
ATOM      7  C   UNL     1       1.246   9.020  20.107  0.00  0.00    +0.000 A 
ATOM      8  C   UNL     1       0.645   9.669  21.321  0.00  0.00    +0.000 C 
ATOM      9  C   UNL     1      -0.751  10.144  20.936  0.00  0.00    +0.000 C 
ATOM     10  N   UNL     1      -0.725  11.165  19.849  0.00  0.00    +0.000 NA
ENDROOT
BRANCH   1  12
ATOM     11  O   UNL     1       2.214  12.232  19.933  0.00  0.00    +0.000 OA
ATOM     12  C   UNL     1       1.533  12.036  18.924  0.00  0.00    +0.000 C 
ATOM     13  N   UNL     1       1.809  12.704  17.744  0.00  0.00    +0.000 N 
ATOM     14  H   UNL     1       1.032  13.003  17.159  0.00  0.00    +0.000 HD
BRANCH  13  15
ATOM     15  O   UNL     1       2.864  13.650  17.859  0.00  0.00    +0.000 OA
ATOM     16  H   UNL     1       3.591  13.222  17.353  0.00  0.00    +0.000 HD
ENDBRANCH  13  15
ENDBRANCH   1  12
BRANCH  10  17
ATOM     17  S   UNL     1      -1.049  12.762  20.312  0.00  0.00    +0.000 S 
ATOM     18  O   UNL     1      -0.281  13.031  21.506  0.00  0.00    +0.000 OA
ATOM     19  O   UNL     1      -0.923  13.577  19.121  0.00  0.00    +0.000 OA
BRANCH  17  20
ATOM     20  C   UNL     1      -2.770  12.742  20.766  0.00  0.00    +0.000 A 
ATOM     21  C   UNL     1      -3.136  12.921  22.106  0.00  0.00    +0.000 A 
ATOM     22  C   UNL     1      -4.485  12.901  22.462  0.00  0.00    +0.000 A 
ATOM     23  C   UNL     1      -5.461  12.707  21.485  0.00  0.00    +0.000 A 
ATOM     24  C   UNL     1      -5.094  12.538  20.148  0.00  0.00    +0.000 A 
ATOM     25  C   UNL     1      -3.745  12.555  19.782  0.00  0.00    +0.000 A 
ENDBRANCH  17  20
ENDBRANCH  10  17
BRANCH   5  26
ATOM     26  O   UNL     1       3.067   5.984  19.064  0.00  0.00    +0.000 OA
BRANCH  26  27
ATOM     27  C   UNL     1       3.794   5.699  17.865  0.00  0.00    +0.000 C 
BRANCH  27  28
ATOM     28  C   UNL     1       5.251   6.001  18.082  0.00  0.00    +0.000 A 
ATOM     29  C   UNL     1       5.915   6.918  17.262  0.00  0.00    +0.000 A 
ATOM     30  C   UNL     1       7.266   7.191  17.463  0.00  0.00    +0.000 A 
ATOM     31  C   UNL     1       7.961   6.547  18.485  0.00  0.00    +0.000 A 
ATOM     32  C   UNL     1       7.306   5.638  19.313  0.00  0.00    +0.000 A 
ATOM     33  C   UNL     1       5.955   5.365  19.115  0.00  0.00    +0.000 A 
ENDBRANCH  27  28
ENDBRANCH  26  27
ENDBRANCH   5  26
TORSDOF 7
ENDMDL
MODEL 7
REMARK VINA RESULT:      -8.8      4.440     10.198
REMARK  Name = 
REMARK  7 active torsions:
REMARK  status: ('A' for Active; 'I' for Inactive)
REMARK    1  A    between atoms: C_2  and  C_5
REMARK    2  A    between atoms: N_3  and  O_4
REMARK    3  A    between atoms: C_9  and  O_10
REMARK    4  A    between atoms: O_10  and  C_11
REMARK    5  A    between atoms: C_11  and  C_12
REMARK    6  A    between atoms: N_22  and  S_23
REMARK    7  A    between atoms: S_23  and  C_26
REMARK                            x       y       z     vdW  Elec       q    Type
REMARK                         _______ _______ _______ _____ _____    ______ ____
ROOT
ATOM      1  C   UNL     1       0.371  11.028  18.862  0.00  0.00    +0.000 C 
ATOM      2  C   UNL     1       1.010   9.639  18.874  0.00  0.00    +0.000 A 
ATOM      3  C   UNL     1       1.479   9.013  17.713  0.00  0.00    +0.000 A 
ATOM      4  C   UNL     1       2.159   7.793  17.802  0.00  0.00    +0.000 A 
ATOM      5  C   UNL     1       2.397   7.209  19.048  0.00  0.00    +0.000 A 
ATOM      6  C   UNL     1       1.978   7.860  20.207  0.00  0.00    +0.000 A 
ATOM      7  C   UNL     1       1.246   9.038  20.119  0.00  0.00    +0.000 A 
ATOM      8  C   UNL     1       0.668   9.686  21.344  0.00  0.00    +0.000 C 
ATOM      9  C   UNL     1      -0.731  10.170  20.984  0.00  0.00    +0.000 C 
ATOM     10  N   UNL     1      -0.718  11.194  19.900  0.00  0.00    +0.000 NA
ENDROOT
BRANCH   1  12
ATOM     11  O   UNL     1       2.223  12.250  19.940  0.00  0.00    +0.000 OA
ATOM     12  C   UNL     1       1.529  12.056  18.939  0.00  0.00    +0.000 C 
ATOM     13  N   UNL     1       1.795  12.719  17.755  0.00  0.00    +0.000 N 
ATOM     14  H   UNL     1       1.013  13.022  17.178  0.00  0.00    +0.000 HD
BRANCH  13  15
ATOM     15  O   UNL     1       2.856  13.659  17.855  0.00  0.00    +0.000 OA
ATOM     16  H   UNL     1       3.214  13.483  18.755  0.00  0.00    +0.000 HD
ENDBRANCH  13  15
ENDBRANCH   1  12
BRANCH  10  17
ATOM     17  S   UNL     1      -1.026  12.792  20.372  0.00  0.00    +0.000 S 
ATOM     18  O   UNL     1      -0.223  13.059  21.543  0.00  0.00    +0.000 OA
ATOM     19  O   UNL     1      -0.933  13.607  19.179  0.00  0.00    +0.000 OA
BRANCH  17  20
ATOM     20  C   UNL     1      -2.733  12.774  20.876  0.00  0.00    +0.000 A 
ATOM     21  C   UNL     1      -3.738  12.603  19.915  0.00  0.00    +0.000 A 
ATOM     22  C   UNL     1      -5.076  12.593  20.310  0.00  0.00    +0.000 A 
ATOM     23  C   UNL     1      -5.407  12.749  21.656  0.00  0.00    +0.000 A 
ATOM     24  C   UNL     1      -4.402  12.909  22.613  0.00  0.00    +0.000 A 
ATOM     25  C   UNL     1      -3.059  12.922  22.227  0.00  0.00    +0.000 A 
ENDBRANCH  17  20
ENDBRANCH  10  17
BRANCH   5  26
ATOM     26  O   UNL     1       3.032   5.995  19.037  0.00  0.00    +0.000 OA
BRANCH  26  27
ATOM     27  C   UNL     1       3.763   5.722  17.837  0.00  0.00    +0.000 C 
BRANCH  27  28
ATOM     28  C   UNL     1       5.222   6.003  18.067  0.00  0.00    +0.000 A 
ATOM     29  C   UNL     1       5.915   5.357  19.096  0.00  0.00    +0.000 A 
ATOM     30  C   UNL     1       7.266   5.624  19.309  0.00  0.00    +0.000 A 
ATOM     31  C   UNL     1       7.931   6.539  18.495  0.00  0.00    +0.000 A 
ATOM     32  C   UNL     1       7.251   7.181  17.462  0.00  0.00    +0.000 A 
ATOM     33  C   UNL     1       5.901   6.915  17.247  0.00  0.00    +0.000 A 
ENDBRANCH  27  28
ENDBRANCH  26  27
ENDBRANCH   5  26
TORSDOF 7
ENDMDL
MODEL 8
REMARK VINA RESULT:      -8.8      0.414      1.073
REMARK  Name = 
REMARK  7 active torsions:
REMARK  status: ('A' for Active; 'I' for Inactive)
REMARK    1  A    between atoms: C_2  and  C_5
REMARK    2  A    between atoms: N_3  and  O_4
REMARK    3  A    between atoms: C_9  and  O_10
REMARK    4  A    between atoms: O_10  and  C_11
REMARK    5  A    between atoms: C_11  and  C_12
REMARK    6  A    between atoms: N_22  and  S_23
REMARK    7  A    between atoms: S_23  and  C_26
REMARK                            x       y       z     vdW  Elec       q    Type
REMARK                         _______ _______ _______ _____ _____    ______ ____
ROOT
ATOM      1  C   UNL     1       5.521   5.119  18.023  0.00  0.00    +0.000 C 
ATOM      2  C   UNL     1       4.261   5.779  18.585  0.00  0.00    +0.000 A 
ATOM      3  C   UNL     1       3.572   5.271  19.692  0.00  0.00    +0.000 A 
ATOM      4  C   UNL     1       2.494   5.983  20.231  0.00  0.00    +0.000 A 
ATOM      5  C   UNL     1       2.119   7.213  19.686  0.00  0.00    +0.000 A 
ATOM      6  C   UNL     1       2.840   7.743  18.618  0.00  0.00    +0.000 A 
ATOM      7  C   UNL     1       3.869   7.010  18.039  0.00  0.00    +0.000 A 
ATOM      8  C   UNL     1       4.572   7.499  16.805  0.00  0.00    +0.000 C 
ATOM      9  C   UNL     1       4.783   6.295  15.896  0.00  0.00    +0.000 C 
ATOM     10  N   UNL     1       5.649   5.254  16.521  0.00  0.00    +0.000 NA
ENDROOT
BRANCH   1  12
ATOM     11  O   UNL     1       7.114   5.176  19.906  0.00  0.00    +0.000 OA
ATOM     12  C   UNL     1       6.717   5.663  18.846  0.00  0.00    +0.000 C 
ATOM     13  N   UNL     1       7.384   6.727  18.264  0.00  0.00    +0.000 N 
ATOM     14  H   UNL     1       6.839   7.451  17.801  0.00  0.00    +0.000 HD
BRANCH  13  15
ATOM     15  O   UNL     1       8.472   7.210  19.041  0.00  0.00    +0.000 OA
ATOM     16  H   UNL     1       8.027   7.807  19.685  0.00  0.00    +0.000 HD
ENDBRANCH  13  15
ENDBRANCH   1  12
BRANCH  10  17
ATOM     17  S   UNL     1       7.227   5.128  15.917  0.00  0.00    +0.000 S 
ATOM     18  O   UNL     1       7.790   6.458  15.900  0.00  0.00    +0.000 OA
ATOM     19  O   UNL     1       7.861   4.037  16.628  0.00  0.00    +0.000 OA
BRANCH  17  20
ATOM     20  C   UNL     1       7.005   4.609  14.229  0.00  0.00    +0.000 A 
ATOM     21  C   UNL     1       7.781   5.189  13.218  0.00  0.00    +0.000 A 
ATOM     22  C   UNL     1       7.605   4.784  11.894  0.00  0.00    +0.000 A 
ATOM     23  C   UNL     1       6.661   3.805  11.584  0.00  0.00    +0.000 A 
ATOM     24  C   UNL     1       5.896   3.222  12.596  0.00  0.00    +0.000 A 
ATOM     25  C   UNL     1       6.064   3.622  13.925  0.00  0.00    +0.000 A 
ENDBRANCH  17  20
ENDBRANCH  10  17
BRANCH   5  26
ATOM     26  O   UNL     1       1.027   7.818  20.249  0.00  0.00    +0.000 OA
BRANCH  26  27
ATOM     27  C   UNL     1       0.909   9.214  19.957  0.00  0.00    +0.000 C 
BRANCH  27  28
ATOM     28  C   UNL     1       0.138   9.891  21.055  0.00  0.00    +0.000 A 
ATOM     29  C   UNL     1      -0.464  11.134  20.838  0.00  0.00    +0.000 A 
ATOM     30  C   UNL     1      -1.173  11.760  21.860  0.00  0.00    +0.000 A 
ATOM     31  C   UNL     1      -1.284  11.146  23.107  0.00  0.00    +0.000 A 
ATOM     32  C   UNL     1      -0.696   9.904  23.330  0.00  0.00    +0.000 A 
ATOM     33  C   UNL     1       0.013   9.275  22.309  0.00  0.00    +0.000 A 
ENDBRANCH  27  28
ENDBRANCH  26  27
ENDBRANCH   5  26
TORSDOF 7
ENDMDL
MODEL 9
REMARK VINA RESULT:      -8.8      4.238      9.975
REMARK  Name = 
REMARK  7 active torsions:
REMARK  status: ('A' for Active; 'I' for Inactive)
REMARK    1  A    between atoms: C_2  and  C_5
REMARK    2  A    between atoms: N_3  and  O_4
REMARK    3  A    between atoms: C_9  and  O_10
REMARK    4  A    between atoms: O_10  and  C_11
REMARK    5  A    between atoms: C_11  and  C_12
REMARK    6  A    between atoms: N_22  and  S_23
REMARK    7  A    between atoms: S_23  and  C_26
REMARK                            x       y       z     vdW  Elec       q    Type
REMARK                         _______ _______ _______ _____ _____    ______ ____
ROOT
ATOM      1  C   UNL     1       0.591  10.694  18.520  0.00  0.00    +0.000 C 
ATOM      2  C   UNL     1       1.232   9.331  18.786  0.00  0.00    +0.000 A 
ATOM      3  C   UNL     1       1.942   8.626  17.808  0.00  0.00    +0.000 A 
ATOM      4  C   UNL     1       2.604   7.440  18.143  0.00  0.00    +0.000 A 
ATOM      5  C   UNL     1       2.583   6.969  19.458  0.00  0.00    +0.000 A 
ATOM      6  C   UNL     1       1.922   7.700  20.443  0.00  0.00    +0.000 A 
ATOM      7  C   UNL     1       1.209   8.844  20.101  0.00  0.00    +0.000 A 
ATOM      8  C   UNL     1       0.378   9.573  21.118  0.00  0.00    +0.000 C 
ATOM      9  C   UNL     1      -0.921   9.981  20.433  0.00  0.00    +0.000 C 
ATOM     10  N   UNL     1      -0.693  10.912  19.290  0.00  0.00    +0.000 NA
ENDROOT
BRANCH   1  12
ATOM     11  O   UNL     1       2.146  12.073  19.850  0.00  0.00    +0.000 OA
ATOM     12  C   UNL     1       1.693  11.760  18.746  0.00  0.00    +0.000 C 
ATOM     13  N   UNL     1       2.210  12.313  17.589  0.00  0.00    +0.000 N 
ATOM     14  H   UNL     1       1.574  12.534  16.826  0.00  0.00    +0.000 HD
BRANCH  13  15
ATOM     15  O   UNL     1       3.215  13.292  17.825  0.00  0.00    +0.000 OA
ATOM     16  H   UNL     1       3.399  13.182  18.785  0.00  0.00    +0.000 HD
ENDBRANCH  13  15
ENDBRANCH   1  12
BRANCH  10  17
ATOM     17  S   UNL     1      -1.115  12.533  19.546  0.00  0.00    +0.000 S 
ATOM     18  O   UNL     1      -0.572  12.923  20.827  0.00  0.00    +0.000 OA
ATOM     19  O   UNL     1      -0.792  13.247  18.328  0.00  0.00    +0.000 OA
BRANCH  17  20
ATOM     20  C   UNL     1      -2.888  12.502  19.694  0.00  0.00    +0.000 A 
ATOM     21  C   UNL     1      -3.503  13.108  20.797  0.00  0.00    +0.000 A 
ATOM     22  C   UNL     1      -4.893  13.080  20.915  0.00  0.00    +0.000 A 
ATOM     23  C   UNL     1      -5.663  12.455  19.935  0.00  0.00    +0.000 A 
ATOM     24  C   UNL     1      -5.048  11.861  18.831  0.00  0.00    +0.000 A 
ATOM     25  C   UNL     1      -3.656  11.882  18.705  0.00  0.00    +0.000 A 
ENDBRANCH  17  20
ENDBRANCH  10  17
BRANCH   5  26
ATOM     26  O   UNL     1       3.222   5.779  19.686  0.00  0.00    +0.000 OA
BRANCH  26  27
ATOM     27  C   UNL     1       3.316   4.930  18.538  0.00  0.00    +0.000 C 
BRANCH  27  28
ATOM     28  C   UNL     1       4.747   4.866  18.080  0.00  0.00    +0.000 A 
ATOM     29  C   UNL     1       5.785   5.219  18.948  0.00  0.00    +0.000 A 
ATOM     30  C   UNL     1       7.109   5.163  18.518  0.00  0.00    +0.000 A 
ATOM     31  C   UNL     1       7.402   4.756  17.218  0.00  0.00    +0.000 A 
ATOM     32  C   UNL     1       6.375   4.394  16.350  0.00  0.00    +0.000 A 
ATOM     33  C   UNL     1       5.051   4.448  16.777  0.00  0.00    +0.000 A 
ENDBRANCH  27  28
ENDBRANCH  26  27
ENDBRANCH   5  26
TORSDOF 7
ENDMDL
