MODEL 1
REMARK VINA RESULT:      -8.0      0.000      0.000
REMARK  Name = 
REMARK  6 active torsions:
REMARK  status: ('A' for Active; 'I' for Inactive)
REMARK    1  A    between atoms: C_1  and  O_2
REMARK    2  A    between atoms: O_2  and  C_3
REMARK    3  A    between atoms: C_8  and  N_9
REMARK    4  A    between atoms: C_10  and  C_12
REMARK    5  A    between atoms: C_15  and  C_16
REMARK    6  A    between atoms: C_17  and  N_18
REMARK                            x       y       z     vdW  Elec       q    Type
REMARK                         _______ _______ _______ _____ _____    ______ ____
ROOT
ATOM      1  C   UNL     1      -0.555  10.384  18.818  0.00  0.00    +0.000 A 
ATOM      2  C   UNL     1      -1.365  11.439  19.281  0.00  0.00    +0.000 A 
ATOM      3  C   UNL     1      -1.136  11.968  20.560  0.00  0.00    +0.000 A 
ATOM      4  C   UNL     1      -0.122  11.424  21.328  0.00  0.00    +0.000 A 
ATOM      5  C   UNL     1       0.746  10.433  20.882  0.00  0.00    +0.000 A 
ATOM      6  C   UNL     1       0.555   9.944  19.578  0.00  0.00    +0.000 A 
ATOM      7  O   UNL     1      -0.091  12.005  22.559  0.00  0.00    +0.000 OA
ATOM      8  C   UNL     1      -1.060  12.960  22.573  0.00  0.00    +0.000 A 
ATOM      9  C   UNL     1      -1.366  13.789  23.647  0.00  0.00    +0.000 A 
ATOM     10  C   UNL     1      -2.387  14.725  23.443  0.00  0.00    +0.000 A 
ATOM     11  C   UNL     1      -3.054  14.812  22.218  0.00  0.00    +0.000 A 
ATOM     12  C   UNL     1      -2.736  13.949  21.159  0.00  0.00    +0.000 A 
ATOM     13  C   UNL     1      -1.718  12.999  21.348  0.00  0.00    +0.000 A 
ENDROOT
BRANCH   6  14
ATOM     14  N   UNL     1       1.460   9.007  18.996  0.00  0.00    +0.000 N 
ATOM     15  C   UNL     1       1.870   7.818  19.586  0.00  0.00    +0.000 C 
ATOM     16  O   UNL     1       1.518   7.407  20.689  0.00  0.00    +0.000 OA
ATOM     17  H   UNL     1       1.887   9.331  18.136  0.00  0.00    +0.000 HD
BRANCH  15  18
ATOM     18  C   UNL     1       2.828   6.952  18.836  0.00  0.00    +0.000 A 
ATOM     19  C   UNL     1       3.472   7.515  17.725  0.00  0.00    +0.000 A 
ATOM     20  C   UNL     1       4.367   6.770  16.955  0.00  0.00    +0.000 A 
ATOM     21  C   UNL     1       4.653   5.432  17.270  0.00  0.00    +0.000 A 
ATOM     22  C   UNL     1       5.630   4.709  16.381  0.00  0.00    +0.000 C 
ATOM     23  C   UNL     1       4.004   4.862  18.391  0.00  0.00    +0.000 A 
ATOM     24  C   UNL     1       3.080   5.617  19.155  0.00  0.00    +0.000 A 
BRANCH  23  25
ATOM     25  N   UNL     1       4.258   3.473  18.834  0.00  0.00    +0.000 N 
ATOM     26  O   UNL     1       3.536   2.565  18.405  0.00  0.00    +0.000 OA
ATOM     27  O   UNL     1       5.211   3.288  19.605  0.00  0.00    +0.000 OA
ENDBRANCH  23  25
ENDBRANCH  15  18
ENDBRANCH   6  14
BRANCH   1  29
ATOM     28  C   UNL     1      -2.111   9.934  17.095  0.00  0.00    +0.000 C 
ATOM     29  O   UNL     1      -0.781   9.764  17.604  0.00  0.00    +0.000 OA
ENDBRANCH   1  29
TORSDOF 4
ENDMDL
MODEL 2
REMARK VINA RESULT:      -7.9      2.675      9.397
REMARK  Name = 
REMARK  6 active torsions:
REMARK  status: ('A' for Active; 'I' for Inactive)
REMARK    1  A    between atoms: C_1  and  O_2
REMARK    2  A    between atoms: O_2  and  C_3
REMARK    3  A    between atoms: C_8  and  N_9
REMARK    4  A    between atoms: C_10  and  C_12
REMARK    5  A    between atoms: C_15  and  C_16
REMARK    6  A    between atoms: C_17  and  N_18
REMARK                            x       y       z     vdW  Elec       q    Type
REMARK                         _______ _______ _______ _____ _____    ______ ____
ROOT
ATOM      1  C   UNL     1       1.205  10.111  19.106  0.00  0.00    +0.000 A 
ATOM      2  C   UNL     1       1.907   9.120  18.392  0.00  0.00    +0.000 A 
ATOM      3  C   UNL     1       2.136   7.874  18.996  0.00  0.00    +0.000 A 
ATOM      4  C   UNL     1       1.669   7.667  20.281  0.00  0.00    +0.000 A 
ATOM      5  C   UNL     1       0.911   8.591  20.992  0.00  0.00    +0.000 A 
ATOM      6  C   UNL     1       0.630   9.817  20.366  0.00  0.00    +0.000 A 
ATOM      7  O   UNL     1       2.043   6.438  20.733  0.00  0.00    +0.000 OA
ATOM      8  C   UNL     1       2.716   5.830  19.720  0.00  0.00    +0.000 A 
ATOM      9  C   UNL     1       3.273   4.556  19.766  0.00  0.00    +0.000 A 
ATOM     10  C   UNL     1       3.905   4.107  18.601  0.00  0.00    +0.000 A 
ATOM     11  C   UNL     1       3.963   4.907  17.456  0.00  0.00    +0.000 A 
ATOM     12  C   UNL     1       3.409   6.195  17.445  0.00  0.00    +0.000 A 
ATOM     13  C   UNL     1       2.777   6.665  18.609  0.00  0.00    +0.000 A 
ENDROOT
BRANCH   6  14
ATOM     14  N   UNL     1      -0.228  10.782  20.972  0.00  0.00    +0.000 N 
ATOM     15  C   UNL     1      -0.371  10.980  22.339  0.00  0.00    +0.000 C 
ATOM     16  O   UNL     1       0.214  10.353  23.218  0.00  0.00    +0.000 OA
ATOM     17  H   UNL     1      -0.835  11.260  20.315  0.00  0.00    +0.000 HD
BRANCH  15  18
ATOM     18  C   UNL     1      -1.320  12.035  22.805  0.00  0.00    +0.000 A 
ATOM     19  C   UNL     1      -0.814  13.332  22.963  0.00  0.00    +0.000 A 
ATOM     20  C   UNL     1      -1.626  14.375  23.415  0.00  0.00    +0.000 A 
ATOM     21  C   UNL     1      -2.979  14.156  23.724  0.00  0.00    +0.000 A 
ATOM     22  C   UNL     1      -3.775  15.340  24.205  0.00  0.00    +0.000 C 
ATOM     23  C   UNL     1      -3.491  12.846  23.565  0.00  0.00    +0.000 A 
ATOM     24  C   UNL     1      -2.656  11.789  23.128  0.00  0.00    +0.000 A 
BRANCH  23  25
ATOM     25  N   UNL     1      -4.909  12.511  23.828  0.00  0.00    +0.000 N 
ATOM     26  O   UNL     1      -5.740  12.666  22.926  0.00  0.00    +0.000 OA
ATOM     27  O   UNL     1      -5.187  12.064  24.950  0.00  0.00    +0.000 OA
ENDBRANCH  23  25
ENDBRANCH  15  18
ENDBRANCH   6  14
BRANCH   1  29
ATOM     28  C   UNL     1       2.227  12.150  18.478  0.00  0.00    +0.000 C 
ATOM     29  O   UNL     1       1.020  11.384  18.603  0.00  0.00    +0.000 OA
ENDBRANCH   1  29
TORSDOF 4
ENDMDL
MODEL 3
REMARK VINA RESULT:      -7.8      1.712      2.001
REMARK  Name = 
REMARK  6 active torsions:
REMARK  status: ('A' for Active; 'I' for Inactive)
REMARK    1  A    between atoms: C_1  and  O_2
REMARK    2  A    between atoms: O_2  and  C_3
REMARK    3  A    between atoms: C_8  and  N_9
REMARK    4  A    between atoms: C_10  and  C_12
REMARK    5  A    between atoms: C_15  and  C_16
REMARK    6  A    between atoms: C_17  and  N_18
REMARK                            x       y       z     vdW  Elec       q    Type
REMARK                         _______ _______ _______ _____ _____    ______ ____
ROOT
ATOM      1  C   UNL     1      -0.696  10.388  18.691  0.00  0.00    +0.000 A 
ATOM      2  C   UNL     1      -1.432  11.496  19.152  0.00  0.00    +0.000 A 
ATOM      3  C   UNL     1      -1.101  12.073  20.388  0.00  0.00    +0.000 A 
ATOM      4  C   UNL     1      -0.061  11.522  21.116  0.00  0.00    +0.000 A 
ATOM      5  C   UNL     1       0.736  10.476  20.664  0.00  0.00    +0.000 A 
ATOM      6  C   UNL     1       0.443   9.937  19.401  0.00  0.00    +0.000 A 
ATOM      7  O   UNL     1       0.073  12.157  22.313  0.00  0.00    +0.000 OA
ATOM      8  C   UNL     1      -0.855  13.151  22.342  0.00  0.00    +0.000 A 
ATOM      9  C   UNL     1      -1.058  14.041  23.391  0.00  0.00    +0.000 A 
ATOM     10  C   UNL     1      -2.053  15.009  23.208  0.00  0.00    +0.000 A 
ATOM     11  C   UNL     1      -2.793  15.068  22.023  0.00  0.00    +0.000 A 
ATOM     12  C   UNL     1      -2.579  14.145  20.990  0.00  0.00    +0.000 A 
ATOM     13  C   UNL     1      -1.589  13.162  21.160  0.00  0.00    +0.000 A 
ENDROOT
BRANCH   6  14
ATOM     14  N   UNL     1       1.270   8.936  18.809  0.00  0.00    +0.000 N 
ATOM     15  C   UNL     1       1.763   7.815  19.464  0.00  0.00    +0.000 C 
ATOM     16  O   UNL     1       1.563   7.527  20.641  0.00  0.00    +0.000 OA
ATOM     17  H   UNL     1       1.578   9.163  17.871  0.00  0.00    +0.000 HD
BRANCH  15  18
ATOM     18  C   UNL     1       2.622   6.867  18.692  0.00  0.00    +0.000 A 
ATOM     19  C   UNL     1       2.365   5.497  18.842  0.00  0.00    +0.000 A 
ATOM     20  C   UNL     1       3.133   4.541  18.175  0.00  0.00    +0.000 A 
ATOM     21  C   UNL     1       4.188   4.921  17.330  0.00  0.00    +0.000 A 
ATOM     22  C   UNL     1       4.961   3.820  16.655  0.00  0.00    +0.000 C 
ATOM     23  C   UNL     1       4.449   6.304  17.178  0.00  0.00    +0.000 A 
ATOM     24  C   UNL     1       3.680   7.268  17.875  0.00  0.00    +0.000 A 
BRANCH  23  25
ATOM     25  N   UNL     1       5.512   6.818  16.286  0.00  0.00    +0.000 N 
ATOM     26  O   UNL     1       6.596   7.156  16.776  0.00  0.00    +0.000 OA
ATOM     27  O   UNL     1       5.264   6.859  15.072  0.00  0.00    +0.000 OA
ENDBRANCH  23  25
ENDBRANCH  15  18
ENDBRANCH   6  14
BRANCH   1  29
ATOM     28  C   UNL     1      -2.251  10.159  16.924  0.00  0.00    +0.000 C 
ATOM     29  O   UNL     1      -1.024   9.723  17.526  0.00  0.00    +0.000 OA
ENDBRANCH   1  29
TORSDOF 4
ENDMDL
MODEL 4
REMARK VINA RESULT:      -7.7      1.125      1.303
REMARK  Name = 
REMARK  6 active torsions:
REMARK  status: ('A' for Active; 'I' for Inactive)
REMARK    1  A    between atoms: C_1  and  O_2
REMARK    2  A    between atoms: O_2  and  C_3
REMARK    3  A    between atoms: C_8  and  N_9
REMARK    4  A    between atoms: C_10  and  C_12
REMARK    5  A    between atoms: C_15  and  C_16
REMARK    6  A    between atoms: C_17  and  N_18
REMARK                            x       y       z     vdW  Elec       q    Type
REMARK                         _______ _______ _______ _____ _____    ______ ____
ROOT
ATOM      1  C   UNL     1      -0.638  10.339  18.948  0.00  0.00    +0.000 A 
ATOM      2  C   UNL     1      -1.295  11.531  19.310  0.00  0.00    +0.000 A 
ATOM      3  C   UNL     1      -1.075  12.074  20.585  0.00  0.00    +0.000 A 
ATOM      4  C   UNL     1      -0.222  11.409  21.448  0.00  0.00    +0.000 A 
ATOM      5  C   UNL     1       0.501  10.271  21.104  0.00  0.00    +0.000 A 
ATOM      6  C   UNL     1       0.326   9.760  19.807  0.00  0.00    +0.000 A 
ATOM      7  O   UNL     1      -0.184  12.033  22.657  0.00  0.00    +0.000 OA
ATOM      8  C   UNL     1      -0.981  13.131  22.563  0.00  0.00    +0.000 A 
ATOM      9  C   UNL     1      -1.223  14.047  23.581  0.00  0.00    +0.000 A 
ATOM     10  C   UNL     1      -2.059  15.126  23.268  0.00  0.00    +0.000 A 
ATOM     11  C   UNL     1      -2.612  15.263  21.991  0.00  0.00    +0.000 A 
ATOM     12  C   UNL     1      -2.365  14.313  20.990  0.00  0.00    +0.000 A 
ATOM     13  C   UNL     1      -1.534  13.220  21.290  0.00  0.00    +0.000 A 
ENDROOT
BRANCH   6  14
ATOM     14  N   UNL     1       1.104   8.664  19.329  0.00  0.00    +0.000 N 
ATOM     15  C   UNL     1       2.075   8.742  18.340  0.00  0.00    +0.000 C 
ATOM     16  O   UNL     1       2.399   9.760  17.733  0.00  0.00    +0.000 OA
ATOM     17  H   UNL     1       0.813   7.765  19.697  0.00  0.00    +0.000 HD
BRANCH  15  18
ATOM     18  C   UNL     1       2.795   7.491  17.955  0.00  0.00    +0.000 A 
ATOM     19  C   UNL     1       3.993   7.631  17.240  0.00  0.00    +0.000 A 
ATOM     20  C   UNL     1       4.719   6.514  16.822  0.00  0.00    +0.000 A 
ATOM     21  C   UNL     1       4.273   5.213  17.106  0.00  0.00    +0.000 A 
ATOM     22  C   UNL     1       5.122   4.071  16.615  0.00  0.00    +0.000 C 
ATOM     23  C   UNL     1       3.064   5.070  17.828  0.00  0.00    +0.000 A 
ATOM     24  C   UNL     1       2.320   6.207  18.230  0.00  0.00    +0.000 A 
BRANCH  23  25
ATOM     25  N   UNL     1       2.520   3.749  18.212  0.00  0.00    +0.000 N 
ATOM     26  O   UNL     1       2.953   3.193  19.229  0.00  0.00    +0.000 OA
ATOM     27  O   UNL     1       1.627   3.273  17.495  0.00  0.00    +0.000 OA
ENDBRANCH  23  25
ENDBRANCH  15  18
ENDBRANCH   6  14
BRANCH   1  29
ATOM     28  C   UNL     1      -2.067  10.145  17.073  0.00  0.00    +0.000 C 
ATOM     29  O   UNL     1      -0.875   9.708  17.742  0.00  0.00    +0.000 OA
ENDBRANCH   1  29
TORSDOF 4
ENDMDL
MODEL 5
REMARK VINA RESULT:      -7.7      2.502      9.413
REMARK  Name = 
REMARK  6 active torsions:
REMARK  status: ('A' for Active; 'I' for Inactive)
REMARK    1  A    between atoms: C_1  and  O_2
REMARK    2  A    between atoms: O_2  and  C_3
REMARK    3  A    between atoms: C_8  and  N_9
REMARK    4  A    between atoms: C_10  and  C_12
REMARK    5  A    between atoms: C_15  and  C_16
REMARK    6  A    between atoms: C_17  and  N_18
REMARK                            x       y       z     vdW  Elec       q    Type
REMARK                         _______ _______ _______ _____ _____    ______ ____
ROOT
ATOM      1  C   UNL     1       1.505   9.623  18.574  0.00  0.00    +0.000 A 
ATOM      2  C   UNL     1       2.420   8.829  17.856  0.00  0.00    +0.000 A 
ATOM      3  C   UNL     1       2.837   7.604  18.399  0.00  0.00    +0.000 A 
ATOM      4  C   UNL     1       2.338   7.224  19.632  0.00  0.00    +0.000 A 
ATOM      5  C   UNL     1       1.380   7.944  20.339  0.00  0.00    +0.000 A 
ATOM      6  C   UNL     1       0.917   9.141  19.767  0.00  0.00    +0.000 A 
ATOM      7  O   UNL     1       2.902   6.054  20.037  0.00  0.00    +0.000 OA
ATOM      8  C   UNL     1       3.737   5.650  19.041  0.00  0.00    +0.000 A 
ATOM      9  C   UNL     1       4.515   4.497  19.053  0.00  0.00    +0.000 A 
ATOM     10  C   UNL     1       5.289   4.253  17.912  0.00  0.00    +0.000 A 
ATOM     11  C   UNL     1       5.269   5.131  16.825  0.00  0.00    +0.000 A 
ATOM     12  C   UNL     1       4.490   6.296  16.850  0.00  0.00    +0.000 A 
ATOM     13  C   UNL     1       3.712   6.560  17.990  0.00  0.00    +0.000 A 
ENDROOT
BRANCH   6  14
ATOM     14  N   UNL     1      -0.140   9.891  20.365  0.00  0.00    +0.000 N 
ATOM     15  C   UNL     1       0.029  10.956  21.239  0.00  0.00    +0.000 C 
ATOM     16  O   UNL     1       1.107  11.401  21.626  0.00  0.00    +0.000 OA
ATOM     17  H   UNL     1      -1.062   9.509  20.188  0.00  0.00    +0.000 HD
BRANCH  15  18
ATOM     18  C   UNL     1      -1.191  11.629  21.777  0.00  0.00    +0.000 A 
ATOM     19  C   UNL     1      -1.564  11.329  23.095  0.00  0.00    +0.000 A 
ATOM     20  C   UNL     1      -2.703  11.896  23.670  0.00  0.00    +0.000 A 
ATOM     21  C   UNL     1      -3.512  12.788  22.946  0.00  0.00    +0.000 A 
ATOM     22  C   UNL     1      -4.719  13.348  23.649  0.00  0.00    +0.000 C 
ATOM     23  C   UNL     1      -3.136  13.091  21.616  0.00  0.00    +0.000 A 
ATOM     24  C   UNL     1      -1.992  12.495  21.031  0.00  0.00    +0.000 A 
BRANCH  23  25
ATOM     25  N   UNL     1      -3.895  14.044  20.774  0.00  0.00    +0.000 N 
ATOM     26  O   UNL     1      -4.859  13.630  20.119  0.00  0.00    +0.000 OA
ATOM     27  O   UNL     1      -3.532  15.229  20.791  0.00  0.00    +0.000 OA
ENDBRANCH  23  25
ENDBRANCH  15  18
ENDBRANCH   6  14
BRANCH   1  29
ATOM     28  C   UNL     1       2.144  11.875  18.233  0.00  0.00    +0.000 C 
ATOM     29  O   UNL     1       1.120  10.875  18.135  0.00  0.00    +0.000 OA
ENDBRANCH   1  29
TORSDOF 4
ENDMDL
MODEL 6
REMARK VINA RESULT:      -7.7      1.860      2.047
REMARK  Name = 
REMARK  6 active torsions:
REMARK  status: ('A' for Active; 'I' for Inactive)
REMARK    1  A    between atoms: C_1  and  O_2
REMARK    2  A    between atoms: O_2  and  C_3
REMARK    3  A    between atoms: C_8  and  N_9
REMARK    4  A    between atoms: C_10  and  C_12
REMARK    5  A    between atoms: C_15  and  C_16
REMARK    6  A    between atoms: C_17  and  N_18
REMARK                            x       y       z     vdW  Elec       q    Type
REMARK                         _______ _______ _______ _____ _____    ______ ____
ROOT
ATOM      1  C   UNL     1      -0.838  10.465  19.153  0.00  0.00    +0.000 A 
ATOM      2  C   UNL     1      -1.495  11.655  19.521  0.00  0.00    +0.000 A 
ATOM      3  C   UNL     1      -1.246  12.212  20.785  0.00  0.00    +0.000 A 
ATOM      4  C   UNL     1      -0.365  11.562  21.631  0.00  0.00    +0.000 A 
ATOM      5  C   UNL     1       0.357  10.427  21.279  0.00  0.00    +0.000 A 
ATOM      6  C   UNL     1       0.153   9.902  19.992  0.00  0.00    +0.000 A 
ATOM      7  O   UNL     1      -0.301  12.198  22.833  0.00  0.00    +0.000 OA
ATOM      8  C   UNL     1      -1.109  13.289  22.750  0.00  0.00    +0.000 A 
ATOM      9  C   UNL     1      -1.332  14.212  23.766  0.00  0.00    +0.000 A 
ATOM     10  C   UNL     1      -2.184  15.281  23.464  0.00  0.00    +0.000 A 
ATOM     11  C   UNL     1      -2.772  15.402  22.201  0.00  0.00    +0.000 A 
ATOM     12  C   UNL     1      -2.544  14.444  21.203  0.00  0.00    +0.000 A 
ATOM     13  C   UNL     1      -1.696  13.361  21.492  0.00  0.00    +0.000 A 
ENDROOT
BRANCH   6  14
ATOM     14  N   UNL     1       0.927   8.807  19.504  0.00  0.00    +0.000 N 
ATOM     15  C   UNL     1       1.902   8.893  18.519  0.00  0.00    +0.000 C 
ATOM     16  O   UNL     1       2.234   9.916  17.927  0.00  0.00    +0.000 OA
ATOM     17  H   UNL     1       0.630   7.906  19.860  0.00  0.00    +0.000 HD
BRANCH  15  18
ATOM     18  C   UNL     1       2.617   7.643  18.123  0.00  0.00    +0.000 A 
ATOM     19  C   UNL     1       2.076   6.425  18.560  0.00  0.00    +0.000 A 
ATOM     20  C   UNL     1       2.692   5.210  18.253  0.00  0.00    +0.000 A 
ATOM     21  C   UNL     1       3.873   5.168  17.495  0.00  0.00    +0.000 A 
ATOM     22  C   UNL     1       4.465   3.812  17.216  0.00  0.00    +0.000 C 
ATOM     23  C   UNL     1       4.420   6.397  17.053  0.00  0.00    +0.000 A 
ATOM     24  C   UNL     1       3.803   7.627  17.387  0.00  0.00    +0.000 A 
BRANCH  23  25
ATOM     25  N   UNL     1       5.641   6.468  16.219  0.00  0.00    +0.000 N 
ATOM     26  O   UNL     1       5.565   6.185  15.018  0.00  0.00    +0.000 OA
ATOM     27  O   UNL     1       6.686   6.836  16.775  0.00  0.00    +0.000 OA
ENDBRANCH  23  25
ENDBRANCH  15  18
ENDBRANCH   6  14
BRANCH   1  29
ATOM     28  C   UNL     1      -2.344  10.198  17.349  0.00  0.00    +0.000 C 
ATOM     29  O   UNL     1      -1.102   9.821  17.960  0.00  0.00    +0.000 OA
ENDBRANCH   1  29
TORSDOF 4
ENDMDL
MODEL 7
REMARK VINA RESULT:      -7.6      1.767      2.425
REMARK  Name = 
REMARK  6 active torsions:
REMARK  status: ('A' for Active; 'I' for Inactive)
REMARK    1  A    between atoms: C_1  and  O_2
REMARK    2  A    between atoms: O_2  and  C_3
REMARK    3  A    between atoms: C_8  and  N_9
REMARK    4  A    between atoms: C_10  and  C_12
REMARK    5  A    between atoms: C_15  and  C_16
REMARK    6  A    between atoms: C_17  and  N_18
REMARK                            x       y       z     vdW  Elec       q    Type
REMARK                         _______ _______ _______ _____ _____    ______ ____
ROOT
ATOM      1  C   UNL     1       1.226  11.690  18.625  0.00  0.00    +0.000 A 
ATOM      2  C   UNL     1       0.532  12.761  19.221  0.00  0.00    +0.000 A 
ATOM      3  C   UNL     1      -0.827  12.607  19.534  0.00  0.00    +0.000 A 
ATOM      4  C   UNL     1      -1.441  11.403  19.236  0.00  0.00    +0.000 A 
ATOM      5  C   UNL     1      -0.775  10.298  18.716  0.00  0.00    +0.000 A 
ATOM      6  C   UNL     1       0.599  10.433  18.458  0.00  0.00    +0.000 A 
ATOM      7  O   UNL     1      -2.767  11.455  19.538  0.00  0.00    +0.000 OA
ATOM      8  C   UNL     1      -3.005  12.683  20.074  0.00  0.00    +0.000 A 
ATOM      9  C   UNL     1      -4.238  13.149  20.517  0.00  0.00    +0.000 A 
ATOM     10  C   UNL     1      -4.261  14.439  21.061  0.00  0.00    +0.000 A 
ATOM     11  C   UNL     1      -3.095  15.205  21.151  0.00  0.00    +0.000 A 
ATOM     12  C   UNL     1      -1.869  14.716  20.678  0.00  0.00    +0.000 A 
ATOM     13  C   UNL     1      -1.830  13.425  20.122  0.00  0.00    +0.000 A 
ENDROOT
BRANCH   6  14
ATOM     14  N   UNL     1       1.387   9.324  18.027  0.00  0.00    +0.000 N 
ATOM     15  C   UNL     1       1.883   8.324  18.854  0.00  0.00    +0.000 C 
ATOM     16  O   UNL     1       1.719   8.254  20.070  0.00  0.00    +0.000 OA
ATOM     17  H   UNL     1       1.666   9.374  17.054  0.00  0.00    +0.000 HD
BRANCH  15  18
ATOM     18  C   UNL     1       2.696   7.235  18.236  0.00  0.00    +0.000 A 
ATOM     19  C   UNL     1       3.802   7.615  17.464  0.00  0.00    +0.000 A 
ATOM     20  C   UNL     1       4.604   6.662  16.832  0.00  0.00    +0.000 A 
ATOM     21  C   UNL     1       4.329   5.290  16.952  0.00  0.00    +0.000 A 
ATOM     22  C   UNL     1       5.248   4.338  16.235  0.00  0.00    +0.000 C 
ATOM     23  C   UNL     1       3.212   4.905  17.732  0.00  0.00    +0.000 A 
ATOM     24  C   UNL     1       2.389   5.877  18.351  0.00  0.00    +0.000 A 
BRANCH  23  25
ATOM     25  N   UNL     1       2.851   3.487  17.954  0.00  0.00    +0.000 N 
ATOM     26  O   UNL     1       3.222   2.928  18.993  0.00  0.00    +0.000 OA
ATOM     27  O   UNL     1       2.164   2.933  17.083  0.00  0.00    +0.000 OA
ENDBRANCH  23  25
ENDBRANCH  15  18
ENDBRANCH   6  14
BRANCH   1  29
ATOM     28  C   UNL     1       3.039  13.151  18.208  0.00  0.00    +0.000 C 
ATOM     29  O   UNL     1       2.541  11.806  18.216  0.00  0.00    +0.000 OA
ENDBRANCH   1  29
TORSDOF 4
ENDMDL
MODEL 8
REMARK VINA RESULT:      -7.6      2.447      9.331
REMARK  Name = 
REMARK  6 active torsions:
REMARK  status: ('A' for Active; 'I' for Inactive)
REMARK    1  A    between atoms: C_1  and  O_2
REMARK    2  A    between atoms: O_2  and  C_3
REMARK    3  A    between atoms: C_8  and  N_9
REMARK    4  A    between atoms: C_10  and  C_12
REMARK    5  A    between atoms: C_15  and  C_16
REMARK    6  A    between atoms: C_17  and  N_18
REMARK                            x       y       z     vdW  Elec       q    Type
REMARK                         _______ _______ _______ _____ _____    ______ ____
ROOT
ATOM      1  C   UNL     1       1.412   9.807  18.561  0.00  0.00    +0.000 A 
ATOM      2  C   UNL     1       2.331   8.911  17.980  0.00  0.00    +0.000 A 
ATOM      3  C   UNL     1       2.578   7.682  18.609  0.00  0.00    +0.000 A 
ATOM      4  C   UNL     1       1.913   7.396  19.788  0.00  0.00    +0.000 A 
ATOM      5  C   UNL     1       0.947   8.221  20.355  0.00  0.00    +0.000 A 
ATOM      6  C   UNL     1       0.655   9.426  19.694  0.00  0.00    +0.000 A 
ATOM      7  O   UNL     1       2.327   6.202  20.294  0.00  0.00    +0.000 OA
ATOM      8  C   UNL     1       3.232   5.691  19.416  0.00  0.00    +0.000 A 
ATOM      9  C   UNL     1       3.903   4.481  19.556  0.00  0.00    +0.000 A 
ATOM     10  C   UNL     1       4.777   4.127  18.521  0.00  0.00    +0.000 A 
ATOM     11  C   UNL     1       4.954   4.956  17.410  0.00  0.00    +0.000 A 
ATOM     12  C   UNL     1       4.278   6.180  17.306  0.00  0.00    +0.000 A 
ATOM     13  C   UNL     1       3.402   6.554  18.339  0.00  0.00    +0.000 A 
ENDROOT
BRANCH   6  14
ATOM     14  N   UNL     1      -0.396  10.282  20.139  0.00  0.00    +0.000 N 
ATOM     15  C   UNL     1      -0.288  11.216  21.162  0.00  0.00    +0.000 C 
ATOM     16  O   UNL     1       0.720  11.433  21.830  0.00  0.00    +0.000 OA
ATOM     17  H   UNL     1      -1.295  10.081  19.717  0.00  0.00    +0.000 HD
BRANCH  15  18
ATOM     18  C   UNL     1      -1.491  12.031  21.505  0.00  0.00    +0.000 A 
ATOM     19  C   UNL     1      -2.002  12.875  20.509  0.00  0.00    +0.000 A 
ATOM     20  C   UNL     1      -3.111  13.689  20.750  0.00  0.00    +0.000 A 
ATOM     21  C   UNL     1      -3.753  13.685  21.999  0.00  0.00    +0.000 A 
ATOM     22  C   UNL     1      -4.940  14.596  22.166  0.00  0.00    +0.000 C 
ATOM     23  C   UNL     1      -3.238  12.833  23.006  0.00  0.00    +0.000 A 
ATOM     24  C   UNL     1      -2.099  12.027  22.762  0.00  0.00    +0.000 A 
BRANCH  23  25
ATOM     25  N   UNL     1      -3.857  12.724  24.346  0.00  0.00    +0.000 N 
ATOM     26  O   UNL     1      -4.650  11.802  24.568  0.00  0.00    +0.000 OA
ATOM     27  O   UNL     1      -3.522  13.563  25.195  0.00  0.00    +0.000 OA
ENDBRANCH  23  25
ENDBRANCH  15  18
ENDBRANCH   6  14
BRANCH   1  29
ATOM     28  C   UNL     1       2.223  12.016  18.322  0.00  0.00    +0.000 C 
ATOM     29  O   UNL     1       1.186  11.066  18.038  0.00  0.00    +0.000 OA
ENDBRANCH   1  29
TORSDOF 4
ENDMDL
MODEL 9
REMARK VINA RESULT:      -7.6      2.496      9.361
REMARK  Name = 
REMARK  6 active torsions:
REMARK  status: ('A' for Active; 'I' for Inactive)
REMARK    1  A    between atoms: C_1  and  O_2
REMARK    2  A    between atoms: O_2  and  C_3
REMARK    3  A    between atoms: C_8  and  N_9
REMARK    4  A    between atoms: C_10  and  C_12
REMARK    5  A    between atoms: C_15  and  C_16
REMARK    6  A    between atoms: C_17  and  N_18
REMARK                            x       y       z     vdW  Elec       q    Type
REMARK                         _______ _______ _______ _____ _____    ______ ____
ROOT
ATOM      1  C   UNL     1       1.306   9.949  18.757  0.00  0.00    +0.000 A 
ATOM      2  C   UNL     1       2.159   9.080  18.050  0.00  0.00    +0.000 A 
ATOM      3  C   UNL     1       2.503   7.845  18.620  0.00  0.00    +0.000 A 
ATOM      4  C   UNL     1       1.995   7.528  19.867  0.00  0.00    +0.000 A 
ATOM      5  C   UNL     1       1.093   8.325  20.565  0.00  0.00    +0.000 A 
ATOM      6  C   UNL     1       0.702   9.535  19.968  0.00  0.00    +0.000 A 
ATOM      7  O   UNL     1       2.487   6.333  20.295  0.00  0.00    +0.000 OA
ATOM      8  C   UNL     1       3.284   5.853  19.302  0.00  0.00    +0.000 A 
ATOM      9  C   UNL     1       3.986   4.653  19.335  0.00  0.00    +0.000 A 
ATOM     10  C   UNL     1       4.730   4.332  18.193  0.00  0.00    +0.000 A 
ATOM     11  C   UNL     1       4.754   5.183  17.084  0.00  0.00    +0.000 A 
ATOM     12  C   UNL     1       4.051   6.396  17.088  0.00  0.00    +0.000 A 
ATOM     13  C   UNL     1       3.304   6.737  18.228  0.00  0.00    +0.000 A 
ENDROOT
BRANCH   6  14
ATOM     14  N   UNL     1      -0.298  10.365  20.557  0.00  0.00    +0.000 N 
ATOM     15  C   UNL     1      -0.050  11.497  21.323  0.00  0.00    +0.000 C 
ATOM     16  O   UNL     1       1.060  11.941  21.606  0.00  0.00    +0.000 OA
ATOM     17  H   UNL     1      -1.239   9.998  20.468  0.00  0.00    +0.000 HD
BRANCH  15  18
ATOM     18  C   UNL     1      -1.218  12.251  21.868  0.00  0.00    +0.000 A 
ATOM     19  C   UNL     1      -1.012  13.004  23.033  0.00  0.00    +0.000 A 
ATOM     20  C   UNL     1      -2.055  13.721  23.623  0.00  0.00    +0.000 A 
ATOM     21  C   UNL     1      -3.344  13.713  23.067  0.00  0.00    +0.000 A 
ATOM     22  C   UNL     1      -4.403  14.516  23.774  0.00  0.00    +0.000 C 
ATOM     23  C   UNL     1      -3.554  12.954  21.891  0.00  0.00    +0.000 A 
ATOM     24  C   UNL     1      -2.497  12.210  21.310  0.00  0.00    +0.000 A 
BRANCH  23  25
ATOM     25  N   UNL     1      -4.862  12.903  21.202  0.00  0.00    +0.000 N 
ATOM     26  O   UNL     1      -5.064  13.652  20.240  0.00  0.00    +0.000 OA
ATOM     27  O   UNL     1      -5.691  12.080  21.619  0.00  0.00    +0.000 OA
ENDBRANCH  23  25
ENDBRANCH  15  18
ENDBRANCH   6  14
BRANCH   1  29
ATOM     28  C   UNL     1       2.106  12.122  18.274  0.00  0.00    +0.000 C 
ATOM     29  O   UNL     1       0.997  11.212  18.291  0.00  0.00    +0.000 OA
ENDBRANCH   1  29
TORSDOF 4
ENDMDL
