MODEL 1
REMARK VINA RESULT:      -7.1      0.000      0.000
REMARK  Name = 
REMARK  7 active torsions:
REMARK  status: ('A' for Active; 'I' for Inactive)
REMARK    1  A    between atoms: C_1  and  O_2
REMARK    2  A    between atoms: O_2  and  C_3
REMARK    3  A    between atoms: C_6  and  C_7
REMARK    4  A    between atoms: C_7  and  C_9
REMARK    5  A    between atoms: C_10  and  N_11
REMARK    6  A    between atoms: N_11  and  C_12
REMARK    7  A    between atoms: C_16  and  O_17
REMARK                            x       y       z     vdW  Elec       q    Type
REMARK                         _______ _______ _______ _____ _____    ______ ____
ROOT
ATOM      1  C   UNL     1       4.809   5.704  16.629  0.00  0.00    +0.000 C 
ATOM      2  C   UNL     1       4.986   4.376  16.618  0.00  0.00    +0.000 C 
ENDROOT
BRANCH   1   3
ATOM      3  C   UNL     1       3.797   6.307  17.541  0.00  0.00    +0.000 C 
ATOM      4  O   UNL     1       3.611   7.518  17.596  0.00  0.00    +0.000 OA
BRANCH   3   8
ATOM      5  C   UNL     1       1.462   3.679  20.014  0.00  0.00    +0.000 A 
ATOM      6  C   UNL     1       2.522   4.416  20.543  0.00  0.00    +0.000 A 
ATOM      7  C   UNL     1       3.267   5.272  19.727  0.00  0.00    +0.000 A 
ATOM      8  C   UNL     1       2.961   5.393  18.366  0.00  0.00    +0.000 A 
ATOM      9  C   UNL     1       1.917   4.631  17.829  0.00  0.00    +0.000 A 
ATOM     10  C   UNL     1       1.168   3.780  18.653  0.00  0.00    +0.000 A 
BRANCH   5  12
ATOM     11  C   UNL     1       1.561   2.491  22.055  0.00  0.00    +0.000 C 
ATOM     12  O   UNL     1       0.818   2.859  20.899  0.00  0.00    +0.000 OA
ENDBRANCH   5  12
ENDBRANCH   3   8
ENDBRANCH   1   3
BRANCH   2  13
ATOM     13  N   UNL     1       5.896   3.686  15.856  0.00  0.00    +0.000 N 
ATOM     14  H   UNL     1       6.213   2.800  16.230  0.00  0.00    +0.000 HD
BRANCH  13  15
ATOM     15  C   UNL     1       6.411   4.017  14.586  0.00  0.00    +0.000 A 
ATOM     16  C   UNL     1       5.863   3.393  13.453  0.00  0.00    +0.000 A 
ATOM     17  C   UNL     1       6.333   3.679  12.167  0.00  0.00    +0.000 A 
ATOM     18  C   UNL     1       7.364   4.596  11.989  0.00  0.00    +0.000 A 
ATOM     19  C   UNL     1       7.914   5.217  13.104  0.00  0.00    +0.000 A 
ATOM     20  C   UNL     1       7.448   4.935  14.388  0.00  0.00    +0.000 A 
BRANCH  19  21
ATOM     21  O   UNL     1       8.929   6.120  12.986  0.00  0.00    +0.000 OA
ATOM     22  H   UNL     1       9.264   6.331  13.872  0.00  0.00    +0.000 HD
ENDBRANCH  19  21
ENDBRANCH  13  15
ENDBRANCH   2  13
TORSDOF 6
ENDMDL
MODEL 2
REMARK VINA RESULT:      -7.1      3.003      7.634
REMARK  Name = 
REMARK  7 active torsions:
REMARK  status: ('A' for Active; 'I' for Inactive)
REMARK    1  A    between atoms: C_1  and  O_2
REMARK    2  A    between atoms: O_2  and  C_3
REMARK    3  A    between atoms: C_6  and  C_7
REMARK    4  A    between atoms: C_7  and  C_9
REMARK    5  A    between atoms: C_10  and  N_11
REMARK    6  A    between atoms: N_11  and  C_12
REMARK    7  A    between atoms: C_16  and  O_17
REMARK                            x       y       z     vdW  Elec       q    Type
REMARK                         _______ _______ _______ _____ _____    ______ ____
ROOT
ATOM      1  C   UNL     1       3.765   4.260  19.315  0.00  0.00    +0.000 C 
ATOM      2  C   UNL     1       3.050   5.371  19.094  0.00  0.00    +0.000 C 
ENDROOT
BRANCH   1   3
ATOM      3  C   UNL     1       4.209   3.425  18.164  0.00  0.00    +0.000 C 
ATOM      4  O   UNL     1       3.752   2.305  17.958  0.00  0.00    +0.000 OA
BRANCH   3   8
ATOM      5  C   UNL     1       7.000   5.065  15.336  0.00  0.00    +0.000 A 
ATOM      6  C   UNL     1       5.733   4.639  14.936  0.00  0.00    +0.000 A 
ATOM      7  C   UNL     1       4.834   4.115  15.870  0.00  0.00    +0.000 A 
ATOM      8  C   UNL     1       5.199   4.005  17.217  0.00  0.00    +0.000 A 
ATOM      9  C   UNL     1       6.481   4.404  17.612  0.00  0.00    +0.000 A 
ATOM     10  C   UNL     1       7.376   4.935  16.674  0.00  0.00    +0.000 A 
BRANCH   5  12
ATOM     11  C   UNL     1       7.597   4.962  13.051  0.00  0.00    +0.000 C 
ATOM     12  O   UNL     1       7.802   5.539  14.335  0.00  0.00    +0.000 OA
ENDBRANCH   5  12
ENDBRANCH   3   8
ENDBRANCH   1   3
BRANCH   2  13
ATOM     13  N   UNL     1       2.600   6.248  20.049  0.00  0.00    +0.000 N 
ATOM     14  H   UNL     1       2.723   5.963  21.013  0.00  0.00    +0.000 HD
BRANCH  13  15
ATOM     15  C   UNL     1       2.035   7.528  19.872  0.00  0.00    +0.000 A 
ATOM     16  C   UNL     1       1.326   8.104  20.939  0.00  0.00    +0.000 A 
ATOM     17  C   UNL     1       0.742   9.370  20.823  0.00  0.00    +0.000 A 
ATOM     18  C   UNL     1       0.856  10.085  19.635  0.00  0.00    +0.000 A 
ATOM     19  C   UNL     1       1.554   9.523  18.574  0.00  0.00    +0.000 A 
ATOM     20  C   UNL     1       2.138   8.261  18.685  0.00  0.00    +0.000 A 
BRANCH  19  21
ATOM     21  O   UNL     1       1.692  10.180  17.386  0.00  0.00    +0.000 OA
ATOM     22  H   UNL     1       2.110   9.582  16.746  0.00  0.00    +0.000 HD
ENDBRANCH  19  21
ENDBRANCH  13  15
ENDBRANCH   2  13
TORSDOF 6
ENDMDL
MODEL 3
REMARK VINA RESULT:      -7.0      5.455      6.566
REMARK  Name = 
REMARK  7 active torsions:
REMARK  status: ('A' for Active; 'I' for Inactive)
REMARK    1  A    between atoms: C_1  and  O_2
REMARK    2  A    between atoms: O_2  and  C_3
REMARK    3  A    between atoms: C_6  and  C_7
REMARK    4  A    between atoms: C_7  and  C_9
REMARK    5  A    between atoms: C_10  and  N_11
REMARK    6  A    between atoms: N_11  and  C_12
REMARK    7  A    between atoms: C_16  and  O_17
REMARK                            x       y       z     vdW  Elec       q    Type
REMARK                         _______ _______ _______ _____ _____    ______ ____
ROOT
ATOM      1  C   UNL     1       6.872   7.973  17.333  0.00  0.00    +0.000 C 
ATOM      2  C   UNL     1       7.943   8.549  17.895  0.00  0.00    +0.000 C 
ENDROOT
BRANCH   1   3
ATOM      3  C   UNL     1       6.818   6.490  17.195  0.00  0.00    +0.000 C 
ATOM      4  O   UNL     1       7.825   5.819  16.997  0.00  0.00    +0.000 OA
BRANCH   3   8
ATOM      5  C   UNL     1       3.043   4.469  17.572  0.00  0.00    +0.000 A 
ATOM      6  C   UNL     1       4.070   3.940  16.791  0.00  0.00    +0.000 A 
ATOM      7  C   UNL     1       5.295   4.606  16.685  0.00  0.00    +0.000 A 
ATOM      8  C   UNL     1       5.500   5.817  17.356  0.00  0.00    +0.000 A 
ATOM      9  C   UNL     1       4.459   6.363  18.116  0.00  0.00    +0.000 A 
ATOM     10  C   UNL     1       3.236   5.688  18.225  0.00  0.00    +0.000 A 
BRANCH   5  12
ATOM     11  C   UNL     1       1.245   3.620  18.852  0.00  0.00    +0.000 C 
ATOM     12  O   UNL     1       1.883   3.744  17.586  0.00  0.00    +0.000 OA
ENDBRANCH   5  12
ENDBRANCH   3   8
ENDBRANCH   1   3
BRANCH   2  13
ATOM     13  N   UNL     1       8.119   9.893  18.113  0.00  0.00    +0.000 N 
ATOM     14  H   UNL     1       7.307  10.481  17.965  0.00  0.00    +0.000 HD
BRANCH  13  15
ATOM     15  C   UNL     1       9.268  10.567  18.573  0.00  0.00    +0.000 A 
ATOM     16  C   UNL     1       9.417  10.779  19.954  0.00  0.00    +0.000 A 
ATOM     17  C   UNL     1      10.535  11.442  20.471  0.00  0.00    +0.000 A 
ATOM     18  C   UNL     1      11.527  11.909  19.614  0.00  0.00    +0.000 A 
ATOM     19  C   UNL     1      11.388  11.705  18.247  0.00  0.00    +0.000 A 
ATOM     20  C   UNL     1      10.276  11.043  17.728  0.00  0.00    +0.000 A 
BRANCH  19  21
ATOM     21  O   UNL     1      12.330  12.145  17.364  0.00  0.00    +0.000 OA
ATOM     22  H   UNL     1      12.082  13.034  17.061  0.00  0.00    +0.000 HD
ENDBRANCH  19  21
ENDBRANCH  13  15
ENDBRANCH   2  13
TORSDOF 6
ENDMDL
MODEL 4
REMARK VINA RESULT:      -7.0      2.000      7.391
REMARK  Name = 
REMARK  7 active torsions:
REMARK  status: ('A' for Active; 'I' for Inactive)
REMARK    1  A    between atoms: C_1  and  O_2
REMARK    2  A    between atoms: O_2  and  C_3
REMARK    3  A    between atoms: C_6  and  C_7
REMARK    4  A    between atoms: C_7  and  C_9
REMARK    5  A    between atoms: C_10  and  N_11
REMARK    6  A    between atoms: N_11  and  C_12
REMARK    7  A    between atoms: C_16  and  O_17
REMARK                            x       y       z     vdW  Elec       q    Type
REMARK                         _______ _______ _______ _____ _____    ______ ____
ROOT
ATOM      1  C   UNL     1       5.567   5.706  17.672  0.00  0.00    +0.000 C 
ATOM      2  C   UNL     1       4.439   6.428  17.638  0.00  0.00    +0.000 C 
ENDROOT
BRANCH   1   3
ATOM      3  C   UNL     1       6.600   5.900  16.616  0.00  0.00    +0.000 C 
ATOM      4  O   UNL     1       7.588   6.606  16.795  0.00  0.00    +0.000 OA
BRANCH   3   8
ATOM      5  C   UNL     1       6.038   3.724  12.953  0.00  0.00    +0.000 A 
ATOM      6  C   UNL     1       5.102   3.653  13.985  0.00  0.00    +0.000 A 
ATOM      7  C   UNL     1       5.296   4.373  15.168  0.00  0.00    +0.000 A 
ATOM      8  C   UNL     1       6.437   5.168  15.331  0.00  0.00    +0.000 A 
ATOM      9  C   UNL     1       7.390   5.215  14.307  0.00  0.00    +0.000 A 
ATOM     10  C   UNL     1       7.187   4.497  13.121  0.00  0.00    +0.000 A 
BRANCH   5  12
ATOM     11  C   UNL     1       4.410   3.014  11.392  0.00  0.00    +0.000 C 
ATOM     12  O   UNL     1       5.755   2.962  11.853  0.00  0.00    +0.000 OA
ENDBRANCH   5  12
ENDBRANCH   3   8
ENDBRANCH   1   3
BRANCH   2  13
ATOM     13  N   UNL     1       3.417   6.378  18.554  0.00  0.00    +0.000 N 
ATOM     14  H   UNL     1       3.105   7.267  18.926  0.00  0.00    +0.000 HD
BRANCH  13  15
ATOM     15  C   UNL     1       2.699   5.254  19.010  0.00  0.00    +0.000 A 
ATOM     16  C   UNL     1       1.920   4.534  18.090  0.00  0.00    +0.000 A 
ATOM     17  C   UNL     1       1.184   3.411  18.483  0.00  0.00    +0.000 A 
ATOM     18  C   UNL     1       1.211   2.987  19.808  0.00  0.00    +0.000 A 
ATOM     19  C   UNL     1       1.977   3.695  20.726  0.00  0.00    +0.000 A 
ATOM     20  C   UNL     1       2.714   4.814  20.338  0.00  0.00    +0.000 A 
BRANCH  19  21
ATOM     21  O   UNL     1       2.036   3.325  22.038  0.00  0.00    +0.000 OA
ATOM     22  H   UNL     1       1.177   3.502  22.451  0.00  0.00    +0.000 HD
ENDBRANCH  19  21
ENDBRANCH  13  15
ENDBRANCH   2  13
TORSDOF 6
ENDMDL
MODEL 5
REMARK VINA RESULT:      -7.0      2.127      7.344
REMARK  Name = 
REMARK  7 active torsions:
REMARK  status: ('A' for Active; 'I' for Inactive)
REMARK    1  A    between atoms: C_1  and  O_2
REMARK    2  A    between atoms: O_2  and  C_3
REMARK    3  A    between atoms: C_6  and  C_7
REMARK    4  A    between atoms: C_7  and  C_9
REMARK    5  A    between atoms: C_10  and  N_11
REMARK    6  A    between atoms: N_11  and  C_12
REMARK    7  A    between atoms: C_16  and  O_17
REMARK                            x       y       z     vdW  Elec       q    Type
REMARK                         _______ _______ _______ _____ _____    ______ ____
ROOT
ATOM      1  C   UNL     1       5.728   5.500  17.520  0.00  0.00    +0.000 C 
ATOM      2  C   UNL     1       6.087   4.623  18.467  0.00  0.00    +0.000 C 
ENDROOT
BRANCH   1   3
ATOM      3  C   UNL     1       6.664   5.805  16.402  0.00  0.00    +0.000 C 
ATOM      4  O   UNL     1       7.604   6.581  16.535  0.00  0.00    +0.000 OA
BRANCH   3   8
ATOM      5  C   UNL     1       5.997   3.707  12.710  0.00  0.00    +0.000 A 
ATOM      6  C   UNL     1       5.059   3.669  13.742  0.00  0.00    +0.000 A 
ATOM      7  C   UNL     1       5.287   4.363  14.933  0.00  0.00    +0.000 A 
ATOM      8  C   UNL     1       6.466   5.099  15.107  0.00  0.00    +0.000 A 
ATOM      9  C   UNL     1       7.420   5.113  14.083  0.00  0.00    +0.000 A 
ATOM     10  C   UNL     1       7.183   4.422  12.888  0.00  0.00    +0.000 A 
BRANCH   5  12
ATOM     11  C   UNL     1       4.300   2.954  11.246  0.00  0.00    +0.000 C 
ATOM     12  O   UNL     1       5.678   2.975  11.600  0.00  0.00    +0.000 OA
ENDBRANCH   5  12
ENDBRANCH   3   8
ENDBRANCH   1   3
BRANCH   2  13
ATOM     13  N   UNL     1       5.321   4.225  19.535  0.00  0.00    +0.000 N 
ATOM     14  H   UNL     1       5.800   4.142  20.423  0.00  0.00    +0.000 HD
BRANCH  13  15
ATOM     15  C   UNL     1       3.936   3.967  19.577  0.00  0.00    +0.000 A 
ATOM     16  C   UNL     1       3.097   4.895  20.215  0.00  0.00    +0.000 A 
ATOM     17  C   UNL     1       1.715   4.693  20.290  0.00  0.00    +0.000 A 
ATOM     18  C   UNL     1       1.144   3.555  19.728  0.00  0.00    +0.000 A 
ATOM     19  C   UNL     1       1.966   2.631  19.096  0.00  0.00    +0.000 A 
ATOM     20  C   UNL     1       3.345   2.829  19.018  0.00  0.00    +0.000 A 
BRANCH  19  21
ATOM     21  O   UNL     1       1.459   1.497  18.532  0.00  0.00    +0.000 OA
ATOM     22  H   UNL     1       1.818   1.407  17.635  0.00  0.00    +0.000 HD
ENDBRANCH  19  21
ENDBRANCH  13  15
ENDBRANCH   2  13
TORSDOF 6
ENDMDL
MODEL 6
REMARK VINA RESULT:      -7.0      3.344      7.435
REMARK  Name = 
REMARK  7 active torsions:
REMARK  status: ('A' for Active; 'I' for Inactive)
REMARK    1  A    between atoms: C_1  and  O_2
REMARK    2  A    between atoms: O_2  and  C_3
REMARK    3  A    between atoms: C_6  and  C_7
REMARK    4  A    between atoms: C_7  and  C_9
REMARK    5  A    between atoms: C_10  and  N_11
REMARK    6  A    between atoms: N_11  and  C_12
REMARK    7  A    between atoms: C_16  and  O_17
REMARK                            x       y       z     vdW  Elec       q    Type
REMARK                         _______ _______ _______ _____ _____    ______ ____
ROOT
ATOM      1  C   UNL     1       2.772   4.477  20.459  0.00  0.00    +0.000 C 
ATOM      2  C   UNL     1       2.327   5.639  19.962  0.00  0.00    +0.000 C 
ENDROOT
BRANCH   1   3
ATOM      3  C   UNL     1       3.262   3.417  19.533  0.00  0.00    +0.000 C 
ATOM      4  O   UNL     1       2.822   2.272  19.566  0.00  0.00    +0.000 OA
BRANCH   3   8
ATOM      5  C   UNL     1       6.262   4.546  16.670  0.00  0.00    +0.000 A 
ATOM      6  C   UNL     1       6.493   4.660  18.041  0.00  0.00    +0.000 A 
ATOM      7  C   UNL     1       5.510   4.281  18.959  0.00  0.00    +0.000 A 
ATOM      8  C   UNL     1       4.277   3.790  18.512  0.00  0.00    +0.000 A 
ATOM      9  C   UNL     1       4.035   3.704  17.136  0.00  0.00    +0.000 A 
ATOM     10  C   UNL     1       5.027   4.078  16.220  0.00  0.00    +0.000 A 
BRANCH   5  12
ATOM     11  C   UNL     1       7.038   4.905  14.466  0.00  0.00    +0.000 C 
ATOM     12  O   UNL     1       7.286   4.965  15.866  0.00  0.00    +0.000 OA
ENDBRANCH   5  12
ENDBRANCH   3   8
ENDBRANCH   1   3
BRANCH   2  13
ATOM     13  N   UNL     1       1.876   6.711  20.691  0.00  0.00    +0.000 N 
ATOM     14  H   UNL     1       1.824   6.581  21.694  0.00  0.00    +0.000 HD
BRANCH  13  15
ATOM     15  C   UNL     1       1.524   7.998  20.237  0.00  0.00    +0.000 A 
ATOM     16  C   UNL     1       0.780   8.833  21.087  0.00  0.00    +0.000 A 
ATOM     17  C   UNL     1       0.400  10.120  20.692  0.00  0.00    +0.000 A 
ATOM     18  C   UNL     1       0.758  10.598  19.435  0.00  0.00    +0.000 A 
ATOM     19  C   UNL     1       1.493   9.780  18.586  0.00  0.00    +0.000 A 
ATOM     20  C   UNL     1       1.874   8.496  18.977  0.00  0.00    +0.000 A 
BRANCH  19  21
ATOM     21  O   UNL     1       1.866  10.198  17.343  0.00  0.00    +0.000 OA
ATOM     22  H   UNL     1       2.678  10.722  17.421  0.00  0.00    +0.000 HD
ENDBRANCH  19  21
ENDBRANCH  13  15
ENDBRANCH   2  13
TORSDOF 6
ENDMDL
MODEL 7
REMARK VINA RESULT:      -7.0      5.431      6.524
REMARK  Name = 
REMARK  7 active torsions:
REMARK  status: ('A' for Active; 'I' for Inactive)
REMARK    1  A    between atoms: C_1  and  O_2
REMARK    2  A    between atoms: O_2  and  C_3
REMARK    3  A    between atoms: C_6  and  C_7
REMARK    4  A    between atoms: C_7  and  C_9
REMARK    5  A    between atoms: C_10  and  N_11
REMARK    6  A    between atoms: N_11  and  C_12
REMARK    7  A    between atoms: C_16  and  O_17
REMARK                            x       y       z     vdW  Elec       q    Type
REMARK                         _______ _______ _______ _____ _____    ______ ____
ROOT
ATOM      1  C   UNL     1       7.922   7.183  18.264  0.00  0.00    +0.000 C 
ATOM      2  C   UNL     1       8.146   8.488  18.057  0.00  0.00    +0.000 C 
ENDROOT
BRANCH   1   3
ATOM      3  C   UNL     1       7.041   6.428  17.330  0.00  0.00    +0.000 C 
ATOM      4  O   UNL     1       7.410   6.104  16.206  0.00  0.00    +0.000 OA
BRANCH   3   8
ATOM      5  C   UNL     1       3.195   5.147  18.762  0.00  0.00    +0.000 A 
ATOM      6  C   UNL     1       4.360   4.461  19.108  0.00  0.00    +0.000 A 
ATOM      7  C   UNL     1       5.604   4.895  18.640  0.00  0.00    +0.000 A 
ATOM      8  C   UNL     1       5.693   6.020  17.811  0.00  0.00    +0.000 A 
ATOM      9  C   UNL     1       4.522   6.690  17.440  0.00  0.00    +0.000 A 
ATOM     10  C   UNL     1       3.278   6.255  17.918  0.00  0.00    +0.000 A 
BRANCH   5  12
ATOM     11  C   UNL     1       1.743   4.937  20.615  0.00  0.00    +0.000 C 
ATOM     12  O   UNL     1       2.035   4.621  19.259  0.00  0.00    +0.000 OA
ENDBRANCH   5  12
ENDBRANCH   3   8
ENDBRANCH   1   3
BRANCH   2  13
ATOM     13  N   UNL     1       8.953   9.301  18.814  0.00  0.00    +0.000 N 
ATOM     14  H   UNL     1       9.429   8.861  19.592  0.00  0.00    +0.000 HD
BRANCH  13  15
ATOM     15  C   UNL     1       9.258  10.663  18.620  0.00  0.00    +0.000 A 
ATOM     16  C   UNL     1      10.443  11.174  19.177  0.00  0.00    +0.000 A 
ATOM     17  C   UNL     1      10.799  12.518  19.020  0.00  0.00    +0.000 A 
ATOM     18  C   UNL     1       9.975  13.379  18.303  0.00  0.00    +0.000 A 
ATOM     19  C   UNL     1       8.800  12.884  17.750  0.00  0.00    +0.000 A 
ATOM     20  C   UNL     1       8.442  11.545  17.903  0.00  0.00    +0.000 A 
BRANCH  19  21
ATOM     21  O   UNL     1       7.955  13.686  17.041  0.00  0.00    +0.000 OA
ATOM     22  H   UNL     1       8.298  14.593  17.058  0.00  0.00    +0.000 HD
ENDBRANCH  19  21
ENDBRANCH  13  15
ENDBRANCH   2  13
TORSDOF 6
ENDMDL
MODEL 8
REMARK VINA RESULT:      -7.0      4.625      6.368
REMARK  Name = 
REMARK  7 active torsions:
REMARK  status: ('A' for Active; 'I' for Inactive)
REMARK    1  A    between atoms: C_1  and  O_2
REMARK    2  A    between atoms: O_2  and  C_3
REMARK    3  A    between atoms: C_6  and  C_7
REMARK    4  A    between atoms: C_7  and  C_9
REMARK    5  A    between atoms: C_10  and  N_11
REMARK    6  A    between atoms: N_11  and  C_12
REMARK    7  A    between atoms: C_16  and  O_17
REMARK                            x       y       z     vdW  Elec       q    Type
REMARK                         _______ _______ _______ _____ _____    ______ ____
ROOT
ATOM      1  C   UNL     1       2.446   7.593  18.865  0.00  0.00    +0.000 C 
ATOM      2  C   UNL     1       3.241   7.271  17.836  0.00  0.00    +0.000 C 
ENDROOT
BRANCH   1   3
ATOM      3  C   UNL     1       1.628   8.836  18.805  0.00  0.00    +0.000 C 
ATOM      4  O   UNL     1       1.456   9.452  17.758  0.00  0.00    +0.000 OA
BRANCH   3   8
ATOM      5  C   UNL     1      -0.326  10.281  22.352  0.00  0.00    +0.000 A 
ATOM      6  C   UNL     1      -0.560  10.868  21.108  0.00  0.00    +0.000 A 
ATOM      7  C   UNL     1       0.077  10.381  19.963  0.00  0.00    +0.000 A 
ATOM      8  C   UNL     1       0.965   9.303  20.054  0.00  0.00    +0.000 A 
ATOM      9  C   UNL     1       1.223   8.733  21.306  0.00  0.00    +0.000 A 
ATOM     10  C   UNL     1       0.576   9.219  22.449  0.00  0.00    +0.000 A 
BRANCH   5  12
ATOM     11  C   UNL     1      -1.932  11.860  23.067  0.00  0.00    +0.000 C 
ATOM     12  O   UNL     1      -0.986  10.852  23.404  0.00  0.00    +0.000 OA
ENDBRANCH   5  12
ENDBRANCH   3   8
ENDBRANCH   1   3
BRANCH   2  13
ATOM     13  N   UNL     1       4.026   6.149  17.739  0.00  0.00    +0.000 N 
ATOM     14  H   UNL     1       4.975   6.292  17.414  0.00  0.00    +0.000 HD
BRANCH  13  15
ATOM     15  C   UNL     1       3.708   4.820  18.086  0.00  0.00    +0.000 A 
ATOM     16  C   UNL     1       2.488   4.282  17.643  0.00  0.00    +0.000 A 
ATOM     17  C   UNL     1       2.117   2.969  17.956  0.00  0.00    +0.000 A 
ATOM     18  C   UNL     1       2.960   2.169  18.721  0.00  0.00    +0.000 A 
ATOM     19  C   UNL     1       4.167   2.694  19.165  0.00  0.00    +0.000 A 
ATOM     20  C   UNL     1       4.542   4.001  18.855  0.00  0.00    +0.000 A 
BRANCH  19  21
ATOM     21  O   UNL     1       5.029   1.954  19.921  0.00  0.00    +0.000 OA
ATOM     22  H   UNL     1       5.286   1.165  19.418  0.00  0.00    +0.000 HD
ENDBRANCH  19  21
ENDBRANCH  13  15
ENDBRANCH   2  13
TORSDOF 6
ENDMDL
MODEL 9
REMARK VINA RESULT:      -7.0      5.821      6.902
REMARK  Name = 
REMARK  7 active torsions:
REMARK  status: ('A' for Active; 'I' for Inactive)
REMARK    1  A    between atoms: C_1  and  O_2
REMARK    2  A    between atoms: O_2  and  C_3
REMARK    3  A    between atoms: C_6  and  C_7
REMARK    4  A    between atoms: C_7  and  C_9
REMARK    5  A    between atoms: C_10  and  N_11
REMARK    6  A    between atoms: N_11  and  C_12
REMARK    7  A    between atoms: C_16  and  O_17
REMARK                            x       y       z     vdW  Elec       q    Type
REMARK                         _______ _______ _______ _____ _____    ______ ____
ROOT
ATOM      1  C   UNL     1       8.203   7.501  18.504  0.00  0.00    +0.000 C 
ATOM      2  C   UNL     1       8.422   8.822  18.454  0.00  0.00    +0.000 C 
ENDROOT
BRANCH   1   3
ATOM      3  C   UNL     1       7.338   6.856  17.476  0.00  0.00    +0.000 C 
ATOM      4  O   UNL     1       7.707   6.709  16.315  0.00  0.00    +0.000 OA
BRANCH   3   8
ATOM      5  C   UNL     1       3.449   5.438  18.633  0.00  0.00    +0.000 A 
ATOM      6  C   UNL     1       3.604   6.351  17.590  0.00  0.00    +0.000 A 
ATOM      7  C   UNL     1       4.876   6.796  17.221  0.00  0.00    +0.000 A 
ATOM      8  C   UNL     1       6.010   6.337  17.901  0.00  0.00    +0.000 A 
ATOM      9  C   UNL     1       5.852   5.443  18.967  0.00  0.00    +0.000 A 
ATOM     10  C   UNL     1       4.575   4.994  19.328  0.00  0.00    +0.000 A 
BRANCH   5  12
ATOM     11  C   UNL     1       1.925   4.610  20.240  0.00  0.00    +0.000 C 
ATOM     12  O   UNL     1       2.159   5.089  18.920  0.00  0.00    +0.000 OA
ENDBRANCH   5  12
ENDBRANCH   3   8
ENDBRANCH   1   3
BRANCH   2  13
ATOM     13  N   UNL     1       9.214   9.544  19.311  0.00  0.00    +0.000 N 
ATOM     14  H   UNL     1       9.433   9.105  20.197  0.00  0.00    +0.000 HD
BRANCH  13  15
ATOM     15  C   UNL     1       9.818  10.801  19.103  0.00  0.00    +0.000 A 
ATOM     16  C   UNL     1       9.910  11.692  20.185  0.00  0.00    +0.000 A 
ATOM     17  C   UNL     1      10.497  12.953  20.040  0.00  0.00    +0.000 A 
ATOM     18  C   UNL     1      11.003  13.350  18.806  0.00  0.00    +0.000 A 
ATOM     19  C   UNL     1      10.915  12.476  17.729  0.00  0.00    +0.000 A 
ATOM     20  C   UNL     1      10.332  11.217  17.870  0.00  0.00    +0.000 A 
BRANCH  19  21
ATOM     21  O   UNL     1      11.392  12.816  16.497  0.00  0.00    +0.000 OA
ATOM     22  H   UNL     1      12.322  13.079  16.585  0.00  0.00    +0.000 HD
ENDBRANCH  19  21
ENDBRANCH  13  15
ENDBRANCH   2  13
TORSDOF 6
ENDMDL
