MODEL 1
REMARK VINA RESULT:      -7.0      0.000      0.000
REMARK  Name = 
REMARK  18 active torsions:
REMARK  status: ('A' for Active; 'I' for Inactive)
REMARK    1  A    between atoms: C_1  and  O_2
REMARK    2  A    between atoms: O_2  and  C_3
REMARK    3  A    between atoms: C_5  and  C_6
REMARK    4  A    between atoms: C_7  and  C_8
REMARK    5  A    between atoms: C_8  and  C_10
REMARK    6  A    between atoms: C_11  and  O_12
REMARK    7  A    between atoms: C_11  and  C_13
REMARK    8  A    between atoms: C_14  and  C_15
REMARK    9  A    between atoms: C_17  and  O_18
REMARK   10  A    between atoms: O_18  and  C_19
REMARK   11  A    between atoms: C_20  and  O_21
REMARK   12  A    between atoms: O_21  and  C_22
REMARK   13  A    between atoms: C_23  and  O_24
REMARK   14  A    between atoms: O_24  and  C_25
REMARK   15  A    between atoms: C_28  and  O_29
REMARK   16  A    between atoms: O_29  and  C_30
REMARK   17  A    between atoms: C_31  and  O_32
REMARK   18  A    between atoms: O_32  and  C_33
REMARK                            x       y       z     vdW  Elec       q    Type
REMARK                         _______ _______ _______ _____ _____    ______ ____
ROOT
ATOM      1  C   UNL     1       0.599  10.095  18.864  0.00  0.00    +0.000 C 
ATOM      2  C   UNL     1      -0.103  11.240  18.841  0.00  0.00    +0.000 C 
ENDROOT
BRANCH   1   3
ATOM      3  C   UNL     1       1.809   9.901  18.031  0.00  0.00    +0.000 C 
ATOM      4  O   UNL     1       2.486  10.851  17.647  0.00  0.00    +0.000 OA
BRANCH   3   6
ATOM      5  C   UNL     1       2.349   7.628  18.752  0.00  0.00    +0.000 C 
ATOM      6  C   UNL     1       2.154   8.479  17.738  0.00  0.00    +0.000 C 
BRANCH   5   9
ATOM      7  C   UNL     1       1.823   3.909  19.108  0.00  0.00    +0.000 A 
ATOM      8  C   UNL     1       1.813   5.294  19.363  0.00  0.00    +0.000 A 
ATOM      9  C   UNL     1       2.580   6.180  18.609  0.00  0.00    +0.000 A 
ATOM     10  C   UNL     1       3.430   5.648  17.642  0.00  0.00    +0.000 A 
ATOM     11  C   UNL     1       3.528   4.261  17.424  0.00  0.00    +0.000 A 
ATOM     12  C   UNL     1       2.720   3.367  18.162  0.00  0.00    +0.000 A 
BRANCH   7  14
ATOM     13  C   UNL     1       1.360   2.778  21.138  0.00  0.00    +0.000 C 
ATOM     14  O   UNL     1       0.969   3.082  19.796  0.00  0.00    +0.000 OA
ENDBRANCH   7  14
BRANCH  11  15
ATOM     15  O   UNL     1       4.436   3.984  16.430  0.00  0.00    +0.000 OA
ATOM     16  C   UNL     1       5.283   5.014  15.945  0.00  0.00    +0.000 C 
ENDBRANCH  11  15
BRANCH  12  17
ATOM     17  O   UNL     1       2.900   2.039  17.888  0.00  0.00    +0.000 OA
ATOM     18  C   UNL     1       3.788   1.240  18.649  0.00  0.00    +0.000 C 
ENDBRANCH  12  17
ENDBRANCH   5   9
ENDBRANCH   3   6
ENDBRANCH   1   3
BRANCH   2  19
ATOM     19  O   UNL     1       0.230  12.324  18.056  0.00  0.00    +0.000 OA
ATOM     20  H   UNL     1       0.710  11.992  17.265  0.00  0.00    +0.000 HD
ENDBRANCH   2  19
BRANCH   2  21
ATOM     21  C   UNL     1      -1.275  11.429  19.678  0.00  0.00    +0.000 C 
ATOM     22  C   UNL     1      -1.556  12.543  20.375  0.00  0.00    +0.000 C 
BRANCH  22  23
ATOM     23  C   UNL     1      -2.724  12.711  21.258  0.00  0.00    +0.000 A 
ATOM     24  C   UNL     1      -4.000  12.593  20.703  0.00  0.00    +0.000 A 
ATOM     25  C   UNL     1      -5.146  12.742  21.490  0.00  0.00    +0.000 A 
ATOM     26  C   UNL     1      -5.026  13.040  22.867  0.00  0.00    +0.000 A 
ATOM     27  C   UNL     1      -3.742  13.158  23.439  0.00  0.00    +0.000 A 
ATOM     28  C   UNL     1      -2.611  12.960  22.630  0.00  0.00    +0.000 A 
BRANCH  25  29
ATOM     29  O   UNL     1      -6.421  12.636  20.981  0.00  0.00    +0.000 OA
ATOM     30  C   UNL     1      -6.521  12.419  19.577  0.00  0.00    +0.000 C 
ENDBRANCH  25  29
BRANCH  26  31
ATOM     31  O   UNL     1      -6.216  13.253  23.525  0.00  0.00    +0.000 OA
ATOM     32  C   UNL     1      -6.625  14.604  23.712  0.00  0.00    +0.000 C 
ENDBRANCH  26  31
BRANCH  27  33
ATOM     33  O   UNL     1      -3.652  13.494  24.765  0.00  0.00    +0.000 OA
ATOM     34  C   UNL     1      -3.087  14.753  25.104  0.00  0.00    +0.000 C 
ENDBRANCH  27  33
ENDBRANCH  22  23
ENDBRANCH   2  21
TORSDOF 12
ENDMDL
MODEL 2
REMARK VINA RESULT:      -7.0      1.333      3.144
REMARK  Name = 
REMARK  18 active torsions:
REMARK  status: ('A' for Active; 'I' for Inactive)
REMARK    1  A    between atoms: C_1  and  O_2
REMARK    2  A    between atoms: O_2  and  C_3
REMARK    3  A    between atoms: C_5  and  C_6
REMARK    4  A    between atoms: C_7  and  C_8
REMARK    5  A    between atoms: C_8  and  C_10
REMARK    6  A    between atoms: C_11  and  O_12
REMARK    7  A    between atoms: C_11  and  C_13
REMARK    8  A    between atoms: C_14  and  C_15
REMARK    9  A    between atoms: C_17  and  O_18
REMARK   10  A    between atoms: O_18  and  C_19
REMARK   11  A    between atoms: C_20  and  O_21
REMARK   12  A    between atoms: O_21  and  C_22
REMARK   13  A    between atoms: C_23  and  O_24
REMARK   14  A    between atoms: O_24  and  C_25
REMARK   15  A    between atoms: C_28  and  O_29
REMARK   16  A    between atoms: O_29  and  C_30
REMARK   17  A    between atoms: C_31  and  O_32
REMARK   18  A    between atoms: O_32  and  C_33
REMARK                            x       y       z     vdW  Elec       q    Type
REMARK                         _______ _______ _______ _____ _____    ______ ____
ROOT
ATOM      1  C   UNL     1       0.364  10.382  18.952  0.00  0.00    +0.000 C 
ATOM      2  C   UNL     1      -0.836  10.614  18.394  0.00  0.00    +0.000 C 
ENDROOT
BRANCH   1   3
ATOM      3  C   UNL     1       1.520   9.911  18.154  0.00  0.00    +0.000 C 
ATOM      4  O   UNL     1       2.293  10.696  17.613  0.00  0.00    +0.000 OA
BRANCH   3   6
ATOM      5  C   UNL     1       2.903   7.913  17.882  0.00  0.00    +0.000 C 
ATOM      6  C   UNL     1       1.688   8.429  18.099  0.00  0.00    +0.000 C 
BRANCH   5   9
ATOM      7  C   UNL     1       4.878   4.749  18.447  0.00  0.00    +0.000 A 
ATOM      8  C   UNL     1       4.546   6.090  18.174  0.00  0.00    +0.000 A 
ATOM      9  C   UNL     1       3.232   6.478  17.917  0.00  0.00    +0.000 A 
ATOM     10  C   UNL     1       2.258   5.483  17.852  0.00  0.00    +0.000 A 
ATOM     11  C   UNL     1       2.575   4.124  18.033  0.00  0.00    +0.000 A 
ATOM     12  C   UNL     1       3.900   3.737  18.333  0.00  0.00    +0.000 A 
BRANCH   7  14
ATOM     13  C   UNL     1       6.953   5.509  19.301  0.00  0.00    +0.000 C 
ATOM     14  O   UNL     1       6.163   4.424  18.807  0.00  0.00    +0.000 OA
ENDBRANCH   7  14
BRANCH  11  15
ATOM     15  O   UNL     1       1.453   3.339  17.913  0.00  0.00    +0.000 OA
ATOM     16  C   UNL     1       0.810   2.848  19.079  0.00  0.00    +0.000 C 
ENDBRANCH  11  15
BRANCH  12  17
ATOM     17  O   UNL     1       4.109   2.392  18.475  0.00  0.00    +0.000 OA
ATOM     18  C   UNL     1       4.310   1.805  19.748  0.00  0.00    +0.000 C 
ENDBRANCH  12  17
ENDBRANCH   5   9
ENDBRANCH   3   6
ENDBRANCH   1   3
BRANCH   2  19
ATOM     19  O   UNL     1      -1.101  10.439  17.052  0.00  0.00    +0.000 OA
ATOM     20  H   UNL     1      -0.721   9.576  16.775  0.00  0.00    +0.000 HD
ENDBRANCH   2  19
BRANCH   2  21
ATOM     21  C   UNL     1      -1.958  11.097  19.181  0.00  0.00    +0.000 C 
ATOM     22  C   UNL     1      -1.908  12.119  20.052  0.00  0.00    +0.000 C 
BRANCH  22  23
ATOM     23  C   UNL     1      -3.038  12.575  20.880  0.00  0.00    +0.000 A 
ATOM     24  C   UNL     1      -2.824  12.777  22.245  0.00  0.00    +0.000 A 
ATOM     25  C   UNL     1      -3.858  13.210  23.081  0.00  0.00    +0.000 A 
ATOM     26  C   UNL     1      -5.151  13.427  22.554  0.00  0.00    +0.000 A 
ATOM     27  C   UNL     1      -5.378  13.229  21.176  0.00  0.00    +0.000 A 
ATOM     28  C   UNL     1      -4.309  12.836  20.355  0.00  0.00    +0.000 A 
BRANCH  25  29
ATOM     29  O   UNL     1      -3.688  13.418  24.432  0.00  0.00    +0.000 OA
ATOM     30  C   UNL     1      -3.023  14.621  24.805  0.00  0.00    +0.000 C 
ENDBRANCH  25  29
BRANCH  26  31
ATOM     31  O   UNL     1      -6.111  13.765  23.481  0.00  0.00    +0.000 OA
ATOM     32  C   UNL     1      -6.968  12.725  23.941  0.00  0.00    +0.000 C 
ENDBRANCH  26  31
BRANCH  27  33
ATOM     33  O   UNL     1      -6.652  13.401  20.698  0.00  0.00    +0.000 OA
ATOM     34  C   UNL     1      -7.172  12.427  19.804  0.00  0.00    +0.000 C 
ENDBRANCH  27  33
ENDBRANCH  22  23
ENDBRANCH   2  21
TORSDOF 12
ENDMDL
MODEL 3
REMARK VINA RESULT:      -7.0      1.531     11.284
REMARK  Name = 
REMARK  18 active torsions:
REMARK  status: ('A' for Active; 'I' for Inactive)
REMARK    1  A    between atoms: C_1  and  O_2
REMARK    2  A    between atoms: O_2  and  C_3
REMARK    3  A    between atoms: C_5  and  C_6
REMARK    4  A    between atoms: C_7  and  C_8
REMARK    5  A    between atoms: C_8  and  C_10
REMARK    6  A    between atoms: C_11  and  O_12
REMARK    7  A    between atoms: C_11  and  C_13
REMARK    8  A    between atoms: C_14  and  C_15
REMARK    9  A    between atoms: C_17  and  O_18
REMARK   10  A    between atoms: O_18  and  C_19
REMARK   11  A    between atoms: C_20  and  O_21
REMARK   12  A    between atoms: O_21  and  C_22
REMARK   13  A    between atoms: C_23  and  O_24
REMARK   14  A    between atoms: O_24  and  C_25
REMARK   15  A    between atoms: C_28  and  O_29
REMARK   16  A    between atoms: O_29  and  C_30
REMARK   17  A    between atoms: C_31  and  O_32
REMARK   18  A    between atoms: O_32  and  C_33
REMARK                            x       y       z     vdW  Elec       q    Type
REMARK                         _______ _______ _______ _____ _____    ______ ____
ROOT
ATOM      1  C   UNL     1       0.896  10.764  19.876  0.00  0.00    +0.000 C 
ATOM      2  C   UNL     1       0.963   9.915  18.836  0.00  0.00    +0.000 C 
ENDROOT
BRANCH   1   3
ATOM      3  C   UNL     1       0.278  12.104  19.753  0.00  0.00    +0.000 C 
ATOM      4  O   UNL     1       0.766  12.977  19.041  0.00  0.00    +0.000 OA
BRANCH   3   6
ATOM      5  C   UNL     1      -2.079  12.738  19.892  0.00  0.00    +0.000 C 
ATOM      6  C   UNL     1      -0.989  12.289  20.522  0.00  0.00    +0.000 C 
BRANCH   5   9
ATOM      7  C   UNL     1      -5.815  12.415  20.310  0.00  0.00    +0.000 A 
ATOM      8  C   UNL     1      -4.538  12.543  19.730  0.00  0.00    +0.000 A 
ATOM      9  C   UNL     1      -3.417  12.857  20.497  0.00  0.00    +0.000 A 
ATOM     10  C   UNL     1      -3.608  13.127  21.851  0.00  0.00    +0.000 A 
ATOM     11  C   UNL     1      -4.885  13.094  22.440  0.00  0.00    +0.000 A 
ATOM     12  C   UNL     1      -6.014  12.736  21.670  0.00  0.00    +0.000 A 
BRANCH   7  14
ATOM     13  C   UNL     1      -6.760  10.666  19.020  0.00  0.00    +0.000 C 
ATOM     14  O   UNL     1      -6.874  11.993  19.543  0.00  0.00    +0.000 OA
ENDBRANCH   7  14
BRANCH  11  15
ATOM     15  O   UNL     1      -4.815  13.405  23.777  0.00  0.00    +0.000 OA
ATOM     16  C   UNL     1      -4.473  12.398  24.716  0.00  0.00    +0.000 C 
ENDBRANCH  11  15
BRANCH  12  17
ATOM     17  O   UNL     1      -7.212  12.748  22.330  0.00  0.00    +0.000 OA
ATOM     18  C   UNL     1      -7.915  11.551  22.610  0.00  0.00    +0.000 C 
ENDBRANCH  12  17
ENDBRANCH   5   9
ENDBRANCH   3   6
ENDBRANCH   1   3
BRANCH   2  19
ATOM     19  O   UNL     1       0.472  10.206  17.580  0.00  0.00    +0.000 OA
ATOM     20  H   UNL     1       1.171  10.687  17.083  0.00  0.00    +0.000 HD
ENDBRANCH   2  19
BRANCH   2  21
ATOM     21  C   UNL     1       1.551   8.594  18.972  0.00  0.00    +0.000 C 
ATOM     22  C   UNL     1       2.299   7.981  18.039  0.00  0.00    +0.000 C 
BRANCH  22  23
ATOM     23  C   UNL     1       2.855   6.622  18.165  0.00  0.00    +0.000 A 
ATOM     24  C   UNL     1       1.974   5.559  18.367  0.00  0.00    +0.000 A 
ATOM     25  C   UNL     1       2.442   4.247  18.494  0.00  0.00    +0.000 A 
ATOM     26  C   UNL     1       3.830   3.983  18.443  0.00  0.00    +0.000 A 
ATOM     27  C   UNL     1       4.730   5.049  18.237  0.00  0.00    +0.000 A 
ATOM     28  C   UNL     1       4.225   6.349  18.070  0.00  0.00    +0.000 A 
BRANCH  25  29
ATOM     29  O   UNL     1       1.606   3.172  18.697  0.00  0.00    +0.000 OA
ATOM     30  C   UNL     1       0.884   3.159  19.924  0.00  0.00    +0.000 C 
ENDBRANCH  25  29
BRANCH  26  31
ATOM     31  O   UNL     1       4.184   2.672  18.669  0.00  0.00    +0.000 OA
ATOM     32  C   UNL     1       4.494   2.300  20.008  0.00  0.00    +0.000 C 
ENDBRANCH  26  31
BRANCH  27  33
ATOM     33  O   UNL     1       6.073   4.774  18.239  0.00  0.00    +0.000 OA
ATOM     34  C   UNL     1       6.916   5.536  19.092  0.00  0.00    +0.000 C 
ENDBRANCH  27  33
ENDBRANCH  22  23
ENDBRANCH   2  21
TORSDOF 12
ENDMDL
MODEL 4
REMARK VINA RESULT:      -6.9      1.290     11.505
REMARK  Name = 
REMARK  18 active torsions:
REMARK  status: ('A' for Active; 'I' for Inactive)
REMARK    1  A    between atoms: C_1  and  O_2
REMARK    2  A    between atoms: O_2  and  C_3
REMARK    3  A    between atoms: C_5  and  C_6
REMARK    4  A    between atoms: C_7  and  C_8
REMARK    5  A    between atoms: C_8  and  C_10
REMARK    6  A    between atoms: C_11  and  O_12
REMARK    7  A    between atoms: C_11  and  C_13
REMARK    8  A    between atoms: C_14  and  C_15
REMARK    9  A    between atoms: C_17  and  O_18
REMARK   10  A    between atoms: O_18  and  C_19
REMARK   11  A    between atoms: C_20  and  O_21
REMARK   12  A    between atoms: O_21  and  C_22
REMARK   13  A    between atoms: C_23  and  O_24
REMARK   14  A    between atoms: O_24  and  C_25
REMARK   15  A    between atoms: C_28  and  O_29
REMARK   16  A    between atoms: O_29  and  C_30
REMARK   17  A    between atoms: C_31  and  O_32
REMARK   18  A    between atoms: O_32  and  C_33
REMARK                            x       y       z     vdW  Elec       q    Type
REMARK                         _______ _______ _______ _____ _____    ______ ____
ROOT
ATOM      1  C   UNL     1       0.315  10.549  18.918  0.00  0.00    +0.000 C 
ATOM      2  C   UNL     1       1.362  10.066  18.227  0.00  0.00    +0.000 C 
ENDROOT
BRANCH   1   3
ATOM      3  C   UNL     1      -0.005  11.995  18.942  0.00  0.00    +0.000 C 
ATOM      4  O   UNL     1       0.650  12.812  18.301  0.00  0.00    +0.000 OA
BRANCH   3   6
ATOM      5  C   UNL     1      -2.422  12.127  19.287  0.00  0.00    +0.000 C 
ATOM      6  C   UNL     1      -1.195  12.366  19.764  0.00  0.00    +0.000 C 
BRANCH   5   9
ATOM      7  C   UNL     1      -4.780  13.309  21.984  0.00  0.00    +0.000 A 
ATOM      8  C   UNL     1      -3.618  12.876  21.316  0.00  0.00    +0.000 A 
ATOM      9  C   UNL     1      -3.675  12.333  20.033  0.00  0.00    +0.000 A 
ATOM     10  C   UNL     1      -4.931  12.150  19.457  0.00  0.00    +0.000 A 
ATOM     11  C   UNL     1      -6.115  12.491  20.137  0.00  0.00    +0.000 A 
ATOM     12  C   UNL     1      -6.053  13.078  21.420  0.00  0.00    +0.000 A 
BRANCH   7  14
ATOM     13  C   UNL     1      -4.240  15.305  23.143  0.00  0.00    +0.000 C 
ATOM     14  O   UNL     1      -4.672  13.942  23.199  0.00  0.00    +0.000 OA
ENDBRANCH   7  14
BRANCH  11  15
ATOM     15  O   UNL     1      -7.219  12.208  19.370  0.00  0.00    +0.000 OA
ATOM     16  C   UNL     1      -7.295  12.695  18.039  0.00  0.00    +0.000 C 
ENDBRANCH  11  15
BRANCH  12  17
ATOM     17  O   UNL     1      -7.258  13.359  22.004  0.00  0.00    +0.000 OA
ATOM     18  C   UNL     1      -7.916  12.417  22.833  0.00  0.00    +0.000 C 
ENDBRANCH  12  17
ENDBRANCH   5   9
ENDBRANCH   3   6
ENDBRANCH   1   3
BRANCH   2  19
ATOM     19  O   UNL     1       2.220  10.854  17.489  0.00  0.00    +0.000 OA
ATOM     20  H   UNL     1       1.926  11.788  17.575  0.00  0.00    +0.000 HD
ENDBRANCH   2  19
BRANCH   2  21
ATOM     21  C   UNL     1       1.654   8.644  18.191  0.00  0.00    +0.000 C 
ATOM     22  C   UNL     1       2.856   8.108  17.917  0.00  0.00    +0.000 C 
BRANCH  22  23
ATOM     23  C   UNL     1       3.136   6.663  17.839  0.00  0.00    +0.000 A 
ATOM     24  C   UNL     1       2.119   5.770  18.178  0.00  0.00    +0.000 A 
ATOM     25  C   UNL     1       2.324   4.387  18.122  0.00  0.00    +0.000 A 
ATOM     26  C   UNL     1       3.584   3.874  17.741  0.00  0.00    +0.000 A 
ATOM     27  C   UNL     1       4.619   4.767  17.393  0.00  0.00    +0.000 A 
ATOM     28  C   UNL     1       4.368   6.149  17.418  0.00  0.00    +0.000 A 
BRANCH  25  29
ATOM     29  O   UNL     1       1.348   3.474  18.451  0.00  0.00    +0.000 OA
ATOM     30  C   UNL     1       0.898   3.493  19.802  0.00  0.00    +0.000 C 
ENDBRANCH  25  29
BRANCH  26  31
ATOM     31  O   UNL     1       3.702   2.504  17.808  0.00  0.00    +0.000 OA
ATOM     32  C   UNL     1       4.115   1.943  19.049  0.00  0.00    +0.000 C 
ENDBRANCH  26  31
BRANCH  27  33
ATOM     33  O   UNL     1       5.846   4.246  17.073  0.00  0.00    +0.000 OA
ATOM     34  C   UNL     1       6.989   4.748  17.750  0.00  0.00    +0.000 C 
ENDBRANCH  27  33
ENDBRANCH  22  23
ENDBRANCH   2  21
TORSDOF 12
ENDMDL
MODEL 5
REMARK VINA RESULT:      -6.8      1.355      2.586
REMARK  Name = 
REMARK  18 active torsions:
REMARK  status: ('A' for Active; 'I' for Inactive)
REMARK    1  A    between atoms: C_1  and  O_2
REMARK    2  A    between atoms: O_2  and  C_3
REMARK    3  A    between atoms: C_5  and  C_6
REMARK    4  A    between atoms: C_7  and  C_8
REMARK    5  A    between atoms: C_8  and  C_10
REMARK    6  A    between atoms: C_11  and  O_12
REMARK    7  A    between atoms: C_11  and  C_13
REMARK    8  A    between atoms: C_14  and  C_15
REMARK    9  A    between atoms: C_17  and  O_18
REMARK   10  A    between atoms: O_18  and  C_19
REMARK   11  A    between atoms: C_20  and  O_21
REMARK   12  A    between atoms: O_21  and  C_22
REMARK   13  A    between atoms: C_23  and  O_24
REMARK   14  A    between atoms: O_24  and  C_25
REMARK   15  A    between atoms: C_28  and  O_29
REMARK   16  A    between atoms: O_29  and  C_30
REMARK   17  A    between atoms: C_31  and  O_32
REMARK   18  A    between atoms: O_32  and  C_33
REMARK                            x       y       z     vdW  Elec       q    Type
REMARK                         _______ _______ _______ _____ _____    ______ ____
ROOT
ATOM      1  C   UNL     1       0.407  10.612  19.093  0.00  0.00    +0.000 C 
ATOM      2  C   UNL     1      -0.780  10.799  18.492  0.00  0.00    +0.000 C 
ENDROOT
BRANCH   1   3
ATOM      3  C   UNL     1       1.547   9.976  18.393  0.00  0.00    +0.000 C 
ATOM      4  O   UNL     1       2.206  10.581  17.552  0.00  0.00    +0.000 OA
BRANCH   3   6
ATOM      5  C   UNL     1       2.441   7.743  17.955  0.00  0.00    +0.000 C 
ATOM      6  C   UNL     1       1.849   8.577  18.817  0.00  0.00    +0.000 C 
BRANCH   5   9
ATOM      7  C   UNL     1       2.493   3.974  18.112  0.00  0.00    +0.000 A 
ATOM      8  C   UNL     1       2.040   5.306  18.046  0.00  0.00    +0.000 A 
ATOM      9  C   UNL     1       2.899   6.380  18.275  0.00  0.00    +0.000 A 
ATOM     10  C   UNL     1       4.209   6.098  18.658  0.00  0.00    +0.000 A 
ATOM     11  C   UNL     1       4.666   4.777  18.818  0.00  0.00    +0.000 A 
ATOM     12  C   UNL     1       3.806   3.690  18.547  0.00  0.00    +0.000 A 
BRANCH   7  14
ATOM     13  C   UNL     1       0.826   2.450  18.830  0.00  0.00    +0.000 C 
ATOM     14  O   UNL     1       1.647   2.948  17.769  0.00  0.00    +0.000 OA
ENDBRANCH   7  14
BRANCH  11  15
ATOM     15  O   UNL     1       5.983   4.759  19.209  0.00  0.00    +0.000 OA
ATOM     16  C   UNL     1       7.001   5.056  18.267  0.00  0.00    +0.000 C 
ENDBRANCH  11  15
BRANCH  12  17
ATOM     17  O   UNL     1       4.339   2.446  18.748  0.00  0.00    +0.000 OA
ATOM     18  C   UNL     1       4.381   1.858  20.036  0.00  0.00    +0.000 C 
ENDBRANCH  12  17
ENDBRANCH   5   9
ENDBRANCH   3   6
ENDBRANCH   1   3
BRANCH   2  19
ATOM     19  O   UNL     1      -1.045  10.425  17.191  0.00  0.00    +0.000 OA
ATOM     20  H   UNL     1      -1.819   9.818  17.200  0.00  0.00    +0.000 HD
ENDBRANCH   2  19
BRANCH   2  21
ATOM     21  C   UNL     1      -1.885  11.443  19.180  0.00  0.00    +0.000 C 
ATOM     22  C   UNL     1      -1.812  12.016  20.394  0.00  0.00    +0.000 C 
BRANCH  22  23
ATOM     23  C   UNL     1      -2.948  12.629  21.105  0.00  0.00    +0.000 A 
ATOM     24  C   UNL     1      -2.773  13.004  22.438  0.00  0.00    +0.000 A 
ATOM     25  C   UNL     1      -3.814  13.591  23.166  0.00  0.00    +0.000 A 
ATOM     26  C   UNL     1      -5.075  13.791  22.560  0.00  0.00    +0.000 A 
ATOM     27  C   UNL     1      -5.262  13.418  21.213  0.00  0.00    +0.000 A 
ATOM     28  C   UNL     1      -4.185  12.871  20.497  0.00  0.00    +0.000 A 
BRANCH  25  29
ATOM     29  O   UNL     1      -3.682  13.972  24.482  0.00  0.00    +0.000 OA
ATOM     30  C   UNL     1      -2.549  14.775  24.795  0.00  0.00    +0.000 C 
ENDBRANCH  25  29
BRANCH  26  31
ATOM     31  O   UNL     1      -6.050  14.291  23.393  0.00  0.00    +0.000 OA
ATOM     32  C   UNL     1      -6.966  13.360  23.960  0.00  0.00    +0.000 C 
ENDBRANCH  26  31
BRANCH  27  33
ATOM     33  O   UNL     1      -6.508  13.579  20.663  0.00  0.00    +0.000 OA
ATOM     34  C   UNL     1      -6.700  14.627  19.722  0.00  0.00    +0.000 C 
ENDBRANCH  27  33
ENDBRANCH  22  23
ENDBRANCH   2  21
TORSDOF 12
ENDMDL
MODEL 6
REMARK VINA RESULT:      -6.8      1.268     11.786
REMARK  Name = 
REMARK  18 active torsions:
REMARK  status: ('A' for Active; 'I' for Inactive)
REMARK    1  A    between atoms: C_1  and  O_2
REMARK    2  A    between atoms: O_2  and  C_3
REMARK    3  A    between atoms: C_5  and  C_6
REMARK    4  A    between atoms: C_7  and  C_8
REMARK    5  A    between atoms: C_8  and  C_10
REMARK    6  A    between atoms: C_11  and  O_12
REMARK    7  A    between atoms: C_11  and  C_13
REMARK    8  A    between atoms: C_14  and  C_15
REMARK    9  A    between atoms: C_17  and  O_18
REMARK   10  A    between atoms: O_18  and  C_19
REMARK   11  A    between atoms: C_20  and  O_21
REMARK   12  A    between atoms: O_21  and  C_22
REMARK   13  A    between atoms: C_23  and  O_24
REMARK   14  A    between atoms: O_24  and  C_25
REMARK   15  A    between atoms: C_28  and  O_29
REMARK   16  A    between atoms: O_29  and  C_30
REMARK   17  A    between atoms: C_31  and  O_32
REMARK   18  A    between atoms: O_32  and  C_33
REMARK                            x       y       z     vdW  Elec       q    Type
REMARK                         _______ _______ _______ _____ _____    ______ ____
ROOT
ATOM      1  C   UNL     1       0.344  10.241  19.177  0.00  0.00    +0.000 C 
ATOM      2  C   UNL     1       1.239   9.791  18.282  0.00  0.00    +0.000 C 
ENDROOT
BRANCH   1   3
ATOM      3  C   UNL     1       0.040  11.684  19.322  0.00  0.00    +0.000 C 
ATOM      4  O   UNL     1       0.683  12.541  18.724  0.00  0.00    +0.000 OA
BRANCH   3   6
ATOM      5  C   UNL     1      -2.037  12.883  19.796  0.00  0.00    +0.000 C 
ATOM      6  C   UNL     1      -1.120  12.000  20.206  0.00  0.00    +0.000 C 
BRANCH   5   9
ATOM      7  C   UNL     1      -5.527  12.486  21.173  0.00  0.00    +0.000 A 
ATOM      8  C   UNL     1      -4.391  12.370  20.349  0.00  0.00    +0.000 A 
ATOM      9  C   UNL     1      -3.285  13.202  20.512  0.00  0.00    +0.000 A 
ATOM     10  C   UNL     1      -3.366  14.217  21.464  0.00  0.00    +0.000 A 
ATOM     11  C   UNL     1      -4.522  14.412  22.242  0.00  0.00    +0.000 A 
ATOM     12  C   UNL     1      -5.627  13.543  22.103  0.00  0.00    +0.000 A 
BRANCH   7  14
ATOM     13  C   UNL     1      -7.148  11.488  19.761  0.00  0.00    +0.000 C 
ATOM     14  O   UNL     1      -6.549  11.575  21.057  0.00  0.00    +0.000 OA
ENDBRANCH   7  14
BRANCH  11  15
ATOM     15  O   UNL     1      -4.362  15.476  23.097  0.00  0.00    +0.000 OA
ATOM     16  C   UNL     1      -3.770  15.272  24.370  0.00  0.00    +0.000 C 
ENDBRANCH  11  15
BRANCH  12  17
ATOM     17  O   UNL     1      -6.708  13.826  22.891  0.00  0.00    +0.000 OA
ATOM     18  C   UNL     1      -6.961  13.109  24.086  0.00  0.00    +0.000 C 
ENDBRANCH  12  17
ENDBRANCH   5   9
ENDBRANCH   3   6
ENDBRANCH   1   3
BRANCH   2  19
ATOM     19  O   UNL     1       1.946  10.612  17.429  0.00  0.00    +0.000 OA
ATOM     20  H   UNL     1       2.596  10.058  16.941  0.00  0.00    +0.000 HD
ENDBRANCH   2  19
BRANCH   2  21
ATOM     21  C   UNL     1       1.514   8.372  18.133  0.00  0.00    +0.000 C 
ATOM     22  C   UNL     1       2.712   7.792  18.320  0.00  0.00    +0.000 C 
BRANCH  22  23
ATOM     23  C   UNL     1       2.994   6.360  18.123  0.00  0.00    +0.000 A 
ATOM     24  C   UNL     1       4.324   5.953  18.010  0.00  0.00    +0.000 A 
ATOM     25  C   UNL     1       4.654   4.606  17.823  0.00  0.00    +0.000 A 
ATOM     26  C   UNL     1       3.633   3.635  17.720  0.00  0.00    +0.000 A 
ATOM     27  C   UNL     1       2.285   4.034  17.836  0.00  0.00    +0.000 A 
ATOM     28  C   UNL     1       1.988   5.387  18.067  0.00  0.00    +0.000 A 
BRANCH  25  29
ATOM     29  O   UNL     1       5.953   4.166  17.704  0.00  0.00    +0.000 OA
ATOM     30  C   UNL     1       6.644   4.555  16.521  0.00  0.00    +0.000 C 
ENDBRANCH  25  29
BRANCH  26  31
ATOM     31  O   UNL     1       4.066   2.358  17.447  0.00  0.00    +0.000 OA
ATOM     32  C   UNL     1       3.995   1.404  18.502  0.00  0.00    +0.000 C 
ENDBRANCH  26  31
BRANCH  27  33
ATOM     33  O   UNL     1       1.311   3.080  17.686  0.00  0.00    +0.000 OA
ATOM     34  C   UNL     1       0.657   2.596  18.851  0.00  0.00    +0.000 C 
ENDBRANCH  27  33
ENDBRANCH  22  23
ENDBRANCH   2  21
TORSDOF 12
ENDMDL
MODEL 7
REMARK VINA RESULT:      -6.8      1.220     11.372
REMARK  Name = 
REMARK  18 active torsions:
REMARK  status: ('A' for Active; 'I' for Inactive)
REMARK    1  A    between atoms: C_1  and  O_2
REMARK    2  A    between atoms: O_2  and  C_3
REMARK    3  A    between atoms: C_5  and  C_6
REMARK    4  A    between atoms: C_7  and  C_8
REMARK    5  A    between atoms: C_8  and  C_10
REMARK    6  A    between atoms: C_11  and  O_12
REMARK    7  A    between atoms: C_11  and  C_13
REMARK    8  A    between atoms: C_14  and  C_15
REMARK    9  A    between atoms: C_17  and  O_18
REMARK   10  A    between atoms: O_18  and  C_19
REMARK   11  A    between atoms: C_20  and  O_21
REMARK   12  A    between atoms: O_21  and  C_22
REMARK   13  A    between atoms: C_23  and  O_24
REMARK   14  A    between atoms: O_24  and  C_25
REMARK   15  A    between atoms: C_28  and  O_29
REMARK   16  A    between atoms: O_29  and  C_30
REMARK   17  A    between atoms: C_31  and  O_32
REMARK   18  A    between atoms: O_32  and  C_33
REMARK                            x       y       z     vdW  Elec       q    Type
REMARK                         _______ _______ _______ _____ _____    ______ ____
ROOT
ATOM      1  C   UNL     1       0.412  10.704  18.723  0.00  0.00    +0.000 C 
ATOM      2  C   UNL     1       1.587  10.490  18.107  0.00  0.00    +0.000 C 
ENDROOT
BRANCH   1   3
ATOM      3  C   UNL     1      -0.198  12.052  18.799  0.00  0.00    +0.000 C 
ATOM      4  O   UNL     1       0.446  13.066  18.547  0.00  0.00    +0.000 OA
BRANCH   3   6
ATOM      5  C   UNL     1      -2.024  12.578  20.337  0.00  0.00    +0.000 C 
ATOM      6  C   UNL     1      -1.647  12.071  19.158  0.00  0.00    +0.000 C 
BRANCH   5   9
ATOM      7  C   UNL     1      -5.773  12.175  20.465  0.00  0.00    +0.000 A 
ATOM      8  C   UNL     1      -4.447  12.232  19.993  0.00  0.00    +0.000 A 
ATOM      9  C   UNL     1      -3.420  12.765  20.770  0.00  0.00    +0.000 A 
ATOM     10  C   UNL     1      -3.755  13.322  22.003  0.00  0.00    +0.000 A 
ATOM     11  C   UNL     1      -5.085  13.358  22.462  0.00  0.00    +0.000 A 
ATOM     12  C   UNL     1      -6.119  12.782  21.691  0.00  0.00    +0.000 A 
BRANCH   7  14
ATOM     13  C   UNL     1      -7.162  12.241  18.546  0.00  0.00    +0.000 C 
ATOM     14  O   UNL     1      -6.736  11.541  19.718  0.00  0.00    +0.000 OA
ENDBRANCH   7  14
BRANCH  11  15
ATOM     15  O   UNL     1      -5.161  13.964  23.694  0.00  0.00    +0.000 OA
ATOM     16  C   UNL     1      -4.271  15.021  24.013  0.00  0.00    +0.000 C 
ENDBRANCH  11  15
BRANCH  12  17
ATOM     17  O   UNL     1      -7.378  12.883  22.216  0.00  0.00    +0.000 OA
ATOM     18  C   UNL     1      -7.915  11.874  23.052  0.00  0.00    +0.000 C 
ENDBRANCH  12  17
ENDBRANCH   5   9
ENDBRANCH   3   6
ENDBRANCH   1   3
BRANCH   2  19
ATOM     19  O   UNL     1       2.322  11.485  17.497  0.00  0.00    +0.000 OA
ATOM     20  H   UNL     1       3.208  11.120  17.279  0.00  0.00    +0.000 HD
ENDBRANCH   2  19
BRANCH   2  21
ATOM     21  C   UNL     1       2.166   9.161  18.018  0.00  0.00    +0.000 C 
ATOM     22  C   UNL     1       1.930   8.156  18.878  0.00  0.00    +0.000 C 
BRANCH  22  23
ATOM     23  C   UNL     1       2.555   6.823  18.808  0.00  0.00    +0.000 A 
ATOM     24  C   UNL     1       2.244   5.890  19.798  0.00  0.00    +0.000 A 
ATOM     25  C   UNL     1       2.806   4.609  19.784  0.00  0.00    +0.000 A 
ATOM     26  C   UNL     1       3.723   4.249  18.771  0.00  0.00    +0.000 A 
ATOM     27  C   UNL     1       4.043   5.183  17.764  0.00  0.00    +0.000 A 
ATOM     28  C   UNL     1       3.429   6.446  17.781  0.00  0.00    +0.000 A 
BRANCH  25  29
ATOM     29  O   UNL     1       2.527   3.661  20.743  0.00  0.00    +0.000 OA
ATOM     30  C   UNL     1       1.150   3.368  20.957  0.00  0.00    +0.000 C 
ENDBRANCH  25  29
BRANCH  26  31
ATOM     31  O   UNL     1       4.282   2.998  18.905  0.00  0.00    +0.000 OA
ATOM     32  C   UNL     1       3.656   1.925  18.209  0.00  0.00    +0.000 C 
ENDBRANCH  26  31
BRANCH  27  33
ATOM     33  O   UNL     1       4.971   4.827  16.820  0.00  0.00    +0.000 OA
ATOM     34  C   UNL     1       6.287   5.349  16.938  0.00  0.00    +0.000 C 
ENDBRANCH  27  33
ENDBRANCH  22  23
ENDBRANCH   2  21
TORSDOF 12
ENDMDL
MODEL 8
REMARK VINA RESULT:      -6.8      1.150     11.237
REMARK  Name = 
REMARK  18 active torsions:
REMARK  status: ('A' for Active; 'I' for Inactive)
REMARK    1  A    between atoms: C_1  and  O_2
REMARK    2  A    between atoms: O_2  and  C_3
REMARK    3  A    between atoms: C_5  and  C_6
REMARK    4  A    between atoms: C_7  and  C_8
REMARK    5  A    between atoms: C_8  and  C_10
REMARK    6  A    between atoms: C_11  and  O_12
REMARK    7  A    between atoms: C_11  and  C_13
REMARK    8  A    between atoms: C_14  and  C_15
REMARK    9  A    between atoms: C_17  and  O_18
REMARK   10  A    between atoms: O_18  and  C_19
REMARK   11  A    between atoms: C_20  and  O_21
REMARK   12  A    between atoms: O_21  and  C_22
REMARK   13  A    between atoms: C_23  and  O_24
REMARK   14  A    between atoms: O_24  and  C_25
REMARK   15  A    between atoms: C_28  and  O_29
REMARK   16  A    between atoms: O_29  and  C_30
REMARK   17  A    between atoms: C_31  and  O_32
REMARK   18  A    between atoms: O_32  and  C_33
REMARK                            x       y       z     vdW  Elec       q    Type
REMARK                         _______ _______ _______ _____ _____    ______ ____
ROOT
ATOM      1  C   UNL     1       0.661  10.598  18.871  0.00  0.00    +0.000 C 
ATOM      2  C   UNL     1       1.598  10.046  18.081  0.00  0.00    +0.000 C 
ENDROOT
BRANCH   1   3
ATOM      3  C   UNL     1       0.526  12.065  19.018  0.00  0.00    +0.000 C 
ATOM      4  O   UNL     1       1.455  12.827  18.764  0.00  0.00    +0.000 OA
BRANCH   3   6
ATOM      5  C   UNL     1      -1.908  11.847  19.087  0.00  0.00    +0.000 C 
ATOM      6  C   UNL     1      -0.822  12.536  19.454  0.00  0.00    +0.000 C 
BRANCH   5   9
ATOM      7  C   UNL     1      -4.735  13.255  21.151  0.00  0.00    +0.000 A 
ATOM      8  C   UNL     1      -3.476  12.754  20.770  0.00  0.00    +0.000 A 
ATOM      9  C   UNL     1      -3.282  12.131  19.538  0.00  0.00    +0.000 A 
ATOM     10  C   UNL     1      -4.394  11.939  18.721  0.00  0.00    +0.000 A 
ATOM     11  C   UNL     1      -5.681  12.350  19.114  0.00  0.00    +0.000 A 
ATOM     12  C   UNL     1      -5.869  13.017  20.345  0.00  0.00    +0.000 A 
BRANCH   7  14
ATOM     13  C   UNL     1      -3.906  13.643  23.337  0.00  0.00    +0.000 C 
ATOM     14  O   UNL     1      -4.862  13.963  22.321  0.00  0.00    +0.000 OA
ENDBRANCH   7  14
BRANCH  11  15
ATOM     15  O   UNL     1      -6.609  12.043  18.148  0.00  0.00    +0.000 OA
ATOM     16  C   UNL     1      -6.802  12.923  17.052  0.00  0.00    +0.000 C 
ENDBRANCH  11  15
BRANCH  12  17
ATOM     17  O   UNL     1      -7.159  13.362  20.643  0.00  0.00    +0.000 OA
ATOM     18  C   UNL     1      -7.686  14.630  20.294  0.00  0.00    +0.000 C 
ENDBRANCH  12  17
ENDBRANCH   5   9
ENDBRANCH   3   6
ENDBRANCH   1   3
BRANCH   2  19
ATOM     19  O   UNL     1       2.506  10.780  17.346  0.00  0.00    +0.000 OA
ATOM     20  H   UNL     1       2.438  10.497  16.407  0.00  0.00    +0.000 HD
ENDBRANCH   2  19
BRANCH   2  21
ATOM     21  C   UNL     1       1.707   8.607  17.926  0.00  0.00    +0.000 C 
ATOM     22  C   UNL     1       2.297   7.776  18.803  0.00  0.00    +0.000 C 
BRANCH  22  23
ATOM     23  C   UNL     1       2.444   6.322  18.618  0.00  0.00    +0.000 A 
ATOM     24  C   UNL     1       3.341   5.862  17.652  0.00  0.00    +0.000 A 
ATOM     25  C   UNL     1       3.524   4.492  17.430  0.00  0.00    +0.000 A 
ATOM     26  C   UNL     1       2.777   3.550  18.173  0.00  0.00    +0.000 A 
ATOM     27  C   UNL     1       1.871   4.004  19.154  0.00  0.00    +0.000 A 
ATOM     28  C   UNL     1       1.742   5.383  19.382  0.00  0.00    +0.000 A 
BRANCH  25  29
ATOM     29  O   UNL     1       4.395   3.999  16.486  0.00  0.00    +0.000 OA
ATOM     30  C   UNL     1       5.427   4.883  16.058  0.00  0.00    +0.000 C 
ENDBRANCH  25  29
BRANCH  26  31
ATOM     31  O   UNL     1       2.971   2.236  17.812  0.00  0.00    +0.000 OA
ATOM     32  C   UNL     1       3.819   1.448  18.641  0.00  0.00    +0.000 C 
ENDBRANCH  26  31
BRANCH  27  33
ATOM     33  O   UNL     1       1.125   3.071  19.828  0.00  0.00    +0.000 OA
ATOM     34  C   UNL     1       1.393   2.862  21.208  0.00  0.00    +0.000 C 
ENDBRANCH  27  33
ENDBRANCH  22  23
ENDBRANCH   2  21
TORSDOF 12
ENDMDL
MODEL 9
REMARK VINA RESULT:      -6.7      2.345     10.955
REMARK  Name = 
REMARK  18 active torsions:
REMARK  status: ('A' for Active; 'I' for Inactive)
REMARK    1  A    between atoms: C_1  and  O_2
REMARK    2  A    between atoms: O_2  and  C_3
REMARK    3  A    between atoms: C_5  and  C_6
REMARK    4  A    between atoms: C_7  and  C_8
REMARK    5  A    between atoms: C_8  and  C_10
REMARK    6  A    between atoms: C_11  and  O_12
REMARK    7  A    between atoms: C_11  and  C_13
REMARK    8  A    between atoms: C_14  and  C_15
REMARK    9  A    between atoms: C_17  and  O_18
REMARK   10  A    between atoms: O_18  and  C_19
REMARK   11  A    between atoms: C_20  and  O_21
REMARK   12  A    between atoms: O_21  and  C_22
REMARK   13  A    between atoms: C_23  and  O_24
REMARK   14  A    between atoms: O_24  and  C_25
REMARK   15  A    between atoms: C_28  and  O_29
REMARK   16  A    between atoms: O_29  and  C_30
REMARK   17  A    between atoms: C_31  and  O_32
REMARK   18  A    between atoms: O_32  and  C_33
REMARK                            x       y       z     vdW  Elec       q    Type
REMARK                         _______ _______ _______ _____ _____    ______ ____
ROOT
ATOM      1  C   UNL     1       1.159  10.180  20.142  0.00  0.00    +0.000 C 
ATOM      2  C   UNL     1       1.609   9.697  18.971  0.00  0.00    +0.000 C 
ENDROOT
BRANCH   1   3
ATOM      3  C   UNL     1       0.714  11.585  20.290  0.00  0.00    +0.000 C 
ATOM      4  O   UNL     1       1.299  12.373  21.027  0.00  0.00    +0.000 OA
BRANCH   3   6
ATOM      5  C   UNL     1      -1.641  11.381  19.666  0.00  0.00    +0.000 C 
ATOM      6  C   UNL     1      -0.459  11.968  19.450  0.00  0.00    +0.000 C 
BRANCH   5   9
ATOM      7  C   UNL     1      -4.335  11.505  17.027  0.00  0.00    +0.000 A 
ATOM      8  C   UNL     1      -3.079  11.396  17.655  0.00  0.00    +0.000 A 
ATOM      9  C   UNL     1      -2.901  11.742  18.994  0.00  0.00    +0.000 A 
ATOM     10  C   UNL     1      -3.988  12.284  19.677  0.00  0.00    +0.000 A 
ATOM     11  C   UNL     1      -5.231  12.488  19.050  0.00  0.00    +0.000 A 
ATOM     12  C   UNL     1      -5.421  12.099  17.705  0.00  0.00    +0.000 A 
BRANCH   7  14
ATOM     13  C   UNL     1      -3.303  10.585  15.102  0.00  0.00    +0.000 C 
ATOM     14  O   UNL     1      -4.496  11.048  15.741  0.00  0.00    +0.000 OA
ENDBRANCH   7  14
BRANCH  11  15
ATOM     15  O   UNL     1      -6.136  13.041  19.924  0.00  0.00    +0.000 OA
ATOM     16  C   UNL     1      -6.508  12.331  21.094  0.00  0.00    +0.000 C 
ENDBRANCH  11  15
BRANCH  12  17
ATOM     17  O   UNL     1      -6.659  12.353  17.182  0.00  0.00    +0.000 OA
ATOM     18  C   UNL     1      -7.025  13.649  16.742  0.00  0.00    +0.000 C 
ENDBRANCH  12  17
ENDBRANCH   5   9
ENDBRANCH   3   6
ENDBRANCH   1   3
BRANCH   2  19
ATOM     19  O   UNL     1       1.696  10.448  17.818  0.00  0.00    +0.000 OA
ATOM     20  H   UNL     1       0.816  10.438  17.380  0.00  0.00    +0.000 HD
ENDBRANCH   2  19
BRANCH   2  21
ATOM     21  C   UNL     1       2.022   8.312  18.831  0.00  0.00    +0.000 C 
ATOM     22  C   UNL     1       2.276   7.473  19.850  0.00  0.00    +0.000 C 
BRANCH  22  23
ATOM     23  C   UNL     1       2.738   6.082  19.701  0.00  0.00    +0.000 A 
ATOM     24  C   UNL     1       1.821   5.051  19.912  0.00  0.00    +0.000 A 
ATOM     25  C   UNL     1       2.200   3.710  19.784  0.00  0.00    +0.000 A 
ATOM     26  C   UNL     1       3.536   3.381  19.460  0.00  0.00    +0.000 A 
ATOM     27  C   UNL     1       4.470   4.415  19.242  0.00  0.00    +0.000 A 
ATOM     28  C   UNL     1       4.048   5.751  19.335  0.00  0.00    +0.000 A 
BRANCH  25  29
ATOM     29  O   UNL     1       1.328   2.665  19.987  0.00  0.00    +0.000 OA
ATOM     30  C   UNL     1       0.511   2.302  18.878  0.00  0.00    +0.000 C 
ENDBRANCH  25  29
BRANCH  26  31
ATOM     31  O   UNL     1       3.819   2.034  19.449  0.00  0.00    +0.000 OA
ATOM     32  C   UNL     1       3.825   1.378  18.185  0.00  0.00    +0.000 C 
ENDBRANCH  26  31
BRANCH  27  33
ATOM     33  O   UNL     1       5.770   4.068  18.976  0.00  0.00    +0.000 OA
ATOM     34  C   UNL     1       6.718   5.109  18.783  0.00  0.00    +0.000 C 
ENDBRANCH  27  33
ENDBRANCH  22  23
ENDBRANCH   2  21
TORSDOF 12
ENDMDL
