MODEL 1
REMARK VINA RESULT:      -7.0      0.000      0.000
REMARK  Name = 
REMARK  11 active torsions:
REMARK  status: ('A' for Active; 'I' for Inactive)
REMARK    1  A    between atoms: C_1  and  C_2
REMARK    2  A    between atoms: C_4  and  C_5
REMARK    3  A    between atoms: C_5  and  C_7
REMARK    4  A    between atoms: C_7  and  S_8
REMARK    5  A    between atoms: S_8  and  C_9
REMARK    6  A    between atoms: C_17  and  C_18
REMARK    7  A    between atoms: C_19  and  O_20
REMARK    8  A    between atoms: O_20  and  C_21
REMARK    9  A    between atoms: C_21  and  N_23
REMARK   10  A    between atoms: N_23  and  C_24
REMARK   11  A    between atoms: N_23  and  C_25
REMARK                            x       y       z     vdW  Elec       q    Type
REMARK                         _______ _______ _______ _____ _____    ______ ____
ROOT
ATOM      1  C   UNL     1       3.277   7.665  17.429  0.00  0.00    +0.000 C 
ATOM      2  C   UNL     1       2.593   7.323  18.715  0.00  0.00    +0.000 A 
ATOM      3  C   UNL     1       1.938   8.364  19.399  0.00  0.00    +0.000 A 
ATOM      4  C   UNL     1       1.243   8.143  20.591  0.00  0.00    +0.000 A 
ATOM      5  C   UNL     1       1.198   6.852  21.131  0.00  0.00    +0.000 A 
ATOM      6  C   UNL     1       1.848   5.785  20.478  0.00  0.00    +0.000 A 
ATOM      7  C   UNL     1       1.737   4.398  21.050  0.00  0.00    +0.000 C 
ATOM      8  C   UNL     1       2.559   6.037  19.282  0.00  0.00    +0.000 A 
ENDROOT
BRANCH   4   9
ATOM      9  C   UNL     1       0.528   9.307  21.194  0.00  0.00    +0.000 C 
ATOM     10  O   UNL     1      -0.200   9.106  22.167  0.00  0.00    +0.000 OA
BRANCH   9  11
ATOM     11  C   UNL     1       0.712  10.703  20.637  0.00  0.00    +0.000 C 
BRANCH  11  12
ATOM     12  S   UNL     1      -0.866  11.610  20.673  0.00  0.00    +0.000 S 
BRANCH  12  13
ATOM     13  C   UNL     1      -1.625  11.123  19.130  0.00  0.00    +0.000 A 
ATOM     14  C   UNL     1      -2.823  11.756  18.779  0.00  0.00    +0.000 A 
ATOM     15  C   UNL     1      -3.453  11.472  17.563  0.00  0.00    +0.000 A 
ATOM     16  C   UNL     1      -2.876  10.555  16.687  0.00  0.00    +0.000 A 
ATOM     17 CL   UNL     1      -3.634  10.217  15.181  0.00  0.00    +0.000 Cl
ATOM     18  C   UNL     1      -1.681   9.922  17.021  0.00  0.00    +0.000 A 
ATOM     19  C   UNL     1      -1.053  10.210  18.240  0.00  0.00    +0.000 A 
ENDBRANCH  12  13
ENDBRANCH  11  12
ENDBRANCH   9  11
ENDBRANCH   4   9
BRANCH   8  20
ATOM     20  O   UNL     1       3.068   4.888  18.565  0.00  0.00    +0.000 OA
BRANCH  20  21
ATOM     21  C   UNL     1       4.240   4.086  18.595  0.00  0.00    +0.000 C 
ATOM     22  S   UNL     1       5.731   4.782  18.313  0.00  0.00    +0.000 S 
BRANCH  21  23
ATOM     23  N   UNL     1       3.996   2.749  18.924  0.00  0.00    +0.000 N 
ATOM     24  C   UNL     1       4.547   2.155  20.138  0.00  0.00    +0.000 C 
ATOM     25  C   UNL     1       3.408   1.775  17.996  0.00  0.00    +0.000 C 
ENDBRANCH  21  23
ENDBRANCH  20  21
ENDBRANCH   8  20
TORSDOF 7
ENDMDL
MODEL 2
REMARK VINA RESULT:      -6.8      3.795      7.743
REMARK  Name = 
REMARK  11 active torsions:
REMARK  status: ('A' for Active; 'I' for Inactive)
REMARK    1  A    between atoms: C_1  and  C_2
REMARK    2  A    between atoms: C_4  and  C_5
REMARK    3  A    between atoms: C_5  and  C_7
REMARK    4  A    between atoms: C_7  and  S_8
REMARK    5  A    between atoms: S_8  and  C_9
REMARK    6  A    between atoms: C_17  and  C_18
REMARK    7  A    between atoms: C_19  and  O_20
REMARK    8  A    between atoms: O_20  and  C_21
REMARK    9  A    between atoms: C_21  and  N_23
REMARK   10  A    between atoms: N_23  and  C_24
REMARK   11  A    between atoms: N_23  and  C_25
REMARK                            x       y       z     vdW  Elec       q    Type
REMARK                         _______ _______ _______ _____ _____    ______ ____
ROOT
ATOM      1  C   UNL     1       2.918   8.214  17.606  0.00  0.00    +0.000 C 
ATOM      2  C   UNL     1       2.256   7.748  18.863  0.00  0.00    +0.000 A 
ATOM      3  C   UNL     1       2.283   6.368  19.139  0.00  0.00    +0.000 A 
ATOM      4  C   UNL     1       1.721   5.835  20.302  0.00  0.00    +0.000 A 
ATOM      5  C   UNL     1       1.106   6.691  21.222  0.00  0.00    +0.000 A 
ATOM      6  C   UNL     1       1.052   8.079  20.978  0.00  0.00    +0.000 A 
ATOM      7  C   UNL     1       0.434   8.983  22.009  0.00  0.00    +0.000 C 
ATOM      8  C   UNL     1       1.613   8.592  19.785  0.00  0.00    +0.000 A 
ENDROOT
BRANCH   4   9
ATOM      9  C   UNL     1       1.868   4.366  20.524  0.00  0.00    +0.000 C 
ATOM     10  O   UNL     1       2.318   3.980  21.604  0.00  0.00    +0.000 OA
BRANCH   9  11
ATOM     11  C   UNL     1       1.452   3.375  19.457  0.00  0.00    +0.000 C 
BRANCH  11  12
ATOM     12  S   UNL     1       2.858   2.313  18.999  0.00  0.00    +0.000 S 
BRANCH  12  13
ATOM     13  C   UNL     1       4.079   3.501  18.462  0.00  0.00    +0.000 A 
ATOM     14  C   UNL     1       3.950   4.011  17.166  0.00  0.00    +0.000 A 
ATOM     15  C   UNL     1       4.831   4.986  16.688  0.00  0.00    +0.000 A 
ATOM     16  C   UNL     1       5.846   5.461  17.516  0.00  0.00    +0.000 A 
ATOM     17 CL   UNL     1       6.921   6.674  16.943  0.00  0.00    +0.000 Cl
ATOM     18  C   UNL     1       5.984   4.966  18.811  0.00  0.00    +0.000 A 
ATOM     19  C   UNL     1       5.098   3.991  19.286  0.00  0.00    +0.000 A 
ENDBRANCH  12  13
ENDBRANCH  11  12
ENDBRANCH   9  11
ENDBRANCH   4   9
BRANCH   8  20
ATOM     20  O   UNL     1       1.680  10.032  19.656  0.00  0.00    +0.000 OA
BRANCH  20  21
ATOM     21  C   UNL     1       0.850  11.065  19.145  0.00  0.00    +0.000 C 
ATOM     22  S   UNL     1      -0.657  10.691  18.529  0.00  0.00    +0.000 S 
BRANCH  21  23
ATOM     23  N   UNL     1       1.402  12.343  19.272  0.00  0.00    +0.000 N 
ATOM     24  C   UNL     1       1.004  13.236  20.355  0.00  0.00    +0.000 C 
ATOM     25  C   UNL     1       2.206  12.990  18.228  0.00  0.00    +0.000 C 
ENDBRANCH  21  23
ENDBRANCH  20  21
ENDBRANCH   8  20
TORSDOF 7
ENDMDL
MODEL 3
REMARK VINA RESULT:      -6.8      3.832      7.806
REMARK  Name = 
REMARK  11 active torsions:
REMARK  status: ('A' for Active; 'I' for Inactive)
REMARK    1  A    between atoms: C_1  and  C_2
REMARK    2  A    between atoms: C_4  and  C_5
REMARK    3  A    between atoms: C_5  and  C_7
REMARK    4  A    between atoms: C_7  and  S_8
REMARK    5  A    between atoms: S_8  and  C_9
REMARK    6  A    between atoms: C_17  and  C_18
REMARK    7  A    between atoms: C_19  and  O_20
REMARK    8  A    between atoms: O_20  and  C_21
REMARK    9  A    between atoms: C_21  and  N_23
REMARK   10  A    between atoms: N_23  and  C_24
REMARK   11  A    between atoms: N_23  and  C_25
REMARK                            x       y       z     vdW  Elec       q    Type
REMARK                         _______ _______ _______ _____ _____    ______ ____
ROOT
ATOM      1  C   UNL     1       3.007   8.007  17.479  0.00  0.00    +0.000 C 
ATOM      2  C   UNL     1       2.330   7.621  18.755  0.00  0.00    +0.000 A 
ATOM      3  C   UNL     1       2.339   6.259  19.109  0.00  0.00    +0.000 A 
ATOM      4  C   UNL     1       1.762   5.799  20.295  0.00  0.00    +0.000 A 
ATOM      5  C   UNL     1       1.148   6.712  21.160  0.00  0.00    +0.000 A 
ATOM      6  C   UNL     1       1.111   8.084  20.837  0.00  0.00    +0.000 A 
ATOM      7  C   UNL     1       0.496   9.052  21.810  0.00  0.00    +0.000 C 
ATOM      8  C   UNL     1       1.688   8.522  19.622  0.00  0.00    +0.000 A 
ENDROOT
BRANCH   4   9
ATOM      9  C   UNL     1       1.892   4.343  20.602  0.00  0.00    +0.000 C 
ATOM     10  O   UNL     1       2.340   4.014  21.701  0.00  0.00    +0.000 OA
BRANCH   9  11
ATOM     11  C   UNL     1       1.459   3.297  19.596  0.00  0.00    +0.000 C 
BRANCH  11  12
ATOM     12  S   UNL     1       2.861   2.220  19.162  0.00  0.00    +0.000 S 
BRANCH  12  13
ATOM     13  C   UNL     1       3.988   3.356  18.369  0.00  0.00    +0.000 A 
ATOM     14  C   UNL     1       5.042   3.857  19.142  0.00  0.00    +0.000 A 
ATOM     15  C   UNL     1       5.999   4.708  18.581  0.00  0.00    +0.000 A 
ATOM     16  C   UNL     1       5.909   5.054  17.235  0.00  0.00    +0.000 A 
ATOM     17 CL   UNL     1       7.094   6.083  16.533  0.00  0.00    +0.000 Cl
ATOM     18  C   UNL     1       4.869   4.558  16.452  0.00  0.00    +0.000 A 
ATOM     19  C   UNL     1       3.912   3.705  17.017  0.00  0.00    +0.000 A 
ENDBRANCH  12  13
ENDBRANCH  11  12
ENDBRANCH   9  11
ENDBRANCH   4   9
BRANCH   8  20
ATOM     20  O   UNL     1       1.772   9.952  19.412  0.00  0.00    +0.000 OA
BRANCH  20  21
ATOM     21  C   UNL     1       0.883  10.998  19.048  0.00  0.00    +0.000 C 
ATOM     22  S   UNL     1      -0.632  10.630  18.449  0.00  0.00    +0.000 S 
BRANCH  21  23
ATOM     23  N   UNL     1       1.392  12.277  19.294  0.00  0.00    +0.000 N 
ATOM     24  C   UNL     1       2.349  12.899  18.386  0.00  0.00    +0.000 C 
ATOM     25  C   UNL     1       1.226  12.989  20.567  0.00  0.00    +0.000 C 
ENDBRANCH  21  23
ENDBRANCH  20  21
ENDBRANCH   8  20
TORSDOF 7
ENDMDL
MODEL 4
REMARK VINA RESULT:      -6.8      3.875      8.266
REMARK  Name = 
REMARK  11 active torsions:
REMARK  status: ('A' for Active; 'I' for Inactive)
REMARK    1  A    between atoms: C_1  and  C_2
REMARK    2  A    between atoms: C_4  and  C_5
REMARK    3  A    between atoms: C_5  and  C_7
REMARK    4  A    between atoms: C_7  and  S_8
REMARK    5  A    between atoms: S_8  and  C_9
REMARK    6  A    between atoms: C_17  and  C_18
REMARK    7  A    between atoms: C_19  and  O_20
REMARK    8  A    between atoms: O_20  and  C_21
REMARK    9  A    between atoms: C_21  and  N_23
REMARK   10  A    between atoms: N_23  and  C_24
REMARK   11  A    between atoms: N_23  and  C_25
REMARK                            x       y       z     vdW  Elec       q    Type
REMARK                         _______ _______ _______ _____ _____    ______ ____
ROOT
ATOM      1  C   UNL     1      -0.075   8.646  22.296  0.00  0.00    +0.000 C 
ATOM      2  C   UNL     1       0.759   8.316  21.099  0.00  0.00    +0.000 A 
ATOM      3  C   UNL     1       1.287   7.015  21.014  0.00  0.00    +0.000 A 
ATOM      4  C   UNL     1       2.052   6.597  19.921  0.00  0.00    +0.000 A 
ATOM      5  C   UNL     1       2.311   7.496  18.880  0.00  0.00    +0.000 A 
ATOM      6  C   UNL     1       1.805   8.811  18.933  0.00  0.00    +0.000 A 
ATOM      7  C   UNL     1       2.051   9.739  17.775  0.00  0.00    +0.000 C 
ATOM      8  C   UNL     1       1.048   9.214  20.057  0.00  0.00    +0.000 A 
ENDROOT
BRANCH   4   9
ATOM      9  C   UNL     1       2.503   5.174  19.903  0.00  0.00    +0.000 C 
ATOM     10  O   UNL     1       2.485   4.540  20.960  0.00  0.00    +0.000 OA
BRANCH   9  11
ATOM     11  C   UNL     1       2.949   4.518  18.613  0.00  0.00    +0.000 C 
BRANCH  11  12
ATOM     12  S   UNL     1       4.565   3.712  18.839  0.00  0.00    +0.000 S 
BRANCH  12  13
ATOM     13  C   UNL     1       5.709   5.031  18.458  0.00  0.00    +0.000 A 
ATOM     14  C   UNL     1       5.292   5.992  17.530  0.00  0.00    +0.000 A 
ATOM     15  C   UNL     1       6.105   7.086  17.219  0.00  0.00    +0.000 A 
ATOM     16  C   UNL     1       7.341   7.226  17.844  0.00  0.00    +0.000 A 
ATOM     17 CL   UNL     1       8.337   8.579  17.481  0.00  0.00    +0.000 Cl
ATOM     18  C   UNL     1       7.767   6.279  18.774  0.00  0.00    +0.000 A 
ATOM     19  C   UNL     1       6.950   5.185  19.084  0.00  0.00    +0.000 A 
ENDBRANCH  12  13
ENDBRANCH  11  12
ENDBRANCH   9  11
ENDBRANCH   4   9
BRANCH   8  20
ATOM     20  O   UNL     1       0.414  10.514  19.991  0.00  0.00    +0.000 OA
BRANCH  20  21
ATOM     21  C   UNL     1      -0.878  11.021  19.691  0.00  0.00    +0.000 C 
ATOM     22  S   UNL     1      -1.683  10.487  18.328  0.00  0.00    +0.000 S 
BRANCH  21  23
ATOM     23  N   UNL     1      -1.367  11.915  20.648  0.00  0.00    +0.000 N 
ATOM     24  C   UNL     1      -2.166  13.073  20.263  0.00  0.00    +0.000 C 
ATOM     25  C   UNL     1      -0.928  11.930  22.048  0.00  0.00    +0.000 C 
ENDBRANCH  21  23
ENDBRANCH  20  21
ENDBRANCH   8  20
TORSDOF 7
ENDMDL
MODEL 5
REMARK VINA RESULT:      -6.8      3.521      7.971
REMARK  Name = 
REMARK  11 active torsions:
REMARK  status: ('A' for Active; 'I' for Inactive)
REMARK    1  A    between atoms: C_1  and  C_2
REMARK    2  A    between atoms: C_4  and  C_5
REMARK    3  A    between atoms: C_5  and  C_7
REMARK    4  A    between atoms: C_7  and  S_8
REMARK    5  A    between atoms: S_8  and  C_9
REMARK    6  A    between atoms: C_17  and  C_18
REMARK    7  A    between atoms: C_19  and  O_20
REMARK    8  A    between atoms: O_20  and  C_21
REMARK    9  A    between atoms: C_21  and  N_23
REMARK   10  A    between atoms: N_23  and  C_24
REMARK   11  A    between atoms: N_23  and  C_25
REMARK                            x       y       z     vdW  Elec       q    Type
REMARK                         _______ _______ _______ _____ _____    ______ ____
ROOT
ATOM      1  C   UNL     1       1.756   6.108  20.627  0.00  0.00    +0.000 C 
ATOM      2  C   UNL     1       2.286   6.957  19.515  0.00  0.00    +0.000 A 
ATOM      3  C   UNL     1       3.280   6.400  18.690  0.00  0.00    +0.000 A 
ATOM      4  C   UNL     1       3.818   7.098  17.605  0.00  0.00    +0.000 A 
ATOM      5  C   UNL     1       3.364   8.393  17.329  0.00  0.00    +0.000 A 
ATOM      6  C   UNL     1       2.374   8.988  18.138  0.00  0.00    +0.000 A 
ATOM      7  C   UNL     1       1.864  10.359  17.786  0.00  0.00    +0.000 C 
ATOM      8  C   UNL     1       1.858   8.267  19.239  0.00  0.00    +0.000 A 
ENDROOT
BRANCH   4   9
ATOM      9  C   UNL     1       4.817   6.384  16.756  0.00  0.00    +0.000 C 
ATOM     10  O   UNL     1       5.043   6.820  15.627  0.00  0.00    +0.000 OA
BRANCH   9  11
ATOM     11  C   UNL     1       5.551   5.168  17.280  0.00  0.00    +0.000 C 
BRANCH  11  12
ATOM     12  S   UNL     1       4.750   3.643  16.691  0.00  0.00    +0.000 S 
BRANCH  12  13
ATOM     13  C   UNL     1       3.707   3.198  18.072  0.00  0.00    +0.000 A 
ATOM     14  C   UNL     1       4.318   3.088  19.326  0.00  0.00    +0.000 A 
ATOM     15  C   UNL     1       3.563   2.798  20.467  0.00  0.00    +0.000 A 
ATOM     16  C   UNL     1       2.186   2.624  20.355  0.00  0.00    +0.000 A 
ATOM     17 CL   UNL     1       1.249   2.287  21.757  0.00  0.00    +0.000 Cl
ATOM     18  C   UNL     1       1.563   2.736  19.114  0.00  0.00    +0.000 A 
ATOM     19  C   UNL     1       2.322   3.027  17.973  0.00  0.00    +0.000 A 
ENDBRANCH  12  13
ENDBRANCH  11  12
ENDBRANCH   9  11
ENDBRANCH   4   9
BRANCH   8  20
ATOM     20  O   UNL     1       0.733   8.850  19.939  0.00  0.00    +0.000 OA
BRANCH  20  21
ATOM     21  C   UNL     1       0.539   9.696  21.062  0.00  0.00    +0.000 C 
ATOM     22  S   UNL     1       1.204   9.283  22.538  0.00  0.00    +0.000 S 
BRANCH  21  23
ATOM     23  N   UNL     1      -0.181  10.860  20.771  0.00  0.00    +0.000 N 
ATOM     24  C   UNL     1      -0.236  11.971  21.714  0.00  0.00    +0.000 C 
ATOM     25  C   UNL     1      -1.128  10.974  19.656  0.00  0.00    +0.000 C 
ENDBRANCH  21  23
ENDBRANCH  20  21
ENDBRANCH   8  20
TORSDOF 7
ENDMDL
MODEL 6
REMARK VINA RESULT:      -6.7      3.825      8.117
REMARK  Name = 
REMARK  11 active torsions:
REMARK  status: ('A' for Active; 'I' for Inactive)
REMARK    1  A    between atoms: C_1  and  C_2
REMARK    2  A    between atoms: C_4  and  C_5
REMARK    3  A    between atoms: C_5  and  C_7
REMARK    4  A    between atoms: C_7  and  S_8
REMARK    5  A    between atoms: S_8  and  C_9
REMARK    6  A    between atoms: C_17  and  C_18
REMARK    7  A    between atoms: C_19  and  O_20
REMARK    8  A    between atoms: O_20  and  C_21
REMARK    9  A    between atoms: C_21  and  N_23
REMARK   10  A    between atoms: N_23  and  C_24
REMARK   11  A    between atoms: N_23  and  C_25
REMARK                            x       y       z     vdW  Elec       q    Type
REMARK                         _______ _______ _______ _____ _____    ______ ____
ROOT
ATOM      1  C   UNL     1       0.630   8.927  22.316  0.00  0.00    +0.000 C 
ATOM      2  C   UNL     1       1.209   8.355  21.062  0.00  0.00    +0.000 A 
ATOM      3  C   UNL     1       1.509   6.980  21.053  0.00  0.00    +0.000 A 
ATOM      4  C   UNL     1       2.023   6.342  19.921  0.00  0.00    +0.000 A 
ATOM      5  C   UNL     1       2.257   7.087  18.760  0.00  0.00    +0.000 A 
ATOM      6  C   UNL     1       1.977   8.469  18.732  0.00  0.00    +0.000 A 
ATOM      7  C   UNL     1       2.185   9.235  17.454  0.00  0.00    +0.000 C 
ATOM      8  C   UNL     1       1.473   9.094  19.896  0.00  0.00    +0.000 A 
ENDROOT
BRANCH   4   9
ATOM      9  C   UNL     1       2.238   4.867  20.003  0.00  0.00    +0.000 C 
ATOM     10  O   UNL     1       2.336   4.350  21.117  0.00  0.00    +0.000 OA
BRANCH   9  11
ATOM     11  C   UNL     1       2.309   4.023  18.747  0.00  0.00    +0.000 C 
BRANCH  11  12
ATOM     12  S   UNL     1       3.951   3.253  18.595  0.00  0.00    +0.000 S 
BRANCH  12  13
ATOM     13  C   UNL     1       5.005   4.656  18.261  0.00  0.00    +0.000 A 
ATOM     14  C   UNL     1       6.128   4.822  19.080  0.00  0.00    +0.000 A 
ATOM     15  C   UNL     1       7.033   5.863  18.851  0.00  0.00    +0.000 A 
ATOM     16  C   UNL     1       6.820   6.740  17.790  0.00  0.00    +0.000 A 
ATOM     17 CL   UNL     1       7.940   8.009  17.490  0.00  0.00    +0.000 Cl
ATOM     18  C   UNL     1       5.710   6.583  16.963  0.00  0.00    +0.000 A 
ATOM     19  C   UNL     1       4.806   5.539  17.196  0.00  0.00    +0.000 A 
ENDBRANCH  12  13
ENDBRANCH  11  12
ENDBRANCH   9  11
ENDBRANCH   4   9
BRANCH   8  20
ATOM     20  O   UNL     1       1.048  10.472  19.771  0.00  0.00    +0.000 OA
BRANCH  20  21
ATOM     21  C   UNL     1      -0.078  11.164  19.251  0.00  0.00    +0.000 C 
ATOM     22  S   UNL     1      -1.340  10.305  18.571  0.00  0.00    +0.000 S 
BRANCH  21  23
ATOM     23  N   UNL     1      -0.014  12.550  19.424  0.00  0.00    +0.000 N 
ATOM     24  C   UNL     1      -0.932  13.244  20.321  0.00  0.00    +0.000 C 
ATOM     25  C   UNL     1       0.770  13.443  18.563  0.00  0.00    +0.000 C 
ENDBRANCH  21  23
ENDBRANCH  20  21
ENDBRANCH   8  20
TORSDOF 7
ENDMDL
MODEL 7
REMARK VINA RESULT:      -6.6      3.859      8.144
REMARK  Name = 
REMARK  11 active torsions:
REMARK  status: ('A' for Active; 'I' for Inactive)
REMARK    1  A    between atoms: C_1  and  C_2
REMARK    2  A    between atoms: C_4  and  C_5
REMARK    3  A    between atoms: C_5  and  C_7
REMARK    4  A    between atoms: C_7  and  S_8
REMARK    5  A    between atoms: S_8  and  C_9
REMARK    6  A    between atoms: C_17  and  C_18
REMARK    7  A    between atoms: C_19  and  O_20
REMARK    8  A    between atoms: O_20  and  C_21
REMARK    9  A    between atoms: C_21  and  N_23
REMARK   10  A    between atoms: N_23  and  C_24
REMARK   11  A    between atoms: N_23  and  C_25
REMARK                            x       y       z     vdW  Elec       q    Type
REMARK                         _______ _______ _______ _____ _____    ______ ____
ROOT
ATOM      1  C   UNL     1       2.527   8.870  17.611  0.00  0.00    +0.000 C 
ATOM      2  C   UNL     1       2.034   8.245  18.878  0.00  0.00    +0.000 A 
ATOM      3  C   UNL     1       2.328   6.885  19.088  0.00  0.00    +0.000 A 
ATOM      4  C   UNL     1       1.940   6.216  20.252  0.00  0.00    +0.000 A 
ATOM      5  C   UNL     1       1.234   6.911  21.241  0.00  0.00    +0.000 A 
ATOM      6  C   UNL     1       0.914   8.273  21.063  0.00  0.00    +0.000 A 
ATOM      7  C   UNL     1       0.203   9.010  22.164  0.00  0.00    +0.000 C 
ATOM      8  C   UNL     1       1.302   8.922  19.869  0.00  0.00    +0.000 A 
ENDROOT
BRANCH   4   9
ATOM      9  C   UNL     1       2.366   4.792  20.400  0.00  0.00    +0.000 C 
ATOM     10  O   UNL     1       2.206   4.244  21.491  0.00  0.00    +0.000 OA
BRANCH   9  11
ATOM     11  C   UNL     1       2.957   4.035  19.229  0.00  0.00    +0.000 C 
BRANCH  11  12
ATOM     12  S   UNL     1       4.755   3.844  19.442  0.00  0.00    +0.000 S 
BRANCH  12  13
ATOM     13  C   UNL     1       5.378   4.224  17.812  0.00  0.00    +0.000 A 
ATOM     14  C   UNL     1       6.733   4.558  17.706  0.00  0.00    +0.000 A 
ATOM     15  C   UNL     1       7.312   4.815  16.459  0.00  0.00    +0.000 A 
ATOM     16  C   UNL     1       6.533   4.730  15.308  0.00  0.00    +0.000 A 
ATOM     17 CL   UNL     1       7.243   5.025  13.770  0.00  0.00    +0.000 Cl
ATOM     18  C   UNL     1       5.184   4.394  15.397  0.00  0.00    +0.000 A 
ATOM     19  C   UNL     1       4.608   4.136  16.648  0.00  0.00    +0.000 A 
ENDBRANCH  12  13
ENDBRANCH  11  12
ENDBRANCH   9  11
ENDBRANCH   4   9
BRANCH   8  20
ATOM     20  O   UNL     1       1.099  10.354  19.802  0.00  0.00    +0.000 OA
BRANCH  20  21
ATOM     21  C   UNL     1       0.245  11.245  19.100  0.00  0.00    +0.000 C 
ATOM     22  S   UNL     1      -1.024  10.643  18.198  0.00  0.00    +0.000 S 
BRANCH  21  23
ATOM     23  N   UNL     1       0.557  12.594  19.299  0.00  0.00    +0.000 N 
ATOM     24  C   UNL     1      -0.185  13.410  20.254  0.00  0.00    +0.000 C 
ATOM     25  C   UNL     1       1.446  13.363  18.420  0.00  0.00    +0.000 C 
ENDBRANCH  21  23
ENDBRANCH  20  21
ENDBRANCH   8  20
TORSDOF 7
ENDMDL
MODEL 8
REMARK VINA RESULT:      -6.5      3.998      8.197
REMARK  Name = 
REMARK  11 active torsions:
REMARK  status: ('A' for Active; 'I' for Inactive)
REMARK    1  A    between atoms: C_1  and  C_2
REMARK    2  A    between atoms: C_4  and  C_5
REMARK    3  A    between atoms: C_5  and  C_7
REMARK    4  A    between atoms: C_7  and  S_8
REMARK    5  A    between atoms: S_8  and  C_9
REMARK    6  A    between atoms: C_17  and  C_18
REMARK    7  A    between atoms: C_19  and  O_20
REMARK    8  A    between atoms: O_20  and  C_21
REMARK    9  A    between atoms: C_21  and  N_23
REMARK   10  A    between atoms: N_23  and  C_24
REMARK   11  A    between atoms: N_23  and  C_25
REMARK                            x       y       z     vdW  Elec       q    Type
REMARK                         _______ _______ _______ _____ _____    ______ ____
ROOT
ATOM      1  C   UNL     1       2.025   9.680  17.630  0.00  0.00    +0.000 C 
ATOM      2  C   UNL     1       1.668   8.944  18.882  0.00  0.00    +0.000 A 
ATOM      3  C   UNL     1       2.131   7.621  19.012  0.00  0.00    +0.000 A 
ATOM      4  C   UNL     1       1.879   6.859  20.156  0.00  0.00    +0.000 A 
ATOM      5  C   UNL     1       1.139   7.417  21.205  0.00  0.00    +0.000 A 
ATOM      6  C   UNL     1       0.652   8.737  21.108  0.00  0.00    +0.000 A 
ATOM      7  C   UNL     1      -0.092   9.332  22.273  0.00  0.00    +0.000 C 
ATOM      8  C   UNL     1       0.906   9.482  19.934  0.00  0.00    +0.000 A 
ENDROOT
BRANCH   4   9
ATOM      9  C   UNL     1       2.477   5.492  20.215  0.00  0.00    +0.000 C 
ATOM     10  O   UNL     1       2.316   4.826  21.239  0.00  0.00    +0.000 OA
BRANCH   9  11
ATOM     11  C   UNL     1       3.241   4.928  19.035  0.00  0.00    +0.000 C 
BRANCH  11  12
ATOM     12  S   UNL     1       5.033   5.046  19.328  0.00  0.00    +0.000 S 
BRANCH  12  13
ATOM     13  C   UNL     1       5.701   4.948  17.674  0.00  0.00    +0.000 A 
ATOM     14  C   UNL     1       4.870   5.352  16.623  0.00  0.00    +0.000 A 
ATOM     15  C   UNL     1       5.335   5.358  15.305  0.00  0.00    +0.000 A 
ATOM     16  C   UNL     1       6.643   4.966  15.034  0.00  0.00    +0.000 A 
ATOM     17 CL   UNL     1       7.228   4.990  13.418  0.00  0.00    +0.000 Cl
ATOM     18  C   UNL     1       7.484   4.567  16.071  0.00  0.00    +0.000 A 
ATOM     19  C   UNL     1       7.015   4.562  17.391  0.00  0.00    +0.000 A 
ENDBRANCH  12  13
ENDBRANCH  11  12
ENDBRANCH   9  11
ENDBRANCH   4   9
BRANCH   8  20
ATOM     20  O   UNL     1       0.531  10.880  19.947  0.00  0.00    +0.000 OA
BRANCH  20  21
ATOM     21  C   UNL     1      -0.156  11.775  19.085  0.00  0.00    +0.000 C 
ATOM     22  S   UNL     1      -1.576  11.294  18.349  0.00  0.00    +0.000 S 
BRANCH  21  23
ATOM     23  N   UNL     1       0.445  13.034  18.988  0.00  0.00    +0.000 N 
ATOM     24  C   UNL     1      -0.337  14.258  19.121  0.00  0.00    +0.000 C 
ATOM     25  C   UNL     1       1.814  13.248  18.505  0.00  0.00    +0.000 C 
ENDBRANCH  21  23
ENDBRANCH  20  21
ENDBRANCH   8  20
TORSDOF 7
ENDMDL
MODEL 9
REMARK VINA RESULT:      -6.5      2.973      3.525
REMARK  Name = 
REMARK  11 active torsions:
REMARK  status: ('A' for Active; 'I' for Inactive)
REMARK    1  A    between atoms: C_1  and  C_2
REMARK    2  A    between atoms: C_4  and  C_5
REMARK    3  A    between atoms: C_5  and  C_7
REMARK    4  A    between atoms: C_7  and  S_8
REMARK    5  A    between atoms: S_8  and  C_9
REMARK    6  A    between atoms: C_17  and  C_18
REMARK    7  A    between atoms: C_19  and  O_20
REMARK    8  A    between atoms: O_20  and  C_21
REMARK    9  A    between atoms: C_21  and  N_23
REMARK   10  A    between atoms: N_23  and  C_24
REMARK   11  A    between atoms: N_23  and  C_25
REMARK                            x       y       z     vdW  Elec       q    Type
REMARK                         _______ _______ _______ _____ _____    ______ ____
ROOT
ATOM      1  C   UNL     1       3.379   7.360  17.457  0.00  0.00    +0.000 C 
ATOM      2  C   UNL     1       2.663   6.949  18.704  0.00  0.00    +0.000 A 
ATOM      3  C   UNL     1       2.230   7.970  19.571  0.00  0.00    +0.000 A 
ATOM      4  C   UNL     1       1.525   7.693  20.745  0.00  0.00    +0.000 A 
ATOM      5  C   UNL     1       1.242   6.364  21.079  0.00  0.00    +0.000 A 
ATOM      6  C   UNL     1       1.666   5.313  20.240  0.00  0.00    +0.000 A 
ATOM      7  C   UNL     1       1.300   3.897  20.593  0.00  0.00    +0.000 C 
ATOM      8  C   UNL     1       2.392   5.618  19.066  0.00  0.00    +0.000 A 
ENDROOT
BRANCH   4   9
ATOM      9  C   UNL     1       1.055   8.857  21.554  0.00  0.00    +0.000 C 
ATOM     10  O   UNL     1       1.842   9.373  22.349  0.00  0.00    +0.000 OA
BRANCH   9  11
ATOM     11  C   UNL     1      -0.346   9.404  21.382  0.00  0.00    +0.000 C 
BRANCH  11  12
ATOM     12  S   UNL     1      -0.540  10.140  19.728  0.00  0.00    +0.000 S 
BRANCH  12  13
ATOM     13  C   UNL     1       0.688  11.438  19.738  0.00  0.00    +0.000 A 
ATOM     14  C   UNL     1       1.496  11.563  18.603  0.00  0.00    +0.000 A 
ATOM     15  C   UNL     1       2.444  12.587  18.508  0.00  0.00    +0.000 A 
ATOM     16  C   UNL     1       2.579  13.499  19.552  0.00  0.00    +0.000 A 
ATOM     17 CL   UNL     1       3.727  14.773  19.434  0.00  0.00    +0.000 Cl
ATOM     18  C   UNL     1       1.776  13.390  20.686  0.00  0.00    +0.000 A 
ATOM     19  C   UNL     1       0.828  12.363  20.777  0.00  0.00    +0.000 A 
ENDBRANCH  12  13
ENDBRANCH  11  12
ENDBRANCH   9  11
ENDBRANCH   4   9
BRANCH   8  20
ATOM     20  O   UNL     1       2.661   4.525  18.155  0.00  0.00    +0.000 OA
BRANCH  20  21
ATOM     21  C   UNL     1       3.690   3.564  17.968  0.00  0.00    +0.000 C 
ATOM     22  S   UNL     1       3.350   1.939  18.142  0.00  0.00    +0.000 S 
BRANCH  21  23
ATOM     23  N   UNL     1       4.917   4.122  17.593  0.00  0.00    +0.000 N 
ATOM     24  C   UNL     1       5.827   4.685  18.584  0.00  0.00    +0.000 C 
ATOM     25  C   UNL     1       5.283   4.424  16.204  0.00  0.00    +0.000 C 
ENDBRANCH  21  23
ENDBRANCH  20  21
ENDBRANCH   8  20
TORSDOF 7
ENDMDL
