MODEL 1
REMARK VINA RESULT:      -7.6      0.000      0.000
REMARK  Name = 
REMARK  3 active torsions:
REMARK  status: ('A' for Active; 'I' for Inactive)
REMARK    1  A    between atoms: C_2  and  C_4
REMARK    2  A    between atoms: C_4  and  C_5
REMARK    3  A    between atoms: C_11  and  C_12
REMARK                            x       y       z     vdW  Elec       q    Type
REMARK                         _______ _______ _______ _____ _____    ______ ____
ROOT
ATOM      1  C   UNL     1       3.256   4.114  19.710  0.00  0.00    +0.000 A 
ATOM      2  C   UNL     1       2.172   4.459  20.558  0.00  0.00    +0.000 A 
ATOM      3  C   UNL     1       1.682   5.757  20.612  0.00  0.00    +0.000 A 
ATOM      4  C   UNL     1       2.279   6.723  19.826  0.00  0.00    +0.000 A 
ATOM      5  F   UNL     1       1.826   7.982  19.877  0.00  0.00    +0.000 F 
ATOM      6  C   UNL     1       3.343   6.409  18.983  0.00  0.00    +0.000 A 
ATOM      7  C   UNL     1       3.859   5.098  18.871  0.00  0.00    +0.000 A 
ENDROOT
BRANCH   7   8
ATOM      8  C   UNL     1       4.951   4.833  17.882  0.00  0.00    +0.000 A 
ATOM      9  C   UNL     1       4.708   4.478  16.541  0.00  0.00    +0.000 A 
ATOM     10  C   UNL     1       5.740   4.318  15.605  0.00  0.00    +0.000 A 
ATOM     11  C   UNL     1       7.065   4.437  15.998  0.00  0.00    +0.000 A 
ATOM     12  C   UNL     1       7.352   4.716  17.327  0.00  0.00    +0.000 A 
ATOM     13  C   UNL     1       6.312   4.924  18.241  0.00  0.00    +0.000 A 
ATOM     14  F   UNL     1       6.667   5.224  19.500  0.00  0.00    +0.000 F 
ENDBRANCH   7   8
BRANCH   1  15
ATOM     15  C   UNL     1       3.722   2.674  19.822  0.00  0.00    +0.000 C 
BRANCH  15  17
ATOM     16  N   UNL     1       4.108   0.699  18.361  0.00  0.00    +0.000 N 
ATOM     17  C   UNL     1       3.325   1.777  18.653  0.00  0.00    +0.000 C 
ATOM     18  O   UNL     1       2.339   2.009  17.957  0.00  0.00    +0.000 OA
ATOM     19  H   UNL     1       3.877   0.147  17.545  0.00  0.00    +0.000 HD
ATOM     20  H   UNL     1       4.986   0.503  18.830  0.00  0.00    +0.000 HD
ENDBRANCH  15  17
ENDBRANCH   1  15
TORSDOF 3
ENDMDL
MODEL 2
REMARK VINA RESULT:      -7.5      2.754      4.773
REMARK  Name = 
REMARK  3 active torsions:
REMARK  status: ('A' for Active; 'I' for Inactive)
REMARK    1  A    between atoms: C_2  and  C_4
REMARK    2  A    between atoms: C_4  and  C_5
REMARK    3  A    between atoms: C_11  and  C_12
REMARK                            x       y       z     vdW  Elec       q    Type
REMARK                         _______ _______ _______ _____ _____    ______ ____
ROOT
ATOM      1  C   UNL     1       4.119   5.805  17.924  0.00  0.00    +0.000 A 
ATOM      2  C   UNL     1       4.577   6.938  17.203  0.00  0.00    +0.000 A 
ATOM      3  C   UNL     1       3.828   8.106  17.141  0.00  0.00    +0.000 A 
ATOM      4  C   UNL     1       2.610   8.146  17.789  0.00  0.00    +0.000 A 
ATOM      5  F   UNL     1       1.870   9.259  17.727  0.00  0.00    +0.000 F 
ATOM      6  C   UNL     1       2.138   7.047  18.506  0.00  0.00    +0.000 A 
ATOM      7  C   UNL     1       2.877   5.847  18.623  0.00  0.00    +0.000 A 
ENDROOT
BRANCH   7   8
ATOM      8  C   UNL     1       2.332   4.745  19.477  0.00  0.00    +0.000 A 
ATOM      9  C   UNL     1       2.691   4.566  20.827  0.00  0.00    +0.000 A 
ATOM     10  C   UNL     1       2.107   3.582  21.638  0.00  0.00    +0.000 A 
ATOM     11  C   UNL     1       1.190   2.688  21.103  0.00  0.00    +0.000 A 
ATOM     12  C   UNL     1       0.861   2.784  19.758  0.00  0.00    +0.000 A 
ATOM     13  C   UNL     1       1.412   3.802  18.971  0.00  0.00    +0.000 A 
ATOM     14  F   UNL     1       1.020   3.852  17.688  0.00  0.00    +0.000 F 
ENDBRANCH   7   8
BRANCH   1  15
ATOM     15  C   UNL     1       5.017   4.585  17.832  0.00  0.00    +0.000 C 
BRANCH  15  17
ATOM     16  N   UNL     1       7.487   4.307  17.920  0.00  0.00    +0.000 N 
ATOM     17  C   UNL     1       6.353   4.714  18.559  0.00  0.00    +0.000 C 
ATOM     18  O   UNL     1       6.433   5.151  19.705  0.00  0.00    +0.000 OA
ATOM     19  H   UNL     1       8.360   4.334  18.431  0.00  0.00    +0.000 HD
ATOM     20  H   UNL     1       7.484   3.849  17.015  0.00  0.00    +0.000 HD
ENDBRANCH  15  17
ENDBRANCH   1  15
TORSDOF 3
ENDMDL
MODEL 3
REMARK VINA RESULT:      -7.4      3.093      5.610
REMARK  Name = 
REMARK  3 active torsions:
REMARK  status: ('A' for Active; 'I' for Inactive)
REMARK    1  A    between atoms: C_2  and  C_4
REMARK    2  A    between atoms: C_4  and  C_5
REMARK    3  A    between atoms: C_11  and  C_12
REMARK                            x       y       z     vdW  Elec       q    Type
REMARK                         _______ _______ _______ _____ _____    ______ ____
ROOT
ATOM      1  C   UNL     1       6.102   4.801  17.333  0.00  0.00    +0.000 A 
ATOM      2  C   UNL     1       7.194   5.175  16.507  0.00  0.00    +0.000 A 
ATOM      3  C   UNL     1       7.226   4.845  15.159  0.00  0.00    +0.000 A 
ATOM      4  C   UNL     1       6.172   4.128  14.628  0.00  0.00    +0.000 A 
ATOM      5  F   UNL     1       6.194   3.791  13.332  0.00  0.00    +0.000 F 
ATOM      6  C   UNL     1       5.087   3.751  15.417  0.00  0.00    +0.000 A 
ATOM      7  C   UNL     1       4.994   4.089  16.787  0.00  0.00    +0.000 A 
ENDROOT
BRANCH   7   8
ATOM      8  C   UNL     1       3.757   3.713  17.541  0.00  0.00    +0.000 A 
ATOM      9  C   UNL     1       3.459   2.391  17.925  0.00  0.00    +0.000 A 
ATOM     10  C   UNL     1       2.339   2.067  18.705  0.00  0.00    +0.000 A 
ATOM     11  C   UNL     1       1.432   3.052  19.069  0.00  0.00    +0.000 A 
ATOM     12  C   UNL     1       1.650   4.357  18.651  0.00  0.00    +0.000 A 
ATOM     13  C   UNL     1       2.797   4.677  17.916  0.00  0.00    +0.000 A 
ATOM     14  F   UNL     1       2.957   5.966  17.577  0.00  0.00    +0.000 F 
ENDBRANCH   7   8
BRANCH   1  15
ATOM     15  C   UNL     1       6.254   5.171  18.797  0.00  0.00    +0.000 C 
BRANCH  15  17
ATOM     16  N   UNL     1       8.362   5.243  20.114  0.00  0.00    +0.000 N 
ATOM     17  C   UNL     1       7.582   5.829  19.160  0.00  0.00    +0.000 C 
ATOM     18  O   UNL     1       7.958   6.875  18.635  0.00  0.00    +0.000 OA
ATOM     19  H   UNL     1       9.209   5.718  20.396  0.00  0.00    +0.000 HD
ATOM     20  H   UNL     1       8.072   4.435  20.654  0.00  0.00    +0.000 HD
ENDBRANCH  15  17
ENDBRANCH   1  15
TORSDOF 3
ENDMDL
MODEL 4
REMARK VINA RESULT:      -7.4      1.095      1.566
REMARK  Name = 
REMARK  3 active torsions:
REMARK  status: ('A' for Active; 'I' for Inactive)
REMARK    1  A    between atoms: C_2  and  C_4
REMARK    2  A    between atoms: C_4  and  C_5
REMARK    3  A    between atoms: C_11  and  C_12
REMARK                            x       y       z     vdW  Elec       q    Type
REMARK                         _______ _______ _______ _____ _____    ______ ____
ROOT
ATOM      1  C   UNL     1       3.199   4.040  19.854  0.00  0.00    +0.000 A 
ATOM      2  C   UNL     1       2.007   4.294  20.581  0.00  0.00    +0.000 A 
ATOM      3  C   UNL     1       1.477   5.574  20.675  0.00  0.00    +0.000 A 
ATOM      4  C   UNL     1       2.141   6.612  20.052  0.00  0.00    +0.000 A 
ATOM      5  F   UNL     1       1.650   7.854  20.144  0.00  0.00    +0.000 F 
ATOM      6  C   UNL     1       3.312   6.388  19.329  0.00  0.00    +0.000 A 
ATOM      7  C   UNL     1       3.874   5.100  19.181  0.00  0.00    +0.000 A 
ENDROOT
BRANCH   7   8
ATOM      8  C   UNL     1       5.090   4.938  18.322  0.00  0.00    +0.000 A 
ATOM      9  C   UNL     1       6.393   5.236  18.765  0.00  0.00    +0.000 A 
ATOM     10  C   UNL     1       7.529   4.997  17.978  0.00  0.00    +0.000 A 
ATOM     11  C   UNL     1       7.395   4.517  16.684  0.00  0.00    +0.000 A 
ATOM     12  C   UNL     1       6.123   4.277  16.181  0.00  0.00    +0.000 A 
ATOM     13  C   UNL     1       5.000   4.471  16.994  0.00  0.00    +0.000 A 
ATOM     14  F   UNL     1       3.806   4.185  16.450  0.00  0.00    +0.000 F 
ENDBRANCH   7   8
BRANCH   1  15
ATOM     15  C   UNL     1       3.687   2.604  19.911  0.00  0.00    +0.000 C 
BRANCH  15  17
ATOM     16  N   UNL     1       4.123   0.713  18.354  0.00  0.00    +0.000 N 
ATOM     17  C   UNL     1       3.305   1.748  18.706  0.00  0.00    +0.000 C 
ATOM     18  O   UNL     1       2.300   1.974  18.036  0.00  0.00    +0.000 OA
ATOM     19  H   UNL     1       3.899   0.191  17.517  0.00  0.00    +0.000 HD
ATOM     20  H   UNL     1       5.014   0.529  18.802  0.00  0.00    +0.000 HD
ENDBRANCH  15  17
ENDBRANCH   1  15
TORSDOF 3
ENDMDL
MODEL 5
REMARK VINA RESULT:      -7.3      2.800      5.053
REMARK  Name = 
REMARK  3 active torsions:
REMARK  status: ('A' for Active; 'I' for Inactive)
REMARK    1  A    between atoms: C_2  and  C_4
REMARK    2  A    between atoms: C_4  and  C_5
REMARK    3  A    between atoms: C_11  and  C_12
REMARK                            x       y       z     vdW  Elec       q    Type
REMARK                         _______ _______ _______ _____ _____    ______ ____
ROOT
ATOM      1  C   UNL     1       6.013   5.445  16.868  0.00  0.00    +0.000 A 
ATOM      2  C   UNL     1       7.297   6.026  17.031  0.00  0.00    +0.000 A 
ATOM      3  C   UNL     1       7.889   6.129  18.283  0.00  0.00    +0.000 A 
ATOM      4  C   UNL     1       7.197   5.663  19.383  0.00  0.00    +0.000 A 
ATOM      5  F   UNL     1       7.749   5.768  20.598  0.00  0.00    +0.000 F 
ATOM      6  C   UNL     1       5.935   5.087  19.249  0.00  0.00    +0.000 A 
ATOM      7  C   UNL     1       5.303   4.933  17.994  0.00  0.00    +0.000 A 
ENDROOT
BRANCH   7   8
ATOM      8  C   UNL     1       3.982   4.231  17.932  0.00  0.00    +0.000 A 
ATOM      9  C   UNL     1       3.853   2.828  17.925  0.00  0.00    +0.000 A 
ATOM     10  C   UNL     1       2.606   2.187  17.954  0.00  0.00    +0.000 A 
ATOM     11  C   UNL     1       1.436   2.930  17.917  0.00  0.00    +0.000 A 
ATOM     12  C   UNL     1       1.517   4.314  17.851  0.00  0.00    +0.000 A 
ATOM     13  C   UNL     1       2.767   4.945  17.874  0.00  0.00    +0.000 A 
ATOM     14  F   UNL     1       2.765   6.287  17.842  0.00  0.00    +0.000 F 
ENDBRANCH   7   8
BRANCH   1  15
ATOM     15  C   UNL     1       5.475   5.475  15.449  0.00  0.00    +0.000 C 
BRANCH  15  17
ATOM     16  N   UNL     1       6.206   3.466  14.177  0.00  0.00    +0.000 N 
ATOM     17  C   UNL     1       6.366   4.801  14.410  0.00  0.00    +0.000 C 
ATOM     18  O   UNL     1       7.233   5.418  13.795  0.00  0.00    +0.000 OA
ATOM     19  H   UNL     1       6.843   3.013  13.536  0.00  0.00    +0.000 HD
ATOM     20  H   UNL     1       5.578   2.878  14.715  0.00  0.00    +0.000 HD
ENDBRANCH  15  17
ENDBRANCH   1  15
TORSDOF 3
ENDMDL
MODEL 6
REMARK VINA RESULT:      -7.3      2.741      4.853
REMARK  Name = 
REMARK  3 active torsions:
REMARK  status: ('A' for Active; 'I' for Inactive)
REMARK    1  A    between atoms: C_2  and  C_4
REMARK    2  A    between atoms: C_4  and  C_5
REMARK    3  A    between atoms: C_11  and  C_12
REMARK                            x       y       z     vdW  Elec       q    Type
REMARK                         _______ _______ _______ _____ _____    ______ ____
ROOT
ATOM      1  C   UNL     1       3.790   4.436  17.866  0.00  0.00    +0.000 A 
ATOM      2  C   UNL     1       3.921   3.056  17.562  0.00  0.00    +0.000 A 
ATOM      3  C   UNL     1       2.876   2.167  17.776  0.00  0.00    +0.000 A 
ATOM      4  C   UNL     1       1.696   2.648  18.307  0.00  0.00    +0.000 A 
ATOM      5  F   UNL     1       0.684   1.801  18.531  0.00  0.00    +0.000 F 
ATOM      6  C   UNL     1       1.541   4.000  18.612  0.00  0.00    +0.000 A 
ATOM      7  C   UNL     1       2.565   4.948  18.385  0.00  0.00    +0.000 A 
ENDROOT
BRANCH   7   8
ATOM      8  C   UNL     1       2.286   6.392  18.667  0.00  0.00    +0.000 A 
ATOM      9  C   UNL     1       2.317   7.392  17.676  0.00  0.00    +0.000 A 
ATOM     10  C   UNL     1       1.970   8.725  17.939  0.00  0.00    +0.000 A 
ATOM     11  C   UNL     1       1.646   9.122  19.228  0.00  0.00    +0.000 A 
ATOM     12  C   UNL     1       1.672   8.182  20.250  0.00  0.00    +0.000 A 
ATOM     13  C   UNL     1       1.971   6.845  19.966  0.00  0.00    +0.000 A 
ATOM     14  F   UNL     1       1.943   5.988  20.999  0.00  0.00    +0.000 F 
ENDBRANCH   7   8
BRANCH   1  15
ATOM     15  C   UNL     1       5.046   5.260  17.645  0.00  0.00    +0.000 C 
BRANCH  15  17
ATOM     16  N   UNL     1       7.325   4.309  17.940  0.00  0.00    +0.000 N 
ATOM     17  C   UNL     1       6.230   4.875  18.527  0.00  0.00    +0.000 C 
ATOM     18  O   UNL     1       6.219   5.040  19.745  0.00  0.00    +0.000 OA
ATOM     19  H   UNL     1       8.079   3.997  18.538  0.00  0.00    +0.000 HD
ATOM     20  H   UNL     1       7.364   4.057  16.959  0.00  0.00    +0.000 HD
ENDBRANCH  15  17
ENDBRANCH   1  15
TORSDOF 3
ENDMDL
MODEL 7
REMARK VINA RESULT:      -7.3      3.426      5.634
REMARK  Name = 
REMARK  3 active torsions:
REMARK  status: ('A' for Active; 'I' for Inactive)
REMARK    1  A    between atoms: C_2  and  C_4
REMARK    2  A    between atoms: C_4  and  C_5
REMARK    3  A    between atoms: C_11  and  C_12
REMARK                            x       y       z     vdW  Elec       q    Type
REMARK                         _______ _______ _______ _____ _____    ______ ____
ROOT
ATOM      1  C   UNL     1       6.079   4.729  17.302  0.00  0.00    +0.000 A 
ATOM      2  C   UNL     1       7.205   5.026  16.491  0.00  0.00    +0.000 A 
ATOM      3  C   UNL     1       7.215   4.731  15.134  0.00  0.00    +0.000 A 
ATOM      4  C   UNL     1       6.104   4.128  14.580  0.00  0.00    +0.000 A 
ATOM      5  F   UNL     1       6.103   3.826  13.276  0.00  0.00    +0.000 F 
ATOM      6  C   UNL     1       4.984   3.829  15.355  0.00  0.00    +0.000 A 
ATOM      7  C   UNL     1       4.914   4.135  16.733  0.00  0.00    +0.000 A 
ENDROOT
BRANCH   7   8
ATOM      8  C   UNL     1       3.643   3.852  17.472  0.00  0.00    +0.000 A 
ATOM      9  C   UNL     1       2.723   4.854  17.837  0.00  0.00    +0.000 A 
ATOM     10  C   UNL     1       1.497   4.562  18.452  0.00  0.00    +0.000 A 
ATOM     11  C   UNL     1       1.178   3.256  18.792  0.00  0.00    +0.000 A 
ATOM     12  C   UNL     1       2.089   2.245  18.515  0.00  0.00    +0.000 A 
ATOM     13  C   UNL     1       3.287   2.542  17.855  0.00  0.00    +0.000 A 
ATOM     14  F   UNL     1       4.101   1.508  17.591  0.00  0.00    +0.000 F 
ENDBRANCH   7   8
BRANCH   1  15
ATOM     15  C   UNL     1       6.254   5.044  18.777  0.00  0.00    +0.000 C 
BRANCH  15  17
ATOM     16  N   UNL     1       8.351   5.277  20.094  0.00  0.00    +0.000 N 
ATOM     17  C   UNL     1       7.538   5.791  19.127  0.00  0.00    +0.000 C 
ATOM     18  O   UNL     1       7.847   6.848  18.581  0.00  0.00    +0.000 OA
ATOM     19  H   UNL     1       9.166   5.811  20.366  0.00  0.00    +0.000 HD
ATOM     20  H   UNL     1       8.112   4.464  20.651  0.00  0.00    +0.000 HD
ENDBRANCH  15  17
ENDBRANCH   1  15
TORSDOF 3
ENDMDL
MODEL 8
REMARK VINA RESULT:      -7.3      3.115      4.231
REMARK  Name = 
REMARK  3 active torsions:
REMARK  status: ('A' for Active; 'I' for Inactive)
REMARK    1  A    between atoms: C_2  and  C_4
REMARK    2  A    between atoms: C_4  and  C_5
REMARK    3  A    between atoms: C_11  and  C_12
REMARK                            x       y       z     vdW  Elec       q    Type
REMARK                         _______ _______ _______ _____ _____    ______ ____
ROOT
ATOM      1  C   UNL     1       2.904   5.300  18.080  0.00  0.00    +0.000 A 
ATOM      2  C   UNL     1       1.760   4.462  18.034  0.00  0.00    +0.000 A 
ATOM      3  C   UNL     1       1.879   3.085  17.901  0.00  0.00    +0.000 A 
ATOM      4  C   UNL     1       3.143   2.536  17.804  0.00  0.00    +0.000 A 
ATOM      5  F   UNL     1       3.273   1.211  17.663  0.00  0.00    +0.000 F 
ATOM      6  C   UNL     1       4.282   3.338  17.849  0.00  0.00    +0.000 A 
ATOM      7  C   UNL     1       4.214   4.741  18.012  0.00  0.00    +0.000 A 
ENDROOT
BRANCH   7   8
ATOM      8  C   UNL     1       5.489   5.516  18.131  0.00  0.00    +0.000 A 
ATOM      9  C   UNL     1       6.382   5.372  19.210  0.00  0.00    +0.000 A 
ATOM     10  C   UNL     1       7.613   6.042  19.264  0.00  0.00    +0.000 A 
ATOM     11  C   UNL     1       7.963   6.942  18.269  0.00  0.00    +0.000 A 
ATOM     12  C   UNL     1       7.080   7.168  17.222  0.00  0.00    +0.000 A 
ATOM     13  C   UNL     1       5.877   6.456  17.152  0.00  0.00    +0.000 A 
ATOM     14  F   UNL     1       5.090   6.702  16.093  0.00  0.00    +0.000 F 
ENDBRANCH   7   8
BRANCH   1  15
ATOM     15  C   UNL     1       2.603   6.787  18.151  0.00  0.00    +0.000 C 
BRANCH  15  17
ATOM     16  N   UNL     1       2.354   6.458  20.604  0.00  0.00    +0.000 N 
ATOM     17  C   UNL     1       2.227   7.301  19.538  0.00  0.00    +0.000 C 
ATOM     18  O   UNL     1       1.796   8.437  19.719  0.00  0.00    +0.000 OA
ATOM     19  H   UNL     1       2.042   6.783  21.510  0.00  0.00    +0.000 HD
ATOM     20  H   UNL     1       2.611   5.481  20.516  0.00  0.00    +0.000 HD
ENDBRANCH  15  17
ENDBRANCH   1  15
TORSDOF 3
ENDMDL
MODEL 9
REMARK VINA RESULT:      -7.2      2.110      4.764
REMARK  Name = 
REMARK  3 active torsions:
REMARK  status: ('A' for Active; 'I' for Inactive)
REMARK    1  A    between atoms: C_2  and  C_4
REMARK    2  A    between atoms: C_4  and  C_5
REMARK    3  A    between atoms: C_11  and  C_12
REMARK                            x       y       z     vdW  Elec       q    Type
REMARK                         _______ _______ _______ _____ _____    ______ ____
ROOT
ATOM      1  C   UNL     1       2.906   4.696  17.622  0.00  0.00    +0.000 A 
ATOM      2  C   UNL     1       3.748   3.681  17.099  0.00  0.00    +0.000 A 
ATOM      3  C   UNL     1       5.080   3.932  16.800  0.00  0.00    +0.000 A 
ATOM      4  C   UNL     1       5.578   5.202  17.011  0.00  0.00    +0.000 A 
ATOM      5  F   UNL     1       6.857   5.463  16.715  0.00  0.00    +0.000 F 
ATOM      6  C   UNL     1       4.772   6.216  17.526  0.00  0.00    +0.000 A 
ATOM      7  C   UNL     1       3.418   6.002  17.874  0.00  0.00    +0.000 A 
ENDROOT
BRANCH   7   8
ATOM      8  C   UNL     1       2.647   7.125  18.495  0.00  0.00    +0.000 A 
ATOM      9  C   UNL     1       2.271   8.286  17.791  0.00  0.00    +0.000 A 
ATOM     10  C   UNL     1       1.475   9.289  18.363  0.00  0.00    +0.000 A 
ATOM     11  C   UNL     1       1.086   9.201  19.691  0.00  0.00    +0.000 A 
ATOM     12  C   UNL     1       1.495   8.108  20.443  0.00  0.00    +0.000 A 
ATOM     13  C   UNL     1       2.246   7.088  19.847  0.00  0.00    +0.000 A 
ATOM     14  F   UNL     1       2.575   6.046  20.628  0.00  0.00    +0.000 F 
ENDBRANCH   7   8
BRANCH   1  15
ATOM     15  C   UNL     1       1.459   4.283  17.825  0.00  0.00    +0.000 C 
BRANCH  15  17
ATOM     16  N   UNL     1       1.236   1.925  18.585  0.00  0.00    +0.000 N 
ATOM     17  C   UNL     1       1.234   3.247  18.923  0.00  0.00    +0.000 C 
ATOM     18  O   UNL     1       1.032   3.568  20.092  0.00  0.00    +0.000 OA
ATOM     19  H   UNL     1       1.022   1.247  19.305  0.00  0.00    +0.000 HD
ATOM     20  H   UNL     1       1.301   1.593  17.629  0.00  0.00    +0.000 HD
ENDBRANCH  15  17
ENDBRANCH   1  15
TORSDOF 3
ENDMDL
