MODEL 1
REMARK VINA RESULT:      -7.2      0.000      0.000
REMARK  Name = 
REMARK  7 active torsions:
REMARK  status: ('A' for Active; 'I' for Inactive)
REMARK    1  A    between atoms: C_1  and  O_2
REMARK    2  A    between atoms: O_2  and  C_3
REMARK    3  A    between atoms: C_6  and  C_7
REMARK    4  A    between atoms: C_7  and  N_8
REMARK    5  A    between atoms: C_10  and  C_11
REMARK    6  A    between atoms: N_15  and  C_16
REMARK    7  A    between atoms: N_19  and  C_20
REMARK                            x       y       z     vdW  Elec       q    Type
REMARK                         _______ _______ _______ _____ _____    ______ ____
ROOT
ATOM      1  N   UNL     1      -1.106  11.944  19.876  0.00  0.00    +0.000 N 
ATOM      2  C   UNL     1      -1.874  12.715  20.762  0.00  0.00    +0.000 A 
ATOM      3  C   UNL     1      -1.171  12.582  21.932  0.00  0.00    +0.000 A 
ATOM      4  C   UNL     1      -0.863  11.209  21.963  0.00  0.00    +0.000 A 
ATOM      5  C   UNL     1      -0.647  10.313  23.027  0.00  0.00    +0.000 A 
ATOM      6  C   UNL     1      -0.204   9.031  22.756  0.00  0.00    +0.000 A 
ATOM      7  C   UNL     1       0.142   8.706  21.444  0.00  0.00    +0.000 A 
ATOM      8  C   UNL     1      -0.023   9.614  20.356  0.00  0.00    +0.000 A 
ATOM      9  C   UNL     1      -0.630  10.854  20.620  0.00  0.00    +0.000 A 
ENDROOT
BRANCH   3  10
ATOM     10  C   UNL     1      -0.948  13.481  23.008  0.00  0.00    +0.000 C 
ATOM     11  C   UNL     1      -1.969  13.955  23.764  0.00  0.00    +0.000 C 
ATOM     12  C   UNL     1      -1.741  15.178  24.550  0.00  0.00    +0.000 C 
ATOM     13  O   UNL     1      -0.607  15.531  24.866  0.00  0.00    +0.000 OA
ATOM     14  N   UNL     1      -2.889  15.911  24.818  0.00  0.00    +0.000 N 
ATOM     15  C   UNL     1      -2.738  17.187  25.499  0.00  0.00    +0.000 C 
ATOM     16  C   UNL     1      -4.176  15.592  24.388  0.00  0.00    +0.000 C 
ATOM     17  O   UNL     1      -5.115  16.379  24.542  0.00  0.00    +0.000 OA
ATOM     18  N   UNL     1      -4.346  14.352  23.800  0.00  0.00    +0.000 N 
ATOM     19  C   UNL     1      -5.682  13.947  23.383  0.00  0.00    +0.000 C 
ATOM     20  C   UNL     1      -3.347  13.402  23.702  0.00  0.00    +0.000 C 
ATOM     21  O   UNL     1      -3.568  12.195  23.623  0.00  0.00    +0.000 OA
ENDBRANCH   3  10
BRANCH   1  22
ATOM     22  C   UNL     1      -0.670  12.565  18.605  0.00  0.00    +0.000 C 
BRANCH  22  26
ATOM     23  C   UNL     1       2.870  15.155  18.423  0.00  0.00    +0.000 A 
ATOM     24  C   UNL     1       1.609  15.661  18.753  0.00  0.00    +0.000 A 
ATOM     25  C   UNL     1       0.483  14.832  18.868  0.00  0.00    +0.000 A 
ATOM     26  C   UNL     1       0.567  13.459  18.643  0.00  0.00    +0.000 A 
ATOM     27  C   UNL     1       1.855  12.950  18.337  0.00  0.00    +0.000 A 
ATOM     28  C   UNL     1       3.003  13.782  18.239  0.00  0.00    +0.000 A 
BRANCH  23  30
ATOM     29  C   UNL     1       4.355  16.768  19.389  0.00  0.00    +0.000 C 
ATOM     30  O   UNL     1       3.811  16.129  18.248  0.00  0.00    +0.000 OA
ENDBRANCH  23  30
ENDBRANCH  22  26
ENDBRANCH   1  22
TORSDOF 4
ENDMDL
MODEL 2
REMARK VINA RESULT:      -7.1      3.778      6.756
REMARK  Name = 
REMARK  7 active torsions:
REMARK  status: ('A' for Active; 'I' for Inactive)
REMARK    1  A    between atoms: C_1  and  O_2
REMARK    2  A    between atoms: O_2  and  C_3
REMARK    3  A    between atoms: C_6  and  C_7
REMARK    4  A    between atoms: C_7  and  N_8
REMARK    5  A    between atoms: C_10  and  C_11
REMARK    6  A    between atoms: N_15  and  C_16
REMARK    7  A    between atoms: N_19  and  C_20
REMARK                            x       y       z     vdW  Elec       q    Type
REMARK                         _______ _______ _______ _____ _____    ______ ____
ROOT
ATOM      1  N   UNL     1       0.655   9.900  19.447  0.00  0.00    +0.000 N 
ATOM      2  C   UNL     1      -0.150  10.681  18.605  0.00  0.00    +0.000 A 
ATOM      3  C   UNL     1      -0.321  11.817  19.353  0.00  0.00    +0.000 A 
ATOM      4  C   UNL     1      -0.584  11.312  20.640  0.00  0.00    +0.000 A 
ATOM      5  C   UNL     1      -1.328  11.822  21.721  0.00  0.00    +0.000 A 
ATOM      6  C   UNL     1      -1.288  11.171  22.941  0.00  0.00    +0.000 A 
ATOM      7  C   UNL     1      -0.407  10.100  23.099  0.00  0.00    +0.000 A 
ATOM      8  C   UNL     1       0.392   9.596  22.030  0.00  0.00    +0.000 A 
ATOM      9  C   UNL     1       0.218  10.161  20.755  0.00  0.00    +0.000 A 
ENDROOT
BRANCH   3  10
ATOM     10  C   UNL     1      -0.442  13.182  18.984  0.00  0.00    +0.000 C 
ATOM     11  C   UNL     1       0.551  14.076  19.220  0.00  0.00    +0.000 C 
ATOM     12  C   UNL     1       0.211  15.508  19.222  0.00  0.00    +0.000 C 
ATOM     13  O   UNL     1      -0.784  15.927  18.635  0.00  0.00    +0.000 OA
ATOM     14  N   UNL     1       1.052  16.297  19.994  0.00  0.00    +0.000 N 
ATOM     15  C   UNL     1       0.724  17.706  20.134  0.00  0.00    +0.000 C 
ATOM     16  C   UNL     1       2.128  15.839  20.753  0.00  0.00    +0.000 C 
ATOM     17  O   UNL     1       2.729  16.587  21.529  0.00  0.00    +0.000 OA
ATOM     18  N   UNL     1       2.494  14.516  20.577  0.00  0.00    +0.000 N 
ATOM     19  C   UNL     1       3.647  14.001  21.304  0.00  0.00    +0.000 C 
ATOM     20  C   UNL     1       1.917  13.673  19.646  0.00  0.00    +0.000 C 
ATOM     21  O   UNL     1       2.497  12.702  19.163  0.00  0.00    +0.000 OA
ENDBRANCH   3  10
BRANCH   1  22
ATOM     22  C   UNL     1       1.910   9.341  18.895  0.00  0.00    +0.000 C 
BRANCH  22  26
ATOM     23  C   UNL     1       2.768   5.045  19.191  0.00  0.00    +0.000 A 
ATOM     24  C   UNL     1       2.242   5.763  20.270  0.00  0.00    +0.000 A 
ATOM     25  C   UNL     1       1.912   7.123  20.167  0.00  0.00    +0.000 A 
ATOM     26  C   UNL     1       2.110   7.830  18.982  0.00  0.00    +0.000 A 
ATOM     27  C   UNL     1       2.617   7.088  17.885  0.00  0.00    +0.000 A 
ATOM     28  C   UNL     1       2.934   5.706  17.977  0.00  0.00    +0.000 A 
BRANCH  23  30
ATOM     29  C   UNL     1       4.483   3.380  19.359  0.00  0.00    +0.000 C 
ATOM     30  O   UNL     1       3.130   3.771  19.519  0.00  0.00    +0.000 OA
ENDBRANCH  23  30
ENDBRANCH  22  26
ENDBRANCH   1  22
TORSDOF 4
ENDMDL
MODEL 3
REMARK VINA RESULT:      -7.0      3.577      6.168
REMARK  Name = 
REMARK  7 active torsions:
REMARK  status: ('A' for Active; 'I' for Inactive)
REMARK    1  A    between atoms: C_1  and  O_2
REMARK    2  A    between atoms: O_2  and  C_3
REMARK    3  A    between atoms: C_6  and  C_7
REMARK    4  A    between atoms: C_7  and  N_8
REMARK    5  A    between atoms: C_10  and  C_11
REMARK    6  A    between atoms: N_15  and  C_16
REMARK    7  A    between atoms: N_19  and  C_20
REMARK                            x       y       z     vdW  Elec       q    Type
REMARK                         _______ _______ _______ _____ _____    ______ ____
ROOT
ATOM      1  N   UNL     1       0.326  11.265  21.135  0.00  0.00    +0.000 N 
ATOM      2  C   UNL     1      -1.065  11.448  21.109  0.00  0.00    +0.000 A 
ATOM      3  C   UNL     1      -1.259  11.949  19.847  0.00  0.00    +0.000 A 
ATOM      4  C   UNL     1      -0.222  12.891  19.717  0.00  0.00    +0.000 A 
ATOM      5  C   UNL     1      -0.114  14.080  18.971  0.00  0.00    +0.000 A 
ATOM      6  C   UNL     1       1.102  14.738  18.915  0.00  0.00    +0.000 A 
ATOM      7  C   UNL     1       2.218  14.132  19.492  0.00  0.00    +0.000 A 
ATOM      8  C   UNL     1       2.142  12.903  20.212  0.00  0.00    +0.000 A 
ATOM      9  C   UNL     1       0.872  12.331  20.404  0.00  0.00    +0.000 A 
ENDROOT
BRANCH   3  10
ATOM     10  C   UNL     1      -2.323  11.791  18.921  0.00  0.00    +0.000 C 
ATOM     11  C   UNL     1      -3.591  12.169  19.220  0.00  0.00    +0.000 C 
ATOM     12  C   UNL     1      -4.691  11.598  18.426  0.00  0.00    +0.000 C 
ATOM     13  O   UNL     1      -4.497  11.149  17.298  0.00  0.00    +0.000 OA
ATOM     14  N   UNL     1      -5.909  11.543  19.089  0.00  0.00    +0.000 N 
ATOM     15  C   UNL     1      -7.023  10.898  18.414  0.00  0.00    +0.000 C 
ATOM     16  C   UNL     1      -6.140  11.951  20.403  0.00  0.00    +0.000 C 
ATOM     17  O   UNL     1      -7.217  11.726  20.962  0.00  0.00    +0.000 OA
ATOM     18  N   UNL     1      -5.111  12.627  21.033  0.00  0.00    +0.000 N 
ATOM     19  C   UNL     1      -5.320  13.123  22.387  0.00  0.00    +0.000 C 
ATOM     20  C   UNL     1      -3.931  12.990  20.412  0.00  0.00    +0.000 C 
ATOM     21  O   UNL     1      -3.242  13.942  20.773  0.00  0.00    +0.000 OA
ENDBRANCH   3  10
BRANCH   1  22
ATOM     22  C   UNL     1       0.850   9.938  21.528  0.00  0.00    +0.000 C 
BRANCH  22  26
ATOM     23  C   UNL     1       2.432   7.375  18.334  0.00  0.00    +0.000 A 
ATOM     24  C   UNL     1       2.362   6.934  19.659  0.00  0.00    +0.000 A 
ATOM     25  C   UNL     1       1.806   7.725  20.677  0.00  0.00    +0.000 A 
ATOM     26  C   UNL     1       1.309   9.001  20.414  0.00  0.00    +0.000 A 
ATOM     27  C   UNL     1       1.359   9.428  19.063  0.00  0.00    +0.000 A 
ATOM     28  C   UNL     1       1.901   8.623  18.025  0.00  0.00    +0.000 A 
BRANCH  23  30
ATOM     29  C   UNL     1       3.122   5.135  17.838  0.00  0.00    +0.000 C 
ATOM     30  O   UNL     1       3.106   6.515  17.516  0.00  0.00    +0.000 OA
ENDBRANCH  23  30
ENDBRANCH  22  26
ENDBRANCH   1  22
TORSDOF 4
ENDMDL
MODEL 4
REMARK VINA RESULT:      -7.0      4.150      6.589
REMARK  Name = 
REMARK  7 active torsions:
REMARK  status: ('A' for Active; 'I' for Inactive)
REMARK    1  A    between atoms: C_1  and  O_2
REMARK    2  A    between atoms: O_2  and  C_3
REMARK    3  A    between atoms: C_6  and  C_7
REMARK    4  A    between atoms: C_7  and  N_8
REMARK    5  A    between atoms: C_10  and  C_11
REMARK    6  A    between atoms: N_15  and  C_16
REMARK    7  A    between atoms: N_19  and  C_20
REMARK                            x       y       z     vdW  Elec       q    Type
REMARK                         _______ _______ _______ _____ _____    ______ ____
ROOT
ATOM      1  N   UNL     1       0.930   9.652  18.950  0.00  0.00    +0.000 N 
ATOM      2  C   UNL     1      -0.121  10.416  18.418  0.00  0.00    +0.000 A 
ATOM      3  C   UNL     1      -0.256  11.403  19.361  0.00  0.00    +0.000 A 
ATOM      4  C   UNL     1      -0.178  10.694  20.575  0.00  0.00    +0.000 A 
ATOM      5  C   UNL     1      -0.726  10.939  21.848  0.00  0.00    +0.000 A 
ATOM      6  C   UNL     1      -0.352  10.140  22.914  0.00  0.00    +0.000 A 
ATOM      7  C   UNL     1       0.659   9.197  22.721  0.00  0.00    +0.000 A 
ATOM      8  C   UNL     1       1.263   8.965  21.449  0.00  0.00    +0.000 A 
ATOM      9  C   UNL     1       0.756   9.667  20.342  0.00  0.00    +0.000 A 
ENDROOT
BRANCH   3  10
ATOM     10  C   UNL     1      -0.608  12.773  19.251  0.00  0.00    +0.000 C 
ATOM     11  C   UNL     1       0.276  13.762  19.536  0.00  0.00    +0.000 C 
ATOM     12  C   UNL     1      -0.254  15.105  19.822  0.00  0.00    +0.000 C 
ATOM     13  O   UNL     1      -1.363  15.451  19.423  0.00  0.00    +0.000 OA
ATOM     14  N   UNL     1       0.563  15.884  20.630  0.00  0.00    +0.000 N 
ATOM     15  C   UNL     1       0.067  17.185  21.046  0.00  0.00    +0.000 C 
ATOM     16  C   UNL     1       1.780  15.485  21.182  0.00  0.00    +0.000 C 
ATOM     17  O   UNL     1       2.367  16.187  22.010  0.00  0.00    +0.000 OA
ATOM     18  N   UNL     1       2.297  14.280  20.741  0.00  0.00    +0.000 N 
ATOM     19  C   UNL     1       3.593  13.843  21.245  0.00  0.00    +0.000 C 
ATOM     20  C   UNL     1       1.727  13.515  19.741  0.00  0.00    +0.000 C 
ATOM     21  O   UNL     1       2.367  12.735  19.039  0.00  0.00    +0.000 OA
ENDBRANCH   3  10
BRANCH   1  22
ATOM     22  C   UNL     1       2.093   9.363  18.081  0.00  0.00    +0.000 C 
BRANCH  22  26
ATOM     23  C   UNL     1       3.673   5.266  18.099  0.00  0.00    +0.000 A 
ATOM     24  C   UNL     1       2.455   5.584  18.708  0.00  0.00    +0.000 A 
ATOM     25  C   UNL     1       1.915   6.879  18.659  0.00  0.00    +0.000 A 
ATOM     26  C   UNL     1       2.580   7.917  18.010  0.00  0.00    +0.000 A 
ATOM     27  C   UNL     1       3.800   7.580  17.370  0.00  0.00    +0.000 A 
ATOM     28  C   UNL     1       4.341   6.266  17.399  0.00  0.00    +0.000 A 
BRANCH  23  30
ATOM     29  C   UNL     1       3.501   2.925  17.624  0.00  0.00    +0.000 C 
ATOM     30  O   UNL     1       4.085   3.990  18.353  0.00  0.00    +0.000 OA
ENDBRANCH  23  30
ENDBRANCH  22  26
ENDBRANCH   1  22
TORSDOF 4
ENDMDL
MODEL 5
REMARK VINA RESULT:      -6.9      9.906     12.846
REMARK  Name = 
REMARK  7 active torsions:
REMARK  status: ('A' for Active; 'I' for Inactive)
REMARK    1  A    between atoms: C_1  and  O_2
REMARK    2  A    between atoms: O_2  and  C_3
REMARK    3  A    between atoms: C_6  and  C_7
REMARK    4  A    between atoms: C_7  and  N_8
REMARK    5  A    between atoms: C_10  and  C_11
REMARK    6  A    between atoms: N_15  and  C_16
REMARK    7  A    between atoms: N_19  and  C_20
REMARK                            x       y       z     vdW  Elec       q    Type
REMARK                         _______ _______ _______ _____ _____    ______ ____
ROOT
ATOM      1  N   UNL     1       6.550   4.911  15.485  0.00  0.00    +0.000 N 
ATOM      2  C   UNL     1       6.334   3.615  15.978  0.00  0.00    +0.000 A 
ATOM      3  C   UNL     1       5.788   3.870  17.210  0.00  0.00    +0.000 A 
ATOM      4  C   UNL     1       6.603   4.902  17.710  0.00  0.00    +0.000 A 
ATOM      5  C   UNL     1       6.959   5.275  19.021  0.00  0.00    +0.000 A 
ATOM      6  C   UNL     1       7.666   6.445  19.226  0.00  0.00    +0.000 A 
ATOM      7  C   UNL     1       7.893   7.290  18.138  0.00  0.00    +0.000 A 
ATOM      8  C   UNL     1       7.500   6.955  16.808  0.00  0.00    +0.000 A 
ATOM      9  C   UNL     1       6.931   5.688  16.589  0.00  0.00    +0.000 A 
ENDROOT
BRANCH   3  10
ATOM     10  C   UNL     1       4.803   3.184  17.968  0.00  0.00    +0.000 C 
ATOM     11  C   UNL     1       3.688   3.809  18.420  0.00  0.00    +0.000 C 
ATOM     12  C   UNL     1       2.947   3.191  19.532  0.00  0.00    +0.000 C 
ATOM     13  O   UNL     1       3.046   1.990  19.774  0.00  0.00    +0.000 OA
ATOM     14  N   UNL     1       2.217   4.085  20.303  0.00  0.00    +0.000 N 
ATOM     15  C   UNL     1       1.541   3.571  21.483  0.00  0.00    +0.000 C 
ATOM     16  C   UNL     1       2.164   5.466  20.117  0.00  0.00    +0.000 C 
ATOM     17  O   UNL     1       1.612   6.201  20.940  0.00  0.00    +0.000 OA
ATOM     18  N   UNL     1       2.745   5.960  18.963  0.00  0.00    +0.000 N 
ATOM     19  C   UNL     1       2.669   7.390  18.693  0.00  0.00    +0.000 C 
ATOM     20  C   UNL     1       3.280   5.165  17.967  0.00  0.00    +0.000 C 
ATOM     21  O   UNL     1       3.367   5.520  16.793  0.00  0.00    +0.000 OA
ENDBRANCH   3  10
BRANCH   1  22
ATOM     22  C   UNL     1       6.008   5.251  14.150  0.00  0.00    +0.000 C 
BRANCH  22  26
ATOM     23  C   UNL     1       6.256   1.968  11.245  0.00  0.00    +0.000 A 
ATOM     24  C   UNL     1       5.031   2.386  11.775  0.00  0.00    +0.000 A 
ATOM     25  C   UNL     1       4.936   3.470  12.661  0.00  0.00    +0.000 A 
ATOM     26  C   UNL     1       6.068   4.175  13.068  0.00  0.00    +0.000 A 
ATOM     27  C   UNL     1       7.302   3.763  12.504  0.00  0.00    +0.000 A 
ATOM     28  C   UNL     1       7.402   2.680  11.590  0.00  0.00    +0.000 A 
BRANCH  23  30
ATOM     29  C   UNL     1       6.054  -0.417  11.158  0.00  0.00    +0.000 C 
ATOM     30  O   UNL     1       6.158   0.831  10.496  0.00  0.00    +0.000 OA
ENDBRANCH  23  30
ENDBRANCH  22  26
ENDBRANCH   1  22
TORSDOF 4
ENDMDL
MODEL 6
REMARK VINA RESULT:      -6.9      3.042      5.224
REMARK  Name = 
REMARK  7 active torsions:
REMARK  status: ('A' for Active; 'I' for Inactive)
REMARK    1  A    between atoms: C_1  and  O_2
REMARK    2  A    between atoms: O_2  and  C_3
REMARK    3  A    between atoms: C_6  and  C_7
REMARK    4  A    between atoms: C_7  and  N_8
REMARK    5  A    between atoms: C_10  and  C_11
REMARK    6  A    between atoms: N_15  and  C_16
REMARK    7  A    between atoms: N_19  and  C_20
REMARK                            x       y       z     vdW  Elec       q    Type
REMARK                         _______ _______ _______ _____ _____    ______ ____
ROOT
ATOM      1  N   UNL     1       0.102  11.711  18.332  0.00  0.00    +0.000 N 
ATOM      2  C   UNL     1      -0.189  13.082  18.404  0.00  0.00    +0.000 A 
ATOM      3  C   UNL     1      -1.412  13.078  19.023  0.00  0.00    +0.000 A 
ATOM      4  C   UNL     1      -2.098  12.042  18.361  0.00  0.00    +0.000 A 
ATOM      5  C   UNL     1      -3.466  11.828  18.105  0.00  0.00    +0.000 A 
ATOM      6  C   UNL     1      -3.875  10.626  17.556  0.00  0.00    +0.000 A 
ATOM      7  C   UNL     1      -2.932   9.610  17.394  0.00  0.00    +0.000 A 
ATOM      8  C   UNL     1      -1.548   9.788  17.692  0.00  0.00    +0.000 A 
ATOM      9  C   UNL     1      -1.120  11.066  18.092  0.00  0.00    +0.000 A 
ENDROOT
BRANCH   3  10
ATOM     10  C   UNL     1      -2.009  13.978  19.943  0.00  0.00    +0.000 C 
ATOM     11  C   UNL     1      -2.106  13.688  21.265  0.00  0.00    +0.000 C 
ATOM     12  C   UNL     1      -3.091  14.430  22.068  0.00  0.00    +0.000 C 
ATOM     13  O   UNL     1      -3.507  15.529  21.710  0.00  0.00    +0.000 OA
ATOM     14  N   UNL     1      -3.548  13.750  23.188  0.00  0.00    +0.000 N 
ATOM     15  C   UNL     1      -4.600  14.369  23.978  0.00  0.00    +0.000 C 
ATOM     16  C   UNL     1      -3.172  12.461  23.567  0.00  0.00    +0.000 C 
ATOM     17  O   UNL     1      -3.742  11.875  24.492  0.00  0.00    +0.000 OA
ATOM     18  N   UNL     1      -2.126  11.888  22.867  0.00  0.00    +0.000 N 
ATOM     19  C   UNL     1      -1.658  10.565  23.259  0.00  0.00    +0.000 C 
ATOM     20  C   UNL     1      -1.395  12.546  21.897  0.00  0.00    +0.000 C 
ATOM     21  O   UNL     1      -0.235  12.254  21.611  0.00  0.00    +0.000 OA
ENDBRANCH   3  10
BRANCH   1  22
ATOM     22  C   UNL     1       1.403  11.243  18.861  0.00  0.00    +0.000 C 
BRANCH  22  26
ATOM     23  C   UNL     1       2.304   6.964  19.256  0.00  0.00    +0.000 A 
ATOM     24  C   UNL     1       1.708   7.686  20.295  0.00  0.00    +0.000 A 
ATOM     25  C   UNL     1       1.366   9.040  20.157  0.00  0.00    +0.000 A 
ATOM     26  C   UNL     1       1.619   9.736  18.977  0.00  0.00    +0.000 A 
ATOM     27  C   UNL     1       2.198   8.989  17.919  0.00  0.00    +0.000 A 
ATOM     28  C   UNL     1       2.528   7.613  18.045  0.00  0.00    +0.000 A 
BRANCH  23  30
ATOM     29  C   UNL     1       2.070   5.120  20.767  0.00  0.00    +0.000 C 
ATOM     30  O   UNL     1       2.665   5.699  19.618  0.00  0.00    +0.000 OA
ENDBRANCH  23  30
ENDBRANCH  22  26
ENDBRANCH   1  22
TORSDOF 4
ENDMDL
MODEL 7
REMARK VINA RESULT:      -6.9      2.819      4.318
REMARK  Name = 
REMARK  7 active torsions:
REMARK  status: ('A' for Active; 'I' for Inactive)
REMARK    1  A    between atoms: C_1  and  O_2
REMARK    2  A    between atoms: O_2  and  C_3
REMARK    3  A    between atoms: C_6  and  C_7
REMARK    4  A    between atoms: C_7  and  N_8
REMARK    5  A    between atoms: C_10  and  C_11
REMARK    6  A    between atoms: N_15  and  C_16
REMARK    7  A    between atoms: N_19  and  C_20
REMARK                            x       y       z     vdW  Elec       q    Type
REMARK                         _______ _______ _______ _____ _____    ______ ____
ROOT
ATOM      1  N   UNL     1      -1.630  11.514  20.078  0.00  0.00    +0.000 N 
ATOM      2  C   UNL     1      -2.371  12.279  20.992  0.00  0.00    +0.000 A 
ATOM      3  C   UNL     1      -1.487  12.408  22.033  0.00  0.00    +0.000 A 
ATOM      4  C   UNL     1      -0.957  11.111  22.161  0.00  0.00    +0.000 A 
ATOM      5  C   UNL     1      -0.439  10.407  23.265  0.00  0.00    +0.000 A 
ATOM      6  C   UNL     1       0.162   9.177  23.065  0.00  0.00    +0.000 A 
ATOM      7  C   UNL     1       0.355   8.731  21.757  0.00  0.00    +0.000 A 
ATOM      8  C   UNL     1      -0.119   9.451  20.620  0.00  0.00    +0.000 A 
ATOM      9  C   UNL     1      -0.875  10.615  20.846  0.00  0.00    +0.000 A 
ENDROOT
BRANCH   3  10
ATOM     10  C   UNL     1      -1.254  13.466  22.949  0.00  0.00    +0.000 C 
ATOM     11  C   UNL     1      -2.247  13.968  23.726  0.00  0.00    +0.000 C 
ATOM     12  C   UNL     1      -2.061  15.305  24.312  0.00  0.00    +0.000 C 
ATOM     13  O   UNL     1      -0.940  15.782  24.470  0.00  0.00    +0.000 OA
ATOM     14  N   UNL     1      -3.242  15.983  24.583  0.00  0.00    +0.000 N 
ATOM     15  C   UNL     1      -3.147  17.350  25.066  0.00  0.00    +0.000 C 
ATOM     16  C   UNL     1      -4.529  15.511  24.323  0.00  0.00    +0.000 C 
ATOM     17  O   UNL     1      -5.516  16.240  24.455  0.00  0.00    +0.000 OA
ATOM     18  N   UNL     1      -4.638  14.190  23.929  0.00  0.00    +0.000 N 
ATOM     19  C   UNL     1      -5.964  13.631  23.698  0.00  0.00    +0.000 C 
ATOM     20  C   UNL     1      -3.573  13.311  23.869  0.00  0.00    +0.000 C 
ATOM     21  O   UNL     1      -3.695  12.093  23.978  0.00  0.00    +0.000 OA
ENDBRANCH   3  10
BRANCH   1  22
ATOM     22  C   UNL     1      -1.498  12.015  18.691  0.00  0.00    +0.000 C 
BRANCH  22  26
ATOM     23  C   UNL     1      -3.836  10.277  15.407  0.00  0.00    +0.000 A 
ATOM     24  C   UNL     1      -2.540   9.838  15.695  0.00  0.00    +0.000 A 
ATOM     25  C   UNL     1      -1.806  10.349  16.777  0.00  0.00    +0.000 A 
ATOM     26  C   UNL     1      -2.334  11.333  17.611  0.00  0.00    +0.000 A 
ATOM     27  C   UNL     1      -3.659  11.751  17.329  0.00  0.00    +0.000 A 
ATOM     28  C   UNL     1      -4.415  11.223  16.247  0.00  0.00    +0.000 A 
BRANCH  23  30
ATOM     29  C   UNL     1      -3.606   9.909  13.051  0.00  0.00    +0.000 C 
ATOM     30  O   UNL     1      -4.338   9.748  14.253  0.00  0.00    +0.000 OA
ENDBRANCH  23  30
ENDBRANCH  22  26
ENDBRANCH   1  22
TORSDOF 4
ENDMDL
MODEL 8
REMARK VINA RESULT:      -6.8      4.225      6.126
REMARK  Name = 
REMARK  7 active torsions:
REMARK  status: ('A' for Active; 'I' for Inactive)
REMARK    1  A    between atoms: C_1  and  O_2
REMARK    2  A    between atoms: O_2  and  C_3
REMARK    3  A    between atoms: C_6  and  C_7
REMARK    4  A    between atoms: C_7  and  N_8
REMARK    5  A    between atoms: C_10  and  C_11
REMARK    6  A    between atoms: N_15  and  C_16
REMARK    7  A    between atoms: N_19  and  C_20
REMARK                            x       y       z     vdW  Elec       q    Type
REMARK                         _______ _______ _______ _____ _____    ______ ____
ROOT
ATOM      1  N   UNL     1       1.200   9.687  18.605  0.00  0.00    +0.000 N 
ATOM      2  C   UNL     1       1.992  10.841  18.489  0.00  0.00    +0.000 A 
ATOM      3  C   UNL     1       1.149  11.809  18.971  0.00  0.00    +0.000 A 
ATOM      4  C   UNL     1      -0.079  11.492  18.362  0.00  0.00    +0.000 A 
ATOM      5  C   UNL     1      -1.181  12.286  17.987  0.00  0.00    +0.000 A 
ATOM      6  C   UNL     1      -2.337  11.674  17.537  0.00  0.00    +0.000 A 
ATOM      7  C   UNL     1      -2.423  10.282  17.594  0.00  0.00    +0.000 A 
ATOM      8  C   UNL     1      -1.336   9.459  18.016  0.00  0.00    +0.000 A 
ATOM      9  C   UNL     1      -0.113  10.086  18.310  0.00  0.00    +0.000 A 
ENDROOT
BRANCH   3  10
ATOM     10  C   UNL     1       1.396  12.993  19.714  0.00  0.00    +0.000 C 
ATOM     11  C   UNL     1       0.929  13.153  20.977  0.00  0.00    +0.000 C 
ATOM     12  C   UNL     1       0.838  14.519  21.516  0.00  0.00    +0.000 C 
ATOM     13  O   UNL     1       1.523  15.432  21.059  0.00  0.00    +0.000 OA
ATOM     14  N   UNL     1      -0.124  14.685  22.503  0.00  0.00    +0.000 N 
ATOM     15  C   UNL     1      -0.350  16.027  23.014  0.00  0.00    +0.000 C 
ATOM     16  C   UNL     1      -0.986  13.695  22.973  0.00  0.00    +0.000 C 
ATOM     17  O   UNL     1      -1.912  13.966  23.742  0.00  0.00    +0.000 OA
ATOM     18  N   UNL     1      -0.739  12.402  22.547  0.00  0.00    +0.000 N 
ATOM     19  C   UNL     1      -1.575  11.322  23.052  0.00  0.00    +0.000 C 
ATOM     20  C   UNL     1       0.346  12.040  21.772  0.00  0.00    +0.000 C 
ATOM     21  O   UNL     1       0.830  10.909  21.772  0.00  0.00    +0.000 OA
ENDBRANCH   3  10
BRANCH   1  22
ATOM     22  C   UNL     1       1.764   8.520  19.319  0.00  0.00    +0.000 C 
BRANCH  22  26
ATOM     23  C   UNL     1       4.021   5.451  17.136  0.00  0.00    +0.000 A 
ATOM     24  C   UNL     1       2.883   5.131  17.883  0.00  0.00    +0.000 A 
ATOM     25  C   UNL     1       2.123   6.113  18.538  0.00  0.00    +0.000 A 
ATOM     26  C   UNL     1       2.480   7.459  18.486  0.00  0.00    +0.000 A 
ATOM     27  C   UNL     1       3.619   7.778  17.704  0.00  0.00    +0.000 A 
ATOM     28  C   UNL     1       4.380   6.791  17.021  0.00  0.00    +0.000 A 
BRANCH  23  30
ATOM     29  C   UNL     1       5.700   4.529  15.698  0.00  0.00    +0.000 C 
ATOM     30  O   UNL     1       4.687   4.354  16.672  0.00  0.00    +0.000 OA
ENDBRANCH  23  30
ENDBRANCH  22  26
ENDBRANCH   1  22
TORSDOF 4
ENDMDL
MODEL 9
REMARK VINA RESULT:      -6.8      3.629      5.830
REMARK  Name = 
REMARK  7 active torsions:
REMARK  status: ('A' for Active; 'I' for Inactive)
REMARK    1  A    between atoms: C_1  and  O_2
REMARK    2  A    between atoms: O_2  and  C_3
REMARK    3  A    between atoms: C_6  and  C_7
REMARK    4  A    between atoms: C_7  and  N_8
REMARK    5  A    between atoms: C_10  and  C_11
REMARK    6  A    between atoms: N_15  and  C_16
REMARK    7  A    between atoms: N_19  and  C_20
REMARK                            x       y       z     vdW  Elec       q    Type
REMARK                         _______ _______ _______ _____ _____    ______ ____
ROOT
ATOM      1  N   UNL     1       0.799   9.966  19.635  0.00  0.00    +0.000 N 
ATOM      2  C   UNL     1       1.605  11.114  19.573  0.00  0.00    +0.000 A 
ATOM      3  C   UNL     1       0.684  12.114  19.752  0.00  0.00    +0.000 A 
ATOM      4  C   UNL     1      -0.382  11.715  18.926  0.00  0.00    +0.000 A 
ATOM      5  C   UNL     1      -1.368  12.446  18.236  0.00  0.00    +0.000 A 
ATOM      6  C   UNL     1      -2.402  11.771  17.612  0.00  0.00    +0.000 A 
ATOM      7  C   UNL     1      -2.509  10.392  17.796  0.00  0.00    +0.000 A 
ATOM      8  C   UNL     1      -1.548   9.637  18.531  0.00  0.00    +0.000 A 
ATOM      9  C   UNL     1      -0.414  10.310  19.019  0.00  0.00    +0.000 A 
ENDROOT
BRANCH   3  10
ATOM     10  C   UNL     1       0.771  13.373  20.401  0.00  0.00    +0.000 C 
ATOM     11  C   UNL     1       0.087  13.637  21.542  0.00  0.00    +0.000 C 
ATOM     12  C   UNL     1      -0.127  15.044  21.914  0.00  0.00    +0.000 C 
ATOM     13  O   UNL     1       0.606  15.935  21.489  0.00  0.00    +0.000 OA
ATOM     14  N   UNL     1      -1.250  15.266  22.699  0.00  0.00    +0.000 N 
ATOM     15  C   UNL     1      -1.593  16.641  23.024  0.00  0.00    +0.000 C 
ATOM     16  C   UNL     1      -2.158  14.293  23.115  0.00  0.00    +0.000 C 
ATOM     17  O   UNL     1      -3.210  14.599  23.682  0.00  0.00    +0.000 OA
ATOM     18  N   UNL     1      -1.811  12.975  22.872  0.00  0.00    +0.000 N 
ATOM     19  C   UNL     1      -2.698  11.917  23.336  0.00  0.00    +0.000 C 
ATOM     20  C   UNL     1      -0.599  12.583  22.335  0.00  0.00    +0.000 C 
ATOM     21  O   UNL     1      -0.097  11.479  22.535  0.00  0.00    +0.000 OA
ENDBRANCH   3  10
BRANCH   1  22
ATOM     22  C   UNL     1       1.183   8.891  20.576  0.00  0.00    +0.000 C 
BRANCH  22  26
ATOM     23  C   UNL     1       2.802   5.215  18.802  0.00  0.00    +0.000 A 
ATOM     24  C   UNL     1       2.898   6.447  18.148  0.00  0.00    +0.000 A 
ATOM     25  C   UNL     1       2.434   7.637  18.732  0.00  0.00    +0.000 A 
ATOM     26  C   UNL     1       1.838   7.641  19.992  0.00  0.00    +0.000 A 
ATOM     27  C   UNL     1       1.769   6.391  20.659  0.00  0.00    +0.000 A 
ATOM     28  C   UNL     1       2.257   5.188  20.082  0.00  0.00    +0.000 A 
BRANCH  23  30
ATOM     29  C   UNL     1       2.249   3.180  17.664  0.00  0.00    +0.000 C 
ATOM     30  O   UNL     1       3.202   4.164  18.029  0.00  0.00    +0.000 OA
ENDBRANCH  23  30
ENDBRANCH  22  26
ENDBRANCH   1  22
TORSDOF 4
ENDMDL
