MODEL 1
REMARK VINA RESULT:      -7.8      0.000      0.000
REMARK  Name = 
REMARK  8 active torsions:
REMARK  status: ('A' for Active; 'I' for Inactive)
REMARK    1  A    between atoms: C_2  and  O_3
REMARK    2  A    between atoms: C_2  and  C_4
REMARK    3  A    between atoms: C_4  and  N_5
REMARK    4  A    between atoms: C_10  and  O_11
REMARK    5  A    between atoms: O_11  and  C_12
REMARK    6  A    between atoms: C_12  and  C_13
REMARK    7  A    between atoms: C_13  and  C_14
REMARK    8  A    between atoms: C_14  and  C_15
REMARK                            x       y       z     vdW  Elec       q    Type
REMARK                         _______ _______ _______ _____ _____    ______ ____
ROOT
ATOM      1  N   UNL     1       3.415   3.785  18.949  0.00  0.00    +0.000 N 
ATOM      2  C   UNL     1       2.775   5.011  18.470  0.00  0.00    +0.000 C 
ATOM      3  C   UNL     1       3.589   5.691  17.379  0.00  0.00    +0.000 C 
ATOM      4  C   UNL     1       5.019   5.837  17.827  0.00  0.00    +0.000 A 
ATOM      5  C   UNL     1       5.825   6.868  17.319  0.00  0.00    +0.000 A 
ATOM      6  C   UNL     1       7.162   6.984  17.712  0.00  0.00    +0.000 A 
ATOM      7  C   UNL     1       7.691   6.071  18.625  0.00  0.00    +0.000 A 
ATOM      8  C   UNL     1       6.908   5.025  19.112  0.00  0.00    +0.000 A 
ATOM      9  C   UNL     1       5.577   4.907  18.711  0.00  0.00    +0.000 A 
ATOM     10  C   UNL     1       4.781   3.758  19.221  0.00  0.00    +0.000 C 
ATOM     11  O   UNL     1       5.308   2.857  19.865  0.00  0.00    +0.000 OA
ENDROOT
BRANCH   1  12
ATOM     12  C   UNL     1       2.569   2.643  19.308  0.00  0.00    +0.000 C 
BRANCH  12  14
ATOM     13  O   UNL     1       2.526   2.617  21.734  0.00  0.00    +0.000 OA
ATOM     14  C   UNL     1       1.926   2.791  20.683  0.00  0.00    +0.000 C 
BRANCH  14  15
ATOM     15  O   UNL     1       0.639   3.207  20.643  0.00  0.00    +0.000 OA
ATOM     16  H   UNL     1       0.297   3.333  21.553  0.00  0.00    +0.000 HD
ENDBRANCH  14  15
ENDBRANCH  12  14
ENDBRANCH   1  12
BRANCH   6  17
ATOM     17  O   UNL     1       7.840   8.013  17.127  0.00  0.00    +0.000 OA
BRANCH  17  18
ATOM     18  C   UNL     1       7.681   9.317  17.683  0.00  0.00    +0.000 C 
BRANCH  18  19
ATOM     19  C   UNL     1       8.861   9.620  18.600  0.00  0.00    +0.000 C 
BRANCH  19  20
ATOM     20  C   UNL     1       9.647  10.830  18.074  0.00  0.00    +0.000 C 
BRANCH  20  21
ATOM     21  C   UNL     1       9.280  12.164  18.750  0.00  0.00    +0.000 C 
ATOM     22  C   UNL     1      10.029  13.324  18.072  0.00  0.00    +0.000 C 
ATOM     23  C   UNL     1      11.523  13.332  18.415  0.00  0.00    +0.000 C 
ATOM     24  N   UNL     1      11.764  13.322  19.858  0.00  0.00    +0.000 NA
ATOM     25  C   UNL     1      11.099  12.193  20.515  0.00  0.00    +0.000 C 
ATOM     26  C   UNL     1       9.594  12.205  20.252  0.00  0.00    +0.000 C 
ATOM     27  H   UNL     1      11.402  14.188  20.258  0.00  0.00    +0.000 HD
ENDBRANCH  20  21
ENDBRANCH  19  20
ENDBRANCH  18  19
ENDBRANCH  17  18
ENDBRANCH   6  17
TORSDOF 8
ENDMDL
MODEL 2
REMARK VINA RESULT:      -7.7      1.324      1.775
REMARK  Name = 
REMARK  8 active torsions:
REMARK  status: ('A' for Active; 'I' for Inactive)
REMARK    1  A    between atoms: C_2  and  O_3
REMARK    2  A    between atoms: C_2  and  C_4
REMARK    3  A    between atoms: C_4  and  N_5
REMARK    4  A    between atoms: C_10  and  O_11
REMARK    5  A    between atoms: O_11  and  C_12
REMARK    6  A    between atoms: C_12  and  C_13
REMARK    7  A    between atoms: C_13  and  C_14
REMARK    8  A    between atoms: C_14  and  C_15
REMARK                            x       y       z     vdW  Elec       q    Type
REMARK                         _______ _______ _______ _____ _____    ______ ____
ROOT
ATOM      1  N   UNL     1       2.620   4.706  17.822  0.00  0.00    +0.000 N 
ATOM      2  C   UNL     1       2.473   6.086  18.288  0.00  0.00    +0.000 C 
ATOM      3  C   UNL     1       3.457   7.026  17.606  0.00  0.00    +0.000 C 
ATOM      4  C   UNL     1       4.848   6.456  17.692  0.00  0.00    +0.000 A 
ATOM      5  C   UNL     1       5.969   7.301  17.669  0.00  0.00    +0.000 A 
ATOM      6  C   UNL     1       7.261   6.768  17.717  0.00  0.00    +0.000 A 
ATOM      7  C   UNL     1       7.432   5.386  17.798  0.00  0.00    +0.000 A 
ATOM      8  C   UNL     1       6.326   4.536  17.789  0.00  0.00    +0.000 A 
ATOM      9  C   UNL     1       5.039   5.070  17.733  0.00  0.00    +0.000 A 
ATOM     10  C   UNL     1       3.883   4.133  17.687  0.00  0.00    +0.000 C 
ATOM     11  O   UNL     1       4.050   2.925  17.562  0.00  0.00    +0.000 OA
ENDROOT
BRANCH   1  12
ATOM     12  C   UNL     1       1.417   3.881  17.675  0.00  0.00    +0.000 C 
BRANCH  12  14
ATOM     13  O   UNL     1       0.669   3.403  19.933  0.00  0.00    +0.000 OA
ATOM     14  C   UNL     1       1.153   2.995  18.888  0.00  0.00    +0.000 C 
BRANCH  14  15
ATOM     15  O   UNL     1       1.439   1.688  18.682  0.00  0.00    +0.000 OA
ATOM     16  H   UNL     1       2.366   1.502  18.940  0.00  0.00    +0.000 HD
ENDBRANCH  14  15
ENDBRANCH  12  14
ENDBRANCH   1  12
BRANCH   6  17
ATOM     17  O   UNL     1       8.261   7.695  17.665  0.00  0.00    +0.000 OA
BRANCH  17  18
ATOM     18  C   UNL     1       7.896   9.073  17.731  0.00  0.00    +0.000 C 
BRANCH  18  19
ATOM     19  C   UNL     1       8.889   9.812  18.623  0.00  0.00    +0.000 C 
BRANCH  19  20
ATOM     20  C   UNL     1       9.087  11.249  18.120  0.00  0.00    +0.000 C 
BRANCH  20  21
ATOM     21  C   UNL     1      10.550  11.614  17.811  0.00  0.00    +0.000 C 
ATOM     22  C   UNL     1      11.427  11.383  19.054  0.00  0.00    +0.000 C 
ATOM     23  C   UNL     1      11.185  12.437  20.140  0.00  0.00    +0.000 C 
ATOM     24  N   UNL     1      11.335  13.803  19.637  0.00  0.00    +0.000 NA
ATOM     25  C   UNL     1      10.470  14.057  18.482  0.00  0.00    +0.000 C 
ATOM     26  C   UNL     1      10.744  13.066  17.352  0.00  0.00    +0.000 C 
ATOM     27  H   UNL     1      12.305  13.943  19.351  0.00  0.00    +0.000 HD
ENDBRANCH  20  21
ENDBRANCH  19  20
ENDBRANCH  18  19
ENDBRANCH  17  18
ENDBRANCH   6  17
TORSDOF 8
ENDMDL
MODEL 3
REMARK VINA RESULT:      -7.7      0.682      1.037
REMARK  Name = 
REMARK  8 active torsions:
REMARK  status: ('A' for Active; 'I' for Inactive)
REMARK    1  A    between atoms: C_2  and  O_3
REMARK    2  A    between atoms: C_2  and  C_4
REMARK    3  A    between atoms: C_4  and  N_5
REMARK    4  A    between atoms: C_10  and  O_11
REMARK    5  A    between atoms: O_11  and  C_12
REMARK    6  A    between atoms: C_12  and  C_13
REMARK    7  A    between atoms: C_13  and  C_14
REMARK    8  A    between atoms: C_14  and  C_15
REMARK                            x       y       z     vdW  Elec       q    Type
REMARK                         _______ _______ _______ _____ _____    ______ ____
ROOT
ATOM      1  N   UNL     1       3.333   3.872  19.038  0.00  0.00    +0.000 N 
ATOM      2  C   UNL     1       2.677   5.122  18.655  0.00  0.00    +0.000 C 
ATOM      3  C   UNL     1       3.443   5.857  17.563  0.00  0.00    +0.000 C 
ATOM      4  C   UNL     1       4.892   5.977  17.952  0.00  0.00    +0.000 A 
ATOM      5  C   UNL     1       5.679   7.030  17.461  0.00  0.00    +0.000 A 
ATOM      6  C   UNL     1       7.033   7.123  17.798  0.00  0.00    +0.000 A 
ATOM      7  C   UNL     1       7.599   6.163  18.636  0.00  0.00    +0.000 A 
ATOM      8  C   UNL     1       6.835   5.094  19.104  0.00  0.00    +0.000 A 
ATOM      9  C   UNL     1       5.487   5.000  18.760  0.00  0.00    +0.000 A 
ATOM     10  C   UNL     1       4.710   3.828  19.246  0.00  0.00    +0.000 C 
ATOM     11  O   UNL     1       5.261   2.893  19.816  0.00  0.00    +0.000 OA
ENDROOT
BRANCH   1  12
ATOM     12  C   UNL     1       2.499   2.714  19.377  0.00  0.00    +0.000 C 
BRANCH  12  14
ATOM     13  O   UNL     1       2.462   2.716  21.803  0.00  0.00    +0.000 OA
ATOM     14  C   UNL     1       1.849   2.834  20.752  0.00  0.00    +0.000 C 
BRANCH  14  15
ATOM     15  O   UNL     1       0.535   3.155  20.709  0.00  0.00    +0.000 OA
ATOM     16  H   UNL     1      -0.002   2.352  20.540  0.00  0.00    +0.000 HD
ENDBRANCH  14  15
ENDBRANCH  12  14
ENDBRANCH   1  12
BRANCH   6  17
ATOM     17  O   UNL     1       7.688   8.180  17.236  0.00  0.00    +0.000 OA
BRANCH  17  18
ATOM     18  C   UNL     1       8.609   8.903  18.052  0.00  0.00    +0.000 C 
BRANCH  18  19
ATOM     19  C   UNL     1       8.244  10.384  18.029  0.00  0.00    +0.000 C 
BRANCH  19  20
ATOM     20  C   UNL     1       9.516  11.244  18.013  0.00  0.00    +0.000 C 
BRANCH  20  21
ATOM     21  C   UNL     1      10.271  11.280  19.355  0.00  0.00    +0.000 C 
ATOM     22  C   UNL     1       9.687  12.378  20.260  0.00  0.00    +0.000 C 
ATOM     23  C   UNL     1      10.060  13.786  19.784  0.00  0.00    +0.000 C 
ATOM     24  N   UNL     1      11.505  13.954  19.619  0.00  0.00    +0.000 NA
ATOM     25  C   UNL     1      12.072  12.946  18.718  0.00  0.00    +0.000 C 
ATOM     26  C   UNL     1      11.779  11.531  19.212  0.00  0.00    +0.000 C 
ATOM     27  H   UNL     1      11.953  13.861  20.531  0.00  0.00    +0.000 HD
ENDBRANCH  20  21
ENDBRANCH  19  20
ENDBRANCH  18  19
ENDBRANCH  17  18
ENDBRANCH   6  17
TORSDOF 8
ENDMDL
MODEL 4
REMARK VINA RESULT:      -7.6      5.515      7.739
REMARK  Name = 
REMARK  8 active torsions:
REMARK  status: ('A' for Active; 'I' for Inactive)
REMARK    1  A    between atoms: C_2  and  O_3
REMARK    2  A    between atoms: C_2  and  C_4
REMARK    3  A    between atoms: C_4  and  N_5
REMARK    4  A    between atoms: C_10  and  O_11
REMARK    5  A    between atoms: O_11  and  C_12
REMARK    6  A    between atoms: C_12  and  C_13
REMARK    7  A    between atoms: C_13  and  C_14
REMARK    8  A    between atoms: C_14  and  C_15
REMARK                            x       y       z     vdW  Elec       q    Type
REMARK                         _______ _______ _______ _____ _____    ______ ____
ROOT
ATOM      1  N   UNL     1       5.085   4.571  17.095  0.00  0.00    +0.000 N 
ATOM      2  C   UNL     1       5.077   3.924  18.408  0.00  0.00    +0.000 C 
ATOM      3  C   UNL     1       3.717   4.022  19.084  0.00  0.00    +0.000 C 
ATOM      4  C   UNL     1       3.238   5.449  19.061  0.00  0.00    +0.000 A 
ATOM      5  C   UNL     1       2.355   5.922  20.043  0.00  0.00    +0.000 A 
ATOM      6  C   UNL     1       1.886   7.239  20.002  0.00  0.00    +0.000 A 
ATOM      7  C   UNL     1       2.311   8.088  18.979  0.00  0.00    +0.000 A 
ATOM      8  C   UNL     1       3.163   7.619  17.980  0.00  0.00    +0.000 A 
ATOM      9  C   UNL     1       3.623   6.302  18.020  0.00  0.00    +0.000 A 
ATOM     10  C   UNL     1       4.501   5.823  16.918  0.00  0.00    +0.000 C 
ATOM     11  O   UNL     1       4.710   6.514  15.927  0.00  0.00    +0.000 OA
ENDROOT
BRANCH   1  12
ATOM     12  C   UNL     1       5.871   3.965  16.016  0.00  0.00    +0.000 C 
BRANCH  12  14
ATOM     13  O   UNL     1       7.654   5.284  15.030  0.00  0.00    +0.000 OA
ATOM     14  C   UNL     1       7.284   4.533  15.921  0.00  0.00    +0.000 C 
BRANCH  14  15
ATOM     15  O   UNL     1       8.082   4.189  16.959  0.00  0.00    +0.000 OA
ATOM     16  H   UNL     1       9.012   4.430  16.762  0.00  0.00    +0.000 HD
ENDBRANCH  14  15
ENDBRANCH  12  14
ENDBRANCH   1  12
BRANCH   6  17
ATOM     17  O   UNL     1       1.016   7.565  21.002  0.00  0.00    +0.000 OA
BRANCH  17  18
ATOM     18  C   UNL     1       1.042   8.903  21.497  0.00  0.00    +0.000 C 
BRANCH  18  19
ATOM     19  C   UNL     1      -0.316   9.555  21.251  0.00  0.00    +0.000 C 
BRANCH  19  20
ATOM     20  C   UNL     1      -0.132  10.943  20.622  0.00  0.00    +0.000 C 
BRANCH  20  21
ATOM     21  C   UNL     1       0.426  10.918  19.187  0.00  0.00    +0.000 C 
ATOM     22  C   UNL     1       0.713  12.351  18.706  0.00  0.00    +0.000 C 
ATOM     23  C   UNL     1      -0.571  13.133  18.407  0.00  0.00    +0.000 C 
ATOM     24  N   UNL     1      -1.447  12.429  17.469  0.00  0.00    +0.000 NA
ATOM     25  C   UNL     1      -1.773  11.078  17.936  0.00  0.00    +0.000 C 
ATOM     26  C   UNL     1      -0.511  10.251  18.169  0.00  0.00    +0.000 C 
ATOM     27  H   UNL     1      -0.973  12.354  16.569  0.00  0.00    +0.000 HD
ENDBRANCH  20  21
ENDBRANCH  19  20
ENDBRANCH  18  19
ENDBRANCH  17  18
ENDBRANCH   6  17
TORSDOF 8
ENDMDL
MODEL 5
REMARK VINA RESULT:      -7.5      5.217      7.613
REMARK  Name = 
REMARK  8 active torsions:
REMARK  status: ('A' for Active; 'I' for Inactive)
REMARK    1  A    between atoms: C_2  and  O_3
REMARK    2  A    between atoms: C_2  and  C_4
REMARK    3  A    between atoms: C_4  and  N_5
REMARK    4  A    between atoms: C_10  and  O_11
REMARK    5  A    between atoms: O_11  and  C_12
REMARK    6  A    between atoms: C_12  and  C_13
REMARK    7  A    between atoms: C_13  and  C_14
REMARK    8  A    between atoms: C_14  and  C_15
REMARK                            x       y       z     vdW  Elec       q    Type
REMARK                         _______ _______ _______ _____ _____    ______ ____
ROOT
ATOM      1  N   UNL     1       4.888   4.836  17.083  0.00  0.00    +0.000 N 
ATOM      2  C   UNL     1       4.368   6.084  16.521  0.00  0.00    +0.000 C 
ATOM      3  C   UNL     1       4.073   7.116  17.600  0.00  0.00    +0.000 C 
ATOM      4  C   UNL     1       3.235   6.493  18.684  0.00  0.00    +0.000 A 
ATOM      5  C   UNL     1       2.378   7.283  19.467  0.00  0.00    +0.000 A 
ATOM      6  C   UNL     1       1.624   6.709  20.494  0.00  0.00    +0.000 A 
ATOM      7  C   UNL     1       1.720   5.337  20.733  0.00  0.00    +0.000 A 
ATOM      8  C   UNL     1       2.591   4.549  19.983  0.00  0.00    +0.000 A 
ATOM      9  C   UNL     1       3.349   5.127  18.964  0.00  0.00    +0.000 A 
ATOM     10  C   UNL     1       4.296   4.264  18.207  0.00  0.00    +0.000 C 
ATOM     11  O   UNL     1       4.515   3.108  18.551  0.00  0.00    +0.000 OA
ENDROOT
BRANCH   1  12
ATOM     12  C   UNL     1       5.920   4.106  16.341  0.00  0.00    +0.000 C 
BRANCH  12  14
ATOM     13  O   UNL     1       8.095   4.329  17.395  0.00  0.00    +0.000 OA
ATOM     14  C   UNL     1       7.314   4.697  16.529  0.00  0.00    +0.000 C 
BRANCH  14  15
ATOM     15  O   UNL     1       7.645   5.624  15.601  0.00  0.00    +0.000 OA
ATOM     16  H   UNL     1       8.290   5.249  14.965  0.00  0.00    +0.000 HD
ENDBRANCH  14  15
ENDBRANCH  12  14
ENDBRANCH   1  12
BRANCH   6  17
ATOM     17  O   UNL     1       0.850   7.589  21.193  0.00  0.00    +0.000 OA
BRANCH  17  18
ATOM     18  C   UNL     1       1.196   8.972  21.135  0.00  0.00    +0.000 C 
BRANCH  18  19
ATOM     19  C   UNL     1       0.055   9.800  21.718  0.00  0.00    +0.000 C 
BRANCH  19  20
ATOM     20  C   UNL     1      -0.427  10.836  20.692  0.00  0.00    +0.000 C 
BRANCH  20  21
ATOM     21  C   UNL     1       0.126  10.622  19.271  0.00  0.00    +0.000 C 
ATOM     22  C   UNL     1       0.799  11.911  18.767  0.00  0.00    +0.000 C 
ATOM     23  C   UNL     1      -0.218  13.003  18.422  0.00  0.00    +0.000 C 
ATOM     24  N   UNL     1      -1.238  12.540  17.480  0.00  0.00    +0.000 NA
ATOM     25  C   UNL     1      -1.926  11.341  17.968  0.00  0.00    +0.000 C 
ATOM     26  C   UNL     1      -0.940  10.208  18.247  0.00  0.00    +0.000 C 
ATOM     27  H   UNL     1      -0.788  12.315  16.592  0.00  0.00    +0.000 HD
ENDBRANCH  20  21
ENDBRANCH  19  20
ENDBRANCH  18  19
ENDBRANCH  17  18
ENDBRANCH   6  17
TORSDOF 8
ENDMDL
MODEL 6
REMARK VINA RESULT:      -7.5      1.405      2.212
REMARK  Name = 
REMARK  8 active torsions:
REMARK  status: ('A' for Active; 'I' for Inactive)
REMARK    1  A    between atoms: C_2  and  O_3
REMARK    2  A    between atoms: C_2  and  C_4
REMARK    3  A    between atoms: C_4  and  N_5
REMARK    4  A    between atoms: C_10  and  O_11
REMARK    5  A    between atoms: O_11  and  C_12
REMARK    6  A    between atoms: C_12  and  C_13
REMARK    7  A    between atoms: C_13  and  C_14
REMARK    8  A    between atoms: C_14  and  C_15
REMARK                            x       y       z     vdW  Elec       q    Type
REMARK                         _______ _______ _______ _____ _____    ______ ____
ROOT
ATOM      1  N   UNL     1       3.217   2.842  18.967  0.00  0.00    +0.000 N 
ATOM      2  C   UNL     1       4.431   2.781  19.782  0.00  0.00    +0.000 C 
ATOM      3  C   UNL     1       5.119   4.135  19.885  0.00  0.00    +0.000 C 
ATOM      4  C   UNL     1       5.289   4.724  18.510  0.00  0.00    +0.000 A 
ATOM      5  C   UNL     1       6.329   5.629  18.244  0.00  0.00    +0.000 A 
ATOM      6  C   UNL     1       6.467   6.199  16.975  0.00  0.00    +0.000 A 
ATOM      7  C   UNL     1       5.566   5.857  15.966  0.00  0.00    +0.000 A 
ATOM      8  C   UNL     1       4.511   4.984  16.228  0.00  0.00    +0.000 A 
ATOM      9  C   UNL     1       4.371   4.423  17.497  0.00  0.00    +0.000 A 
ATOM     10  C   UNL     1       3.212   3.525  17.753  0.00  0.00    +0.000 C 
ATOM     11  O   UNL     1       2.322   3.385  16.921  0.00  0.00    +0.000 OA
ENDROOT
BRANCH   1  12
ATOM     12  C   UNL     1       2.064   2.025  19.359  0.00  0.00    +0.000 C 
BRANCH  12  14
ATOM     13  O   UNL     1       1.663   2.294  21.737  0.00  0.00    +0.000 OA
ATOM     14  C   UNL     1       1.344   2.568  20.589  0.00  0.00    +0.000 C 
BRANCH  14  15
ATOM     15  O   UNL     1       0.355   3.446  20.300  0.00  0.00    +0.000 OA
ATOM     16  H   UNL     1       0.299   4.132  20.999  0.00  0.00    +0.000 HD
ENDBRANCH  14  15
ENDBRANCH  12  14
ENDBRANCH   1  12
BRANCH   6  17
ATOM     17  O   UNL     1       7.504   7.079  16.856  0.00  0.00    +0.000 OA
BRANCH  17  18
ATOM     18  C   UNL     1       7.336   8.385  17.405  0.00  0.00    +0.000 C 
BRANCH  18  19
ATOM     19  C   UNL     1       8.583   8.760  18.199  0.00  0.00    +0.000 C 
BRANCH  19  20
ATOM     20  C   UNL     1       8.695  10.286  18.323  0.00  0.00    +0.000 C 
BRANCH  20  21
ATOM     21  C   UNL     1       9.936  10.768  19.098  0.00  0.00    +0.000 C 
ATOM     22  C   UNL     1       9.515  11.722  20.229  0.00  0.00    +0.000 C 
ATOM     23  C   UNL     1       9.067  13.089  19.701  0.00  0.00    +0.000 C 
ATOM     24  N   UNL     1      10.072  13.709  18.836  0.00  0.00    +0.000 NA
ATOM     25  C   UNL     1      10.448  12.834  17.722  0.00  0.00    +0.000 C 
ATOM     26  C   UNL     1      10.971  11.489  18.224  0.00  0.00    +0.000 C 
ATOM     27  H   UNL     1      10.906  13.906  19.389  0.00  0.00    +0.000 HD
ENDBRANCH  20  21
ENDBRANCH  19  20
ENDBRANCH  18  19
ENDBRANCH  17  18
ENDBRANCH   6  17
TORSDOF 8
ENDMDL
MODEL 7
REMARK VINA RESULT:      -7.5      1.373      1.783
REMARK  Name = 
REMARK  8 active torsions:
REMARK  status: ('A' for Active; 'I' for Inactive)
REMARK    1  A    between atoms: C_2  and  O_3
REMARK    2  A    between atoms: C_2  and  C_4
REMARK    3  A    between atoms: C_4  and  N_5
REMARK    4  A    between atoms: C_10  and  O_11
REMARK    5  A    between atoms: O_11  and  C_12
REMARK    6  A    between atoms: C_12  and  C_13
REMARK    7  A    between atoms: C_13  and  C_14
REMARK    8  A    between atoms: C_14  and  C_15
REMARK                            x       y       z     vdW  Elec       q    Type
REMARK                         _______ _______ _______ _____ _____    ______ ____
ROOT
ATOM      1  N   UNL     1       2.546   4.556  18.084  0.00  0.00    +0.000 N 
ATOM      2  C   UNL     1       2.438   5.895  18.664  0.00  0.00    +0.000 C 
ATOM      3  C   UNL     1       3.234   6.924  17.874  0.00  0.00    +0.000 C 
ATOM      4  C   UNL     1       4.637   6.422  17.653  0.00  0.00    +0.000 A 
ATOM      5  C   UNL     1       5.698   7.324  17.476  0.00  0.00    +0.000 A 
ATOM      6  C   UNL     1       6.995   6.857  17.241  0.00  0.00    +0.000 A 
ATOM      7  C   UNL     1       7.232   5.483  17.191  0.00  0.00    +0.000 A 
ATOM      8  C   UNL     1       6.179   4.579  17.333  0.00  0.00    +0.000 A 
ATOM      9  C   UNL     1       4.886   5.048  17.561  0.00  0.00    +0.000 A 
ATOM     10  C   UNL     1       3.780   4.058  17.671  0.00  0.00    +0.000 C 
ATOM     11  O   UNL     1       3.966   2.870  17.433  0.00  0.00    +0.000 OA
ENDROOT
BRANCH   1  12
ATOM     12  C   UNL     1       1.370   3.680  18.110  0.00  0.00    +0.000 C 
BRANCH  12  14
ATOM     13  O   UNL     1       0.969   3.074  20.426  0.00  0.00    +0.000 OA
ATOM     14  C   UNL     1       1.356   2.743  19.314  0.00  0.00    +0.000 C 
BRANCH  14  15
ATOM     15  O   UNL     1       1.745   1.479  19.028  0.00  0.00    +0.000 OA
ATOM     16  H   UNL     1       1.028   1.006  18.555  0.00  0.00    +0.000 HD
ENDBRANCH  14  15
ENDBRANCH  12  14
ENDBRANCH   1  12
BRANCH   6  17
ATOM     17  O   UNL     1       7.929   7.836  17.063  0.00  0.00    +0.000 OA
BRANCH  17  18
ATOM     18  C   UNL     1       8.376   8.546  18.217  0.00  0.00    +0.000 C 
BRANCH  18  19
ATOM     19  C   UNL     1       8.043  10.026  18.055  0.00  0.00    +0.000 C 
BRANCH  19  20
ATOM     20  C   UNL     1       9.322  10.871  18.142  0.00  0.00    +0.000 C 
BRANCH  20  21
ATOM     21  C   UNL     1      10.092  10.717  19.466  0.00  0.00    +0.000 C 
ATOM     22  C   UNL     1       9.249  11.259  20.634  0.00  0.00    +0.000 C 
ATOM     23  C   UNL     1       9.165  12.789  20.630  0.00  0.00    +0.000 C 
ATOM     24  N   UNL     1      10.485  13.420  20.596  0.00  0.00    +0.000 NA
ATOM     25  C   UNL     1      11.284  12.953  19.461  0.00  0.00    +0.000 C 
ATOM     26  C   UNL     1      11.449  11.435  19.482  0.00  0.00    +0.000 C 
ATOM     27  H   UNL     1      10.982  13.190  21.458  0.00  0.00    +0.000 HD
ENDBRANCH  20  21
ENDBRANCH  19  20
ENDBRANCH  18  19
ENDBRANCH  17  18
ENDBRANCH   6  17
TORSDOF 8
ENDMDL
MODEL 8
REMARK VINA RESULT:      -7.4      5.667      9.017
REMARK  Name = 
REMARK  8 active torsions:
REMARK  status: ('A' for Active; 'I' for Inactive)
REMARK    1  A    between atoms: C_2  and  O_3
REMARK    2  A    between atoms: C_2  and  C_4
REMARK    3  A    between atoms: C_4  and  N_5
REMARK    4  A    between atoms: C_10  and  O_11
REMARK    5  A    between atoms: O_11  and  C_12
REMARK    6  A    between atoms: C_12  and  C_13
REMARK    7  A    between atoms: C_13  and  C_14
REMARK    8  A    between atoms: C_14  and  C_15
REMARK                            x       y       z     vdW  Elec       q    Type
REMARK                         _______ _______ _______ _____ _____    ______ ____
ROOT
ATOM      1  N   UNL     1      -0.166  10.016  20.751  0.00  0.00    +0.000 N 
ATOM      2  C   UNL     1      -0.268   8.688  21.357  0.00  0.00    +0.000 C 
ATOM      3  C   UNL     1       1.070   7.961  21.366  0.00  0.00    +0.000 C 
ATOM      4  C   UNL     1       1.680   8.002  19.990  0.00  0.00    +0.000 A 
ATOM      5  C   UNL     1       2.566   6.997  19.572  0.00  0.00    +0.000 A 
ATOM      6  C   UNL     1       3.157   7.053  18.306  0.00  0.00    +0.000 A 
ATOM      7  C   UNL     1       2.852   8.113  17.452  0.00  0.00    +0.000 A 
ATOM      8  C   UNL     1       1.997   9.133  17.869  0.00  0.00    +0.000 A 
ATOM      9  C   UNL     1       1.416   9.079  19.135  0.00  0.00    +0.000 A 
ATOM     10  C   UNL     1       0.538  10.202  19.563  0.00  0.00    +0.000 C 
ATOM     11  O   UNL     1       0.432  11.218  18.885  0.00  0.00    +0.000 OA
ENDROOT
BRANCH   1  12
ATOM     12  C   UNL     1      -0.965  11.110  21.313  0.00  0.00    +0.000 C 
BRANCH  12  14
ATOM     13  O   UNL     1      -0.245  10.575  23.568  0.00  0.00    +0.000 OA
ATOM     14  C   UNL     1      -1.112  11.018  22.828  0.00  0.00    +0.000 C 
BRANCH  14  15
ATOM     15  O   UNL     1      -2.269  11.541  23.297  0.00  0.00    +0.000 OA
ATOM     16  H   UNL     1      -2.345  12.482  23.031  0.00  0.00    +0.000 HD
ENDBRANCH  14  15
ENDBRANCH  12  14
ENDBRANCH   1  12
BRANCH   6  17
ATOM     17  O   UNL     1       4.016   6.028  18.033  0.00  0.00    +0.000 OA
BRANCH  17  18
ATOM     18  C   UNL     1       4.792   5.505  19.109  0.00  0.00    +0.000 C 
BRANCH  18  19
ATOM     19  C   UNL     1       4.993   4.007  18.902  0.00  0.00    +0.000 C 
BRANCH  19  20
ATOM     20  C   UNL     1       3.682   3.356  18.436  0.00  0.00    +0.000 C 
BRANCH  20  21
ATOM     21  C   UNL     1       3.144   2.271  19.388  0.00  0.00    +0.000 C 
ATOM     22  C   UNL     1       1.824   1.697  18.843  0.00  0.00    +0.000 C 
ATOM     23  C   UNL     1       0.659   2.682  18.983  0.00  0.00    +0.000 C 
ATOM     24  N   UNL     1       0.496   3.162  20.356  0.00  0.00    +0.000 NA
ATOM     25  C   UNL     1       1.729   3.758  20.876  0.00  0.00    +0.000 C 
ATOM     26  C   UNL     1       2.893   2.770  20.818  0.00  0.00    +0.000 C 
ATOM     27  H   UNL     1       0.242   2.373  20.952  0.00  0.00    +0.000 HD
ENDBRANCH  20  21
ENDBRANCH  19  20
ENDBRANCH  18  19
ENDBRANCH  17  18
ENDBRANCH   6  17
TORSDOF 8
ENDMDL
MODEL 9
REMARK VINA RESULT:      -7.3      0.982      1.444
REMARK  Name = 
REMARK  8 active torsions:
REMARK  status: ('A' for Active; 'I' for Inactive)
REMARK    1  A    between atoms: C_2  and  O_3
REMARK    2  A    between atoms: C_2  and  C_4
REMARK    3  A    between atoms: C_4  and  N_5
REMARK    4  A    between atoms: C_10  and  O_11
REMARK    5  A    between atoms: O_11  and  C_12
REMARK    6  A    between atoms: C_12  and  C_13
REMARK    7  A    between atoms: C_13  and  C_14
REMARK    8  A    between atoms: C_14  and  C_15
REMARK                            x       y       z     vdW  Elec       q    Type
REMARK                         _______ _______ _______ _____ _____    ______ ____
ROOT
ATOM      1  N   UNL     1       3.255   4.470  18.363  0.00  0.00    +0.000 N 
ATOM      2  C   UNL     1       2.863   5.820  17.957  0.00  0.00    +0.000 C 
ATOM      3  C   UNL     1       3.924   6.486  17.091  0.00  0.00    +0.000 C 
ATOM      4  C   UNL     1       5.269   6.373  17.759  0.00  0.00    +0.000 A 
ATOM      5  C   UNL     1       6.272   7.322  17.509  0.00  0.00    +0.000 A 
ATOM      6  C   UNL     1       7.531   7.199  18.105  0.00  0.00    +0.000 A 
ATOM      7  C   UNL     1       7.784   6.127  18.961  0.00  0.00    +0.000 A 
ATOM      8  C   UNL     1       6.805   5.161  19.192  0.00  0.00    +0.000 A 
ATOM      9  C   UNL     1       5.553   5.282  18.589  0.00  0.00    +0.000 A 
ATOM     10  C   UNL     1       4.544   4.214  18.826  0.00  0.00    +0.000 C 
ATOM     11  O   UNL     1       4.840   3.183  19.420  0.00  0.00    +0.000 OA
ENDROOT
BRANCH   1  12
ATOM     12  C   UNL     1       2.223   3.432  18.447  0.00  0.00    +0.000 C 
BRANCH  12  14
ATOM     13  O   UNL     1       1.775   2.318  20.556  0.00  0.00    +0.000 OA
ATOM     14  C   UNL     1       1.626   3.301  19.844  0.00  0.00    +0.000 C 
BRANCH  14  15
ATOM     15  O   UNL     1       0.969   4.407  20.264  0.00  0.00    +0.000 OA
ATOM     16  H   UNL     1       1.435   4.805  21.029  0.00  0.00    +0.000 HD
ENDBRANCH  14  15
ENDBRANCH  12  14
ENDBRANCH   1  12
BRANCH   6  17
ATOM     17  O   UNL     1       8.421   8.175  17.761  0.00  0.00    +0.000 OA
BRANCH  17  18
ATOM     18  C   UNL     1       8.007   9.533  17.900  0.00  0.00    +0.000 C 
BRANCH  18  19
ATOM     19  C   UNL     1       9.049  10.294  18.715  0.00  0.00    +0.000 C 
BRANCH  19  20
ATOM     20  C   UNL     1       9.427  11.601  18.005  0.00  0.00    +0.000 C 
BRANCH  20  21
ATOM     21  C   UNL     1      10.935  11.758  17.730  0.00  0.00    +0.000 C 
ATOM     22  C   UNL     1      11.726  11.649  19.045  0.00  0.00    +0.000 C 
ATOM     23  C   UNL     1      11.556  12.889  19.930  0.00  0.00    +0.000 C 
ATOM     24  N   UNL     1      11.879  14.128  19.223  0.00  0.00    +0.000 NA
ATOM     25  C   UNL     1      11.097  14.273  17.992  0.00  0.00    +0.000 C 
ATOM     26  C   UNL     1      11.308  13.085  17.055  0.00  0.00    +0.000 C 
ATOM     27  H   UNL     1      12.869  14.119  18.977  0.00  0.00    +0.000 HD
ENDBRANCH  20  21
ENDBRANCH  19  20
ENDBRANCH  18  19
ENDBRANCH  17  18
ENDBRANCH   6  17
TORSDOF 8
ENDMDL
