MODEL 1
REMARK VINA RESULT:      -7.6      0.000      0.000
REMARK  Name = 
REMARK  6 active torsions:
REMARK  status: ('A' for Active; 'I' for Inactive)
REMARK    1  A    between atoms: C_1  and  C_2
REMARK    2  A    between atoms: C_2  and  C_3
REMARK    3  A    between atoms: C_7  and  C_9
REMARK    4  A    between atoms: C_9  and  N_10
REMARK    5  A    between atoms: C_11  and  C_13
REMARK    6  A    between atoms: C_19  and  C_20
REMARK                            x       y       z     vdW  Elec       q    Type
REMARK                         _______ _______ _______ _____ _____    ______ ____
ROOT
ATOM      1  C   UNL     1       2.532   3.567  20.002  0.00  0.00    +0.000 A 
ATOM      2  N   UNL     1       3.869   3.886  19.847  0.00  0.00    +0.000 NA
ATOM      3  C   UNL     1       4.264   3.593  18.636  0.00  0.00    +0.000 A 
ATOM      4  N   UNL     1       5.511   3.754  18.096  0.00  0.00    +0.000 N 
ATOM      5  C   UNL     1       6.444   4.570  18.701  0.00  0.00    +0.000 C 
ATOM      6  O   UNL     1       6.264   5.303  19.676  0.00  0.00    +0.000 OA
ATOM      7  S   UNL     1       3.085   2.911  17.609  0.00  0.00    +0.000 S 
ATOM      8  C   UNL     1       1.920   3.056  18.868  0.00  0.00    +0.000 A 
ATOM      9  C   UNL     1       0.501   2.646  18.685  0.00  0.00    +0.000 C 
ATOM     10  H   UNL     1       5.678   3.382  17.167  0.00  0.00    +0.000 HD
ENDROOT
BRANCH   1  12
ATOM     11  C   UNL     1       1.683   2.479  22.083  0.00  0.00    +0.000 C 
ATOM     12  C   UNL     1       1.918   3.788  21.345  0.00  0.00    +0.000 C 
ENDBRANCH   1  12
BRANCH   5  13
ATOM     13  C   UNL     1       7.768   4.643  17.948  0.00  0.00    +0.000 C 
BRANCH  13  14
ATOM     14  N   UNL     1       7.567   4.290  16.559  0.00  0.00    +0.000 N 
ATOM     15  C   UNL     1       7.161   5.227  15.640  0.00  0.00    +0.000 C 
ATOM     16  O   UNL     1       6.953   6.397  15.968  0.00  0.00    +0.000 OA
ATOM     17  H   UNL     1       7.949   3.408  16.243  0.00  0.00    +0.000 HD
BRANCH  15  18
ATOM     18  C   UNL     1       7.009   4.750  14.260  0.00  0.00    +0.000 A 
ATOM     19  C   UNL     1       7.724   5.160  13.084  0.00  0.00    +0.000 A 
ATOM     20  C   UNL     1       7.334   4.481  11.950  0.00  0.00    +0.000 A 
ATOM     21  S   UNL     1       6.104   3.344  12.278  0.00  0.00    +0.000 S 
ATOM     22  C   UNL     1       6.098   3.755  13.936  0.00  0.00    +0.000 A 
ENDBRANCH  15  18
ENDBRANCH  13  14
ENDBRANCH   5  13
TORSDOF 4
ENDMDL
MODEL 2
REMARK VINA RESULT:      -6.8      0.850      1.065
REMARK  Name = 
REMARK  6 active torsions:
REMARK  status: ('A' for Active; 'I' for Inactive)
REMARK    1  A    between atoms: C_1  and  C_2
REMARK    2  A    between atoms: C_2  and  C_3
REMARK    3  A    between atoms: C_7  and  C_9
REMARK    4  A    between atoms: C_9  and  N_10
REMARK    5  A    between atoms: C_11  and  C_13
REMARK    6  A    between atoms: C_19  and  C_20
REMARK                            x       y       z     vdW  Elec       q    Type
REMARK                         _______ _______ _______ _____ _____    ______ ____
ROOT
ATOM      1  C   UNL     1       2.110   3.987  19.698  0.00  0.00    +0.000 A 
ATOM      2  N   UNL     1       3.407   4.436  19.531  0.00  0.00    +0.000 NA
ATOM      3  C   UNL     1       4.045   3.671  18.686  0.00  0.00    +0.000 A 
ATOM      4  N   UNL     1       5.342   3.781  18.264  0.00  0.00    +0.000 N 
ATOM      5  C   UNL     1       6.050   4.949  18.453  0.00  0.00    +0.000 C 
ATOM      6  O   UNL     1       5.615   6.016  18.894  0.00  0.00    +0.000 OA
ATOM      7  S   UNL     1       3.156   2.365  18.043  0.00  0.00    +0.000 S 
ATOM      8  C   UNL     1       1.775   2.881  18.931  0.00  0.00    +0.000 A 
ATOM      9  C   UNL     1       0.468   2.173  18.846  0.00  0.00    +0.000 C 
ATOM     10  H   UNL     1       5.715   3.043  17.677  0.00  0.00    +0.000 HD
ENDROOT
BRANCH   1  12
ATOM     11  C   UNL     1       1.626   6.182  20.784  0.00  0.00    +0.000 C 
ATOM     12  C   UNL     1       1.242   4.714  20.671  0.00  0.00    +0.000 C 
ENDBRANCH   1  12
BRANCH   5  13
ATOM     13  C   UNL     1       7.472   4.895  17.901  0.00  0.00    +0.000 C 
BRANCH  13  14
ATOM     14  N   UNL     1       7.446   4.504  16.508  0.00  0.00    +0.000 N 
ATOM     15  C   UNL     1       6.689   5.192  15.591  0.00  0.00    +0.000 C 
ATOM     16  O   UNL     1       6.006   6.162  15.925  0.00  0.00    +0.000 OA
ATOM     17  H   UNL     1       8.166   3.867  16.191  0.00  0.00    +0.000 HD
BRANCH  15  18
ATOM     18  C   UNL     1       6.761   4.709  14.208  0.00  0.00    +0.000 A 
ATOM     19  C   UNL     1       7.692   5.073  13.176  0.00  0.00    +0.000 A 
ATOM     20  C   UNL     1       7.477   4.402  11.992  0.00  0.00    +0.000 A 
ATOM     21  S   UNL     1       6.155   3.329  12.098  0.00  0.00    +0.000 S 
ATOM     22  C   UNL     1       5.875   3.755  13.728  0.00  0.00    +0.000 A 
ENDBRANCH  15  18
ENDBRANCH  13  14
ENDBRANCH   5  13
TORSDOF 4
ENDMDL
MODEL 3
REMARK VINA RESULT:      -6.8      1.116      1.134
REMARK  Name = 
REMARK  6 active torsions:
REMARK  status: ('A' for Active; 'I' for Inactive)
REMARK    1  A    between atoms: C_1  and  C_2
REMARK    2  A    between atoms: C_2  and  C_3
REMARK    3  A    between atoms: C_7  and  C_9
REMARK    4  A    between atoms: C_9  and  N_10
REMARK    5  A    between atoms: C_11  and  C_13
REMARK    6  A    between atoms: C_19  and  C_20
REMARK                            x       y       z     vdW  Elec       q    Type
REMARK                         _______ _______ _______ _____ _____    ______ ____
ROOT
ATOM      1  C   UNL     1       2.864   3.023  19.855  0.00  0.00    +0.000 A 
ATOM      2  N   UNL     1       3.975   3.791  19.563  0.00  0.00    +0.000 NA
ATOM      3  C   UNL     1       3.886   4.272  18.351  0.00  0.00    +0.000 A 
ATOM      4  N   UNL     1       4.783   5.070  17.694  0.00  0.00    +0.000 N 
ATOM      5  C   UNL     1       5.771   5.741  18.383  0.00  0.00    +0.000 C 
ATOM      6  O   UNL     1       5.908   5.801  19.608  0.00  0.00    +0.000 OA
ATOM      7  S   UNL     1       2.488   3.837  17.476  0.00  0.00    +0.000 S 
ATOM      8  C   UNL     1       1.917   2.962  18.844  0.00  0.00    +0.000 A 
ATOM      9  C   UNL     1       0.605   2.259  18.843  0.00  0.00    +0.000 C 
ATOM     10  H   UNL     1       4.608   5.275  16.716  0.00  0.00    +0.000 HD
ENDROOT
BRANCH   1  12
ATOM     11  C   UNL     1       1.592   2.766  21.988  0.00  0.00    +0.000 C 
ATOM     12  C   UNL     1       2.816   2.349  21.187  0.00  0.00    +0.000 C 
ENDBRANCH   1  12
BRANCH   5  13
ATOM     13  C   UNL     1       6.663   6.596  17.490  0.00  0.00    +0.000 C 
BRANCH  13  14
ATOM     14  N   UNL     1       6.567   6.144  16.119  0.00  0.00    +0.000 N 
ATOM     15  C   UNL     1       7.226   5.015  15.695  0.00  0.00    +0.000 C 
ATOM     16  O   UNL     1       7.921   4.353  16.468  0.00  0.00    +0.000 OA
ATOM     17  H   UNL     1       5.831   6.542  15.549  0.00  0.00    +0.000 HD
BRANCH  15  18
ATOM     18  C   UNL     1       7.035   4.651  14.287  0.00  0.00    +0.000 A 
ATOM     19  C   UNL     1       7.736   5.137  13.130  0.00  0.00    +0.000 A 
ATOM     20  C   UNL     1       7.308   4.557  11.956  0.00  0.00    +0.000 A 
ATOM     21  S   UNL     1       6.060   3.423  12.221  0.00  0.00    +0.000 S 
ATOM     22  C   UNL     1       6.097   3.702  13.906  0.00  0.00    +0.000 A 
ENDBRANCH  15  18
ENDBRANCH  13  14
ENDBRANCH   5  13
TORSDOF 4
ENDMDL
MODEL 4
REMARK VINA RESULT:      -6.8      0.750      1.091
REMARK  Name = 
REMARK  6 active torsions:
REMARK  status: ('A' for Active; 'I' for Inactive)
REMARK    1  A    between atoms: C_1  and  C_2
REMARK    2  A    between atoms: C_2  and  C_3
REMARK    3  A    between atoms: C_7  and  C_9
REMARK    4  A    between atoms: C_9  and  N_10
REMARK    5  A    between atoms: C_11  and  C_13
REMARK    6  A    between atoms: C_19  and  C_20
REMARK                            x       y       z     vdW  Elec       q    Type
REMARK                         _______ _______ _______ _____ _____    ______ ____
ROOT
ATOM      1  C   UNL     1       2.835   2.810  19.923  0.00  0.00    +0.000 A 
ATOM      2  N   UNL     1       4.110   3.303  19.719  0.00  0.00    +0.000 NA
ATOM      3  C   UNL     1       4.318   3.502  18.444  0.00  0.00    +0.000 A 
ATOM      4  N   UNL     1       5.452   3.976  17.840  0.00  0.00    +0.000 N 
ATOM      5  C   UNL     1       6.427   4.620  18.572  0.00  0.00    +0.000 C 
ATOM      6  O   UNL     1       6.371   4.936  19.763  0.00  0.00    +0.000 OA
ATOM      7  S   UNL     1       3.024   3.108  17.405  0.00  0.00    +0.000 S 
ATOM      8  C   UNL     1       2.074   2.672  18.772  0.00  0.00    +0.000 A 
ATOM      9  C   UNL     1       0.666   2.205  18.642  0.00  0.00    +0.000 C 
ATOM     10  H   UNL     1       5.484   3.977  16.826  0.00  0.00    +0.000 HD
ENDROOT
BRANCH   1  12
ATOM     11  C   UNL     1       2.039   3.714  22.109  0.00  0.00    +0.000 C 
ATOM     12  C   UNL     1       2.436   2.474  21.322  0.00  0.00    +0.000 C 
ENDBRANCH   1  12
BRANCH   5  13
ATOM     13  C   UNL     1       7.606   5.095  17.729  0.00  0.00    +0.000 C 
BRANCH  13  14
ATOM     14  N   UNL     1       7.478   4.598  16.376  0.00  0.00    +0.000 N 
ATOM     15  C   UNL     1       6.696   5.248  15.452  0.00  0.00    +0.000 C 
ATOM     16  O   UNL     1       6.077   6.272  15.746  0.00  0.00    +0.000 OA
ATOM     17  H   UNL     1       8.149   3.905  16.070  0.00  0.00    +0.000 HD
BRANCH  15  18
ATOM     18  C   UNL     1       6.662   4.655  14.110  0.00  0.00    +0.000 A 
ATOM     19  C   UNL     1       5.751   3.677  13.583  0.00  0.00    +0.000 A 
ATOM     20  C   UNL     1       6.000   3.361  12.265  0.00  0.00    +0.000 A 
ATOM     21  S   UNL     1       7.330   4.229  11.641  0.00  0.00    +0.000 S 
ATOM     22  C   UNL     1       7.567   5.033  13.130  0.00  0.00    +0.000 A 
ENDBRANCH  15  18
ENDBRANCH  13  14
ENDBRANCH   5  13
TORSDOF 4
ENDMDL
MODEL 5
REMARK VINA RESULT:      -6.5      5.997      7.701
REMARK  Name = 
REMARK  6 active torsions:
REMARK  status: ('A' for Active; 'I' for Inactive)
REMARK    1  A    between atoms: C_1  and  C_2
REMARK    2  A    between atoms: C_2  and  C_3
REMARK    3  A    between atoms: C_7  and  C_9
REMARK    4  A    between atoms: C_9  and  N_10
REMARK    5  A    between atoms: C_11  and  C_13
REMARK    6  A    between atoms: C_19  and  C_20
REMARK                            x       y       z     vdW  Elec       q    Type
REMARK                         _______ _______ _______ _____ _____    ______ ____
ROOT
ATOM      1  C   UNL     1       2.760   3.931  19.983  0.00  0.00    +0.000 A 
ATOM      2  N   UNL     1       2.564   5.299  19.956  0.00  0.00    +0.000 NA
ATOM      3  C   UNL     1       2.686   5.748  18.735  0.00  0.00    +0.000 A 
ATOM      4  N   UNL     1       2.569   7.040  18.298  0.00  0.00    +0.000 N 
ATOM      5  C   UNL     1       1.972   8.002  19.085  0.00  0.00    +0.000 C 
ATOM      6  O   UNL     1       1.401   7.826  20.164  0.00  0.00    +0.000 OA
ATOM      7  S   UNL     1       3.052   4.584  17.544  0.00  0.00    +0.000 S 
ATOM      8  C   UNL     1       3.002   3.354  18.747  0.00  0.00    +0.000 A 
ATOM      9  C   UNL     1       3.221   1.918  18.420  0.00  0.00    +0.000 C 
ATOM     10  H   UNL     1       2.792   7.235  17.328  0.00  0.00    +0.000 HD
ENDROOT
BRANCH   1  12
ATOM     11  C   UNL     1       1.305   2.759  21.638  0.00  0.00    +0.000 C 
ATOM     12  C   UNL     1       2.707   3.248  21.311  0.00  0.00    +0.000 C 
ENDBRANCH   1  12
BRANCH   5  13
ATOM     13  C   UNL     1       1.913   9.377  18.426  0.00  0.00    +0.000 C 
BRANCH  13  14
ATOM     14  N   UNL     1       0.594   9.605  17.877  0.00  0.00    +0.000 N 
ATOM     15  C   UNL     1      -0.308  10.425  18.512  0.00  0.00    +0.000 C 
ATOM     16  O   UNL     1      -0.024  10.990  19.570  0.00  0.00    +0.000 OA
ATOM     17  H   UNL     1       0.438   9.336  16.914  0.00  0.00    +0.000 HD
BRANCH  15  18
ATOM     18  C   UNL     1      -1.605  10.590  17.847  0.00  0.00    +0.000 A 
ATOM     19  C   UNL     1      -2.124   9.891  16.704  0.00  0.00    +0.000 A 
ATOM     20  C   UNL     1      -3.397  10.291  16.358  0.00  0.00    +0.000 A 
ATOM     21  S   UNL     1      -3.988  11.509  17.397  0.00  0.00    +0.000 S 
ATOM     22  C   UNL     1      -2.546  11.497  18.312  0.00  0.00    +0.000 A 
ENDBRANCH  15  18
ENDBRANCH  13  14
ENDBRANCH   5  13
TORSDOF 4
ENDMDL
MODEL 6
REMARK VINA RESULT:      -6.5      6.249      8.153
REMARK  Name = 
REMARK  6 active torsions:
REMARK  status: ('A' for Active; 'I' for Inactive)
REMARK    1  A    between atoms: C_1  and  C_2
REMARK    2  A    between atoms: C_2  and  C_3
REMARK    3  A    between atoms: C_7  and  C_9
REMARK    4  A    between atoms: C_9  and  N_10
REMARK    5  A    between atoms: C_11  and  C_13
REMARK    6  A    between atoms: C_19  and  C_20
REMARK                            x       y       z     vdW  Elec       q    Type
REMARK                         _______ _______ _______ _____ _____    ______ ____
ROOT
ATOM      1  C   UNL     1       2.529   4.756  20.320  0.00  0.00    +0.000 A 
ATOM      2  N   UNL     1       2.003   5.964  20.738  0.00  0.00    +0.000 NA
ATOM      3  C   UNL     1       2.209   6.883  19.832  0.00  0.00    +0.000 A 
ATOM      4  N   UNL     1       1.845   8.203  19.874  0.00  0.00    +0.000 N 
ATOM      5  C   UNL     1       0.904   8.648  20.778  0.00  0.00    +0.000 C 
ATOM      6  O   UNL     1       0.226   7.958  21.542  0.00  0.00    +0.000 OA
ATOM      7  S   UNL     1       3.047   6.381  18.435  0.00  0.00    +0.000 S 
ATOM      8  C   UNL     1       3.109   4.779  19.061  0.00  0.00    +0.000 A 
ATOM      9  C   UNL     1       3.732   3.657  18.306  0.00  0.00    +0.000 C 
ATOM     10  H   UNL     1       2.170   8.808  19.128  0.00  0.00    +0.000 HD
ENDROOT
BRANCH   1  12
ATOM     11  C   UNL     1       1.146   2.809  21.045  0.00  0.00    +0.000 C 
ATOM     12  C   UNL     1       2.431   3.595  21.254  0.00  0.00    +0.000 C 
ENDBRANCH   1  12
BRANCH   5  13
ATOM     13  C   UNL     1       0.612  10.141  20.665  0.00  0.00    +0.000 C 
BRANCH  13  14
ATOM     14  N   UNL     1      -0.578  10.353  19.869  0.00  0.00    +0.000 N 
ATOM     15  C   UNL     1      -0.529  10.314  18.496  0.00  0.00    +0.000 C 
ATOM     16  O   UNL     1       0.528  10.100  17.899  0.00  0.00    +0.000 OA
ATOM     17  H   UNL     1      -1.470  10.301  20.343  0.00  0.00    +0.000 HD
BRANCH  15  18
ATOM     18  C   UNL     1      -1.804  10.526  17.802  0.00  0.00    +0.000 A 
ATOM     19  C   UNL     1      -2.263   9.949  16.569  0.00  0.00    +0.000 A 
ATOM     20  C   UNL     1      -3.531  10.358  16.219  0.00  0.00    +0.000 A 
ATOM     21  S   UNL     1      -4.191  11.439  17.362  0.00  0.00    +0.000 S 
ATOM     22  C   UNL     1      -2.784  11.355  18.328  0.00  0.00    +0.000 A 
ENDBRANCH  15  18
ENDBRANCH  13  14
ENDBRANCH   5  13
TORSDOF 4
ENDMDL
MODEL 7
REMARK VINA RESULT:      -6.4      6.404      8.313
REMARK  Name = 
REMARK  6 active torsions:
REMARK  status: ('A' for Active; 'I' for Inactive)
REMARK    1  A    between atoms: C_1  and  C_2
REMARK    2  A    between atoms: C_2  and  C_3
REMARK    3  A    between atoms: C_7  and  C_9
REMARK    4  A    between atoms: C_9  and  N_10
REMARK    5  A    between atoms: C_11  and  C_13
REMARK    6  A    between atoms: C_19  and  C_20
REMARK                            x       y       z     vdW  Elec       q    Type
REMARK                         _______ _______ _______ _____ _____    ______ ____
ROOT
ATOM      1  C   UNL     1       3.467   4.525  18.052  0.00  0.00    +0.000 A 
ATOM      2  N   UNL     1       2.954   5.791  17.841  0.00  0.00    +0.000 NA
ATOM      3  C   UNL     1       2.504   6.288  18.962  0.00  0.00    +0.000 A 
ATOM      4  N   UNL     1       1.918   7.509  19.167  0.00  0.00    +0.000 N 
ATOM      5  C   UNL     1       2.033   8.514  18.231  0.00  0.00    +0.000 C 
ATOM      6  O   UNL     1       2.719   8.497  17.206  0.00  0.00    +0.000 OA
ATOM      7  S   UNL     1       2.649   5.287  20.335  0.00  0.00    +0.000 S 
ATOM      8  C   UNL     1       3.424   4.092  19.368  0.00  0.00    +0.000 A 
ATOM      9  C   UNL     1       3.918   2.809  19.939  0.00  0.00    +0.000 C 
ATOM     10  H   UNL     1       1.533   7.702  20.085  0.00  0.00    +0.000 HD
ENDROOT
BRANCH   1  12
ATOM     11  C   UNL     1       5.288   4.371  16.350  0.00  0.00    +0.000 C 
ATOM     12  C   UNL     1       3.985   3.779  16.866  0.00  0.00    +0.000 C 
ENDBRANCH   1  12
BRANCH   5  13
ATOM     13  C   UNL     1       1.334   9.808  18.638  0.00  0.00    +0.000 C 
BRANCH  13  14
ATOM     14  N   UNL     1       0.088   9.944  17.914  0.00  0.00    +0.000 N 
ATOM     15  C   UNL     1      -0.920  10.752  18.383  0.00  0.00    +0.000 C 
ATOM     16  O   UNL     1      -0.797  11.384  19.434  0.00  0.00    +0.000 OA
ATOM     17  H   UNL     1       0.068   9.619  16.956  0.00  0.00    +0.000 HD
BRANCH  15  18
ATOM     18  C   UNL     1      -2.127  10.821  17.550  0.00  0.00    +0.000 A 
ATOM     19  C   UNL     1      -2.344  10.281  16.237  0.00  0.00    +0.000 A 
ATOM     20  C   UNL     1      -3.615  10.517  15.759  0.00  0.00    +0.000 A 
ATOM     21  S   UNL     1      -4.565  11.391  16.875  0.00  0.00    +0.000 S 
ATOM     22  C   UNL     1      -3.280  11.447  18.000  0.00  0.00    +0.000 A 
ENDBRANCH  15  18
ENDBRANCH  13  14
ENDBRANCH   5  13
TORSDOF 4
ENDMDL
MODEL 8
REMARK VINA RESULT:      -6.3      1.841      2.118
REMARK  Name = 
REMARK  6 active torsions:
REMARK  status: ('A' for Active; 'I' for Inactive)
REMARK    1  A    between atoms: C_1  and  C_2
REMARK    2  A    between atoms: C_2  and  C_3
REMARK    3  A    between atoms: C_7  and  C_9
REMARK    4  A    between atoms: C_9  and  N_10
REMARK    5  A    between atoms: C_11  and  C_13
REMARK    6  A    between atoms: C_19  and  C_20
REMARK                            x       y       z     vdW  Elec       q    Type
REMARK                         _______ _______ _______ _____ _____    ______ ____
ROOT
ATOM      1  C   UNL     1       2.206   5.102  20.215  0.00  0.00    +0.000 A 
ATOM      2  N   UNL     1       3.193   5.811  19.556  0.00  0.00    +0.000 NA
ATOM      3  C   UNL     1       4.135   5.001  19.151  0.00  0.00    +0.000 A 
ATOM      4  N   UNL     1       5.280   5.315  18.469  0.00  0.00    +0.000 N 
ATOM      5  C   UNL     1       5.412   6.531  17.832  0.00  0.00    +0.000 C 
ATOM      6  O   UNL     1       4.543   7.397  17.701  0.00  0.00    +0.000 OA
ATOM      7  S   UNL     1       3.920   3.353  19.535  0.00  0.00    +0.000 S 
ATOM      8  C   UNL     1       2.411   3.733  20.270  0.00  0.00    +0.000 A 
ATOM      9  C   UNL     1       1.537   2.687  20.870  0.00  0.00    +0.000 C 
ATOM     10  H   UNL     1       5.959   4.578  18.316  0.00  0.00    +0.000 HD
ENDROOT
BRANCH   1  12
ATOM     11  C   UNL     1       1.359   7.367  20.840  0.00  0.00    +0.000 C 
ATOM     12  C   UNL     1       1.066   5.875  20.794  0.00  0.00    +0.000 C 
ENDBRANCH   1  12
BRANCH   5  13
ATOM     13  C   UNL     1       6.745   6.697  17.108  0.00  0.00    +0.000 C 
BRANCH  13  14
ATOM     14  N   UNL     1       6.643   6.177  15.761  0.00  0.00    +0.000 N 
ATOM     15  C   UNL     1       7.091   4.916  15.451  0.00  0.00    +0.000 C 
ATOM     16  O   UNL     1       7.596   4.188  16.308  0.00  0.00    +0.000 OA
ATOM     17  H   UNL     1       6.034   6.668  15.118  0.00  0.00    +0.000 HD
BRANCH  15  18
ATOM     18  C   UNL     1       6.917   4.497  14.056  0.00  0.00    +0.000 A 
ATOM     19  C   UNL     1       7.704   4.849  12.907  0.00  0.00    +0.000 A 
ATOM     20  C   UNL     1       7.263   4.252  11.746  0.00  0.00    +0.000 A 
ATOM     21  S   UNL     1       5.899   3.263  12.015  0.00  0.00    +0.000 S 
ATOM     22  C   UNL     1       5.902   3.627  13.684  0.00  0.00    +0.000 A 
ENDBRANCH  15  18
ENDBRANCH  13  14
ENDBRANCH   5  13
TORSDOF 4
ENDMDL
MODEL 9
REMARK VINA RESULT:      -6.3      6.193      8.098
REMARK  Name = 
REMARK  6 active torsions:
REMARK  status: ('A' for Active; 'I' for Inactive)
REMARK    1  A    between atoms: C_1  and  C_2
REMARK    2  A    between atoms: C_2  and  C_3
REMARK    3  A    between atoms: C_7  and  C_9
REMARK    4  A    between atoms: C_9  and  N_10
REMARK    5  A    between atoms: C_11  and  C_13
REMARK    6  A    between atoms: C_19  and  C_20
REMARK                            x       y       z     vdW  Elec       q    Type
REMARK                         _______ _______ _______ _____ _____    ______ ____
ROOT
ATOM      1  C   UNL     1       2.784   4.291  20.208  0.00  0.00    +0.000 A 
ATOM      2  N   UNL     1       2.348   5.568  20.509  0.00  0.00    +0.000 NA
ATOM      3  C   UNL     1       2.488   6.349  19.471  0.00  0.00    +0.000 A 
ATOM      4  N   UNL     1       2.179   7.678  19.369  0.00  0.00    +0.000 N 
ATOM      5  C   UNL     1       1.355   8.285  20.295  0.00  0.00    +0.000 C 
ATOM      6  O   UNL     1       0.738   7.735  21.210  0.00  0.00    +0.000 OA
ATOM      7  S   UNL     1       3.155   5.627  18.077  0.00  0.00    +0.000 S 
ATOM      8  C   UNL     1       3.227   4.119  18.906  0.00  0.00    +0.000 A 
ATOM      9  C   UNL     1       3.726   2.879  18.251  0.00  0.00    +0.000 C 
ATOM     10  H   UNL     1       2.443   8.164  18.519  0.00  0.00    +0.000 HD
ENDROOT
BRANCH   1  12
ATOM     11  C   UNL     1       1.334   2.756  21.540  0.00  0.00    +0.000 C 
ATOM     12  C   UNL     1       2.745   3.269  21.296  0.00  0.00    +0.000 C 
ENDBRANCH   1  12
BRANCH   5  13
ATOM     13  C   UNL     1       1.106   9.763  20.010  0.00  0.00    +0.000 C 
BRANCH  13  14
ATOM     14  N   UNL     1       0.067   9.905  19.012  0.00  0.00    +0.000 N 
ATOM     15  C   UNL     1      -1.060  10.650  19.262  0.00  0.00    +0.000 C 
ATOM     16  O   UNL     1      -1.224  11.219  20.343  0.00  0.00    +0.000 OA
ATOM     17  H   UNL     1       0.295   9.639  18.063  0.00  0.00    +0.000 HD
BRANCH  15  18
ATOM     18  C   UNL     1      -2.031  10.733  18.165  0.00  0.00    +0.000 A 
ATOM     19  C   UNL     1      -3.266  11.465  18.111  0.00  0.00    +0.000 A 
ATOM     20  C   UNL     1      -3.922  11.332  16.907  0.00  0.00    +0.000 A 
ATOM     21  S   UNL     1      -3.069  10.326  15.824  0.00  0.00    +0.000 S 
ATOM     22  C   UNL     1      -1.820  10.075  16.962  0.00  0.00    +0.000 A 
ENDBRANCH  15  18
ENDBRANCH  13  14
ENDBRANCH   5  13
TORSDOF 4
ENDMDL
