MODEL 1
REMARK VINA RESULT:      -7.0      0.000      0.000
REMARK  Name = 
REMARK  8 active torsions:
REMARK  status: ('A' for Active; 'I' for Inactive)
REMARK    1  A    between atoms: C_1  and  O_2
REMARK    2  A    between atoms: O_2  and  C_3
REMARK    3  A    between atoms: C_3  and  C_4
REMARK    4  A    between atoms: N_6  and  C_7
REMARK    5  A    between atoms: C_10  and  C_11
REMARK    6  A    between atoms: C_11  and  O_12
REMARK    7  A    between atoms: C_11  and  C_13
REMARK    8  A    between atoms: N_19  and  C_20
REMARK                            x       y       z     vdW  Elec       q    Type
REMARK                         _______ _______ _______ _____ _____    ______ ____
ROOT
ATOM      1  C   UNL     1       1.297   9.141  19.704  0.00  0.00    +0.000 A 
ATOM      2  C   UNL     1       1.743   9.210  18.385  0.00  0.00    +0.000 A 
ATOM      3  C   UNL     1       2.433   8.156  17.802  0.00  0.00    +0.000 A 
ATOM      4  C   UNL     1       2.681   6.977  18.514  0.00  0.00    +0.000 A 
ATOM      5  C   UNL     1       2.284   6.927  19.863  0.00  0.00    +0.000 A 
ATOM      6  C   UNL     1       1.608   8.005  20.456  0.00  0.00    +0.000 A 
ENDROOT
BRANCH   1   9
ATOM      7  C   UNL     1      -0.665  10.646  19.881  0.00  0.00    +0.000 C 
ATOM      8  O   UNL     1      -1.393  10.117  19.043  0.00  0.00    +0.000 OA
ATOM      9  N   UNL     1       0.577  10.193  20.300  0.00  0.00    +0.000 N 
ATOM     10  H   UNL     1       0.975  10.632  21.125  0.00  0.00    +0.000 HD
BRANCH   7  11
ATOM     11  C   UNL     1      -1.106  11.933  20.563  0.00  0.00    +0.000 C 
BRANCH  11  13
ATOM     12  C   UNL     1      -1.460  11.700  22.885  0.00  0.00    +0.000 C 
ATOM     13  O   UNL     1      -0.547  12.105  21.862  0.00  0.00    +0.000 OA
ENDBRANCH  11  13
ENDBRANCH   7  11
ENDBRANCH   1   9
BRANCH   4  14
ATOM     14  C   UNL     1       3.427   5.823  17.869  0.00  0.00    +0.000 C 
BRANCH  14  15
ATOM     15  C   UNL     1       4.985   5.875  17.991  0.00  0.00    +0.000 C 
ATOM     16  C   UNL     1       5.515   4.764  18.918  0.00  0.00    +0.000 C 
ATOM     17  O   UNL     1       6.938   4.868  19.025  0.00  0.00    +0.000 OA
ATOM     18  C   UNL     1       7.540   4.619  17.765  0.00  0.00    +0.000 C 
ATOM     19  C   UNL     1       6.978   5.374  16.552  0.00  0.00    +0.000 C 
ATOM     20  O   UNL     1       7.645   5.488  15.523  0.00  0.00    +0.000 OA
ATOM     21  N   UNL     1       5.669   5.833  16.667  0.00  0.00    +0.000 N 
ATOM     22  C   UNL     1       5.110   6.609  15.568  0.00  0.00    +0.000 C 
ENDBRANCH  14  15
BRANCH  14  23
ATOM     23  O   UNL     1       2.950   4.556  18.345  0.00  0.00    +0.000 OA
ATOM     24  H   UNL     1       3.409   3.852  17.858  0.00  0.00    +0.000 HD
ENDBRANCH  14  23
ENDBRANCH   4  14
TORSDOF 6
ENDMDL
MODEL 2
REMARK VINA RESULT:      -6.9      0.092      1.028
REMARK  Name = 
REMARK  8 active torsions:
REMARK  status: ('A' for Active; 'I' for Inactive)
REMARK    1  A    between atoms: C_1  and  O_2
REMARK    2  A    between atoms: O_2  and  C_3
REMARK    3  A    between atoms: C_3  and  C_4
REMARK    4  A    between atoms: N_6  and  C_7
REMARK    5  A    between atoms: C_10  and  C_11
REMARK    6  A    between atoms: C_11  and  O_12
REMARK    7  A    between atoms: C_11  and  C_13
REMARK    8  A    between atoms: N_19  and  C_20
REMARK                            x       y       z     vdW  Elec       q    Type
REMARK                         _______ _______ _______ _____ _____    ______ ____
ROOT
ATOM      1  C   UNL     1       1.359   9.153  19.712  0.00  0.00    +0.000 A 
ATOM      2  C   UNL     1       1.600   7.977  20.420  0.00  0.00    +0.000 A 
ATOM      3  C   UNL     1       2.263   6.907  19.834  0.00  0.00    +0.000 A 
ATOM      4  C   UNL     1       2.734   6.987  18.519  0.00  0.00    +0.000 A 
ATOM      5  C   UNL     1       2.440   8.149  17.783  0.00  0.00    +0.000 A 
ATOM      6  C   UNL     1       1.747   9.218  18.372  0.00  0.00    +0.000 A 
ENDROOT
BRANCH   1   9
ATOM      7  C   UNL     1      -0.562  10.699  19.964  0.00  0.00    +0.000 C 
ATOM      8  O   UNL     1      -1.367  10.133  19.228  0.00  0.00    +0.000 OA
ATOM      9  N   UNL     1       0.707  10.252  20.302  0.00  0.00    +0.000 N 
ATOM     10  H   UNL     1       1.180  10.735  21.060  0.00  0.00    +0.000 HD
BRANCH   7  11
ATOM     11  C   UNL     1      -0.927  12.033  20.601  0.00  0.00    +0.000 C 
BRANCH  11  13
ATOM     12  C   UNL     1      -1.412  11.639  22.876  0.00  0.00    +0.000 C 
ATOM     13  O   UNL     1      -0.467  12.165  21.942  0.00  0.00    +0.000 OA
ENDBRANCH  11  13
ENDBRANCH   7  11
ENDBRANCH   1   9
BRANCH   4  14
ATOM     14  C   UNL     1       3.468   5.818  17.885  0.00  0.00    +0.000 C 
BRANCH  14  15
ATOM     15  C   UNL     1       5.028   5.869  17.983  0.00  0.00    +0.000 C 
ATOM     16  C   UNL     1       5.573   4.748  18.890  0.00  0.00    +0.000 C 
ATOM     17  O   UNL     1       6.997   4.851  18.976  0.00  0.00    +0.000 OA
ATOM     18  C   UNL     1       7.579   4.615  17.704  0.00  0.00    +0.000 C 
ATOM     19  C   UNL     1       6.998   5.382  16.508  0.00  0.00    +0.000 C 
ATOM     20  O   UNL     1       7.648   5.508  15.470  0.00  0.00    +0.000 OA
ATOM     21  N   UNL     1       5.691   5.840  16.648  0.00  0.00    +0.000 N 
ATOM     22  C   UNL     1       5.115   6.627  15.567  0.00  0.00    +0.000 C 
ENDBRANCH  14  15
BRANCH  14  23
ATOM     23  O   UNL     1       2.996   4.562  18.395  0.00  0.00    +0.000 OA
ATOM     24  H   UNL     1       3.090   4.567  19.361  0.00  0.00    +0.000 HD
ENDBRANCH  14  23
ENDBRANCH   4  14
TORSDOF 6
ENDMDL
MODEL 3
REMARK VINA RESULT:      -6.9      0.855      1.192
REMARK  Name = 
REMARK  8 active torsions:
REMARK  status: ('A' for Active; 'I' for Inactive)
REMARK    1  A    between atoms: C_1  and  O_2
REMARK    2  A    between atoms: O_2  and  C_3
REMARK    3  A    between atoms: C_3  and  C_4
REMARK    4  A    between atoms: N_6  and  C_7
REMARK    5  A    between atoms: C_10  and  C_11
REMARK    6  A    between atoms: C_11  and  O_12
REMARK    7  A    between atoms: C_11  and  C_13
REMARK    8  A    between atoms: N_19  and  C_20
REMARK                            x       y       z     vdW  Elec       q    Type
REMARK                         _______ _______ _______ _____ _____    ______ ____
ROOT
ATOM      1  C   UNL     1       1.311   9.096  19.577  0.00  0.00    +0.000 A 
ATOM      2  C   UNL     1       1.816   9.166  18.281  0.00  0.00    +0.000 A 
ATOM      3  C   UNL     1       2.530   8.111  17.728  0.00  0.00    +0.000 A 
ATOM      4  C   UNL     1       2.741   6.930  18.449  0.00  0.00    +0.000 A 
ATOM      5  C   UNL     1       2.284   6.880  19.777  0.00  0.00    +0.000 A 
ATOM      6  C   UNL     1       1.585   7.958  20.341  0.00  0.00    +0.000 A 
ENDROOT
BRANCH   1   9
ATOM      7  C   UNL     1      -0.665  10.589  19.683  0.00  0.00    +0.000 C 
ATOM      8  O   UNL     1      -1.365  10.046  18.831  0.00  0.00    +0.000 OA
ATOM      9  N   UNL     1       0.568  10.149  20.142  0.00  0.00    +0.000 N 
ATOM     10  H   UNL     1       0.938  10.600  20.973  0.00  0.00    +0.000 HD
BRANCH   7  11
ATOM     11  C   UNL     1      -1.134  11.880  20.340  0.00  0.00    +0.000 C 
BRANCH  11  13
ATOM     12  C   UNL     1      -0.400  13.351  18.647  0.00  0.00    +0.000 C 
ATOM     13  O   UNL     1      -1.518  12.883  19.405  0.00  0.00    +0.000 OA
ENDBRANCH  11  13
ENDBRANCH   7  11
ENDBRANCH   1   9
BRANCH   4  14
ATOM     14  C   UNL     1       3.513   5.775  17.836  0.00  0.00    +0.000 C 
BRANCH  14  15
ATOM     15  C   UNL     1       5.070   5.871  17.946  0.00  0.00    +0.000 C 
ATOM     16  C   UNL     1       5.603   5.050  19.137  0.00  0.00    +0.000 C 
ATOM     17  O   UNL     1       7.024   5.190  19.218  0.00  0.00    +0.000 OA
ATOM     18  C   UNL     1       7.635   4.621  18.072  0.00  0.00    +0.000 C 
ATOM     19  C   UNL     1       7.076   5.022  16.699  0.00  0.00    +0.000 C 
ATOM     20  O   UNL     1       7.748   4.866  15.680  0.00  0.00    +0.000 OA
ATOM     21  N   UNL     1       5.763   5.485  16.683  0.00  0.00    +0.000 N 
ATOM     22  C   UNL     1       5.205   5.937  15.416  0.00  0.00    +0.000 C 
ENDBRANCH  14  15
BRANCH  14  23
ATOM     23  O   UNL     1       3.072   4.513  18.356  0.00  0.00    +0.000 OA
ATOM     24  H   UNL     1       3.221   3.832  17.680  0.00  0.00    +0.000 HD
ENDBRANCH  14  23
ENDBRANCH   4  14
TORSDOF 6
ENDMDL
MODEL 4
REMARK VINA RESULT:      -6.9      1.008      1.008
REMARK  Name = 
REMARK  8 active torsions:
REMARK  status: ('A' for Active; 'I' for Inactive)
REMARK    1  A    between atoms: C_1  and  O_2
REMARK    2  A    between atoms: O_2  and  C_3
REMARK    3  A    between atoms: C_3  and  C_4
REMARK    4  A    between atoms: N_6  and  C_7
REMARK    5  A    between atoms: C_10  and  C_11
REMARK    6  A    between atoms: C_11  and  O_12
REMARK    7  A    between atoms: C_11  and  C_13
REMARK    8  A    between atoms: N_19  and  C_20
REMARK                            x       y       z     vdW  Elec       q    Type
REMARK                         _______ _______ _______ _____ _____    ______ ____
ROOT
ATOM      1  C   UNL     1       1.111   9.190  19.753  0.00  0.00    +0.000 A 
ATOM      2  C   UNL     1       1.485   9.218  18.410  0.00  0.00    +0.000 A 
ATOM      3  C   UNL     1       2.218   8.183  17.845  0.00  0.00    +0.000 A 
ATOM      4  C   UNL     1       2.582   7.064  18.602  0.00  0.00    +0.000 A 
ATOM      5  C   UNL     1       2.257   7.060  19.970  0.00  0.00    +0.000 A 
ATOM      6  C   UNL     1       1.538   8.120  20.543  0.00  0.00    +0.000 A 
ENDROOT
BRANCH   1   9
ATOM      7  C   UNL     1       0.799  11.517  20.548  0.00  0.00    +0.000 C 
ATOM      8  O   UNL     1       1.849  12.006  20.138  0.00  0.00    +0.000 OA
ATOM      9  N   UNL     1       0.350  10.222  20.333  0.00  0.00    +0.000 N 
ATOM     10  H   UNL     1      -0.615  10.021  20.577  0.00  0.00    +0.000 HD
BRANCH   7  11
ATOM     11  C   UNL     1      -0.152  12.359  21.387  0.00  0.00    +0.000 C 
BRANCH  11  13
ATOM     12  C   UNL     1      -1.661  12.098  23.182  0.00  0.00    +0.000 C 
ATOM     13  O   UNL     1      -0.335  11.859  22.708  0.00  0.00    +0.000 OA
ENDBRANCH  11  13
ENDBRANCH   7  11
ENDBRANCH   1   9
BRANCH   4  14
ATOM     14  C   UNL     1       3.374   5.929  17.977  0.00  0.00    +0.000 C 
BRANCH  14  15
ATOM     15  C   UNL     1       4.928   6.035  18.117  0.00  0.00    +0.000 C 
ATOM     16  C   UNL     1       5.478   4.986  19.104  0.00  0.00    +0.000 C 
ATOM     17  O   UNL     1       6.895   5.139  19.225  0.00  0.00    +0.000 OA
ATOM     18  C   UNL     1       7.523   4.848  17.987  0.00  0.00    +0.000 C 
ATOM     19  C   UNL     1       6.957   5.525  16.731  0.00  0.00    +0.000 C 
ATOM     20  O   UNL     1       7.635   5.611  15.707  0.00  0.00    +0.000 OA
ATOM     21  N   UNL     1       5.633   5.949  16.806  0.00  0.00    +0.000 N 
ATOM     22  C   UNL     1       5.067   6.654  15.663  0.00  0.00    +0.000 C 
ENDBRANCH  14  15
BRANCH  14  23
ATOM     23  O   UNL     1       2.934   4.651  18.460  0.00  0.00    +0.000 OA
ATOM     24  H   UNL     1       2.713   4.093  17.697  0.00  0.00    +0.000 HD
ENDBRANCH  14  23
ENDBRANCH   4  14
TORSDOF 6
ENDMDL
MODEL 5
REMARK VINA RESULT:      -6.8      0.913      1.581
REMARK  Name = 
REMARK  8 active torsions:
REMARK  status: ('A' for Active; 'I' for Inactive)
REMARK    1  A    between atoms: C_1  and  O_2
REMARK    2  A    between atoms: O_2  and  C_3
REMARK    3  A    between atoms: C_3  and  C_4
REMARK    4  A    between atoms: N_6  and  C_7
REMARK    5  A    between atoms: C_10  and  C_11
REMARK    6  A    between atoms: C_11  and  O_12
REMARK    7  A    between atoms: C_11  and  C_13
REMARK    8  A    between atoms: N_19  and  C_20
REMARK                            x       y       z     vdW  Elec       q    Type
REMARK                         _______ _______ _______ _____ _____    ______ ____
ROOT
ATOM      1  C   UNL     1       1.246   9.404  19.316  0.00  0.00    +0.000 A 
ATOM      2  C   UNL     1       1.473   8.344  20.193  0.00  0.00    +0.000 A 
ATOM      3  C   UNL     1       2.164   7.210  19.790  0.00  0.00    +0.000 A 
ATOM      4  C   UNL     1       2.680   7.107  18.493  0.00  0.00    +0.000 A 
ATOM      5  C   UNL     1       2.402   8.147  17.589  0.00  0.00    +0.000 A 
ATOM      6  C   UNL     1       1.681   9.281  17.994  0.00  0.00    +0.000 A 
ENDROOT
BRANCH   1   9
ATOM      7  C   UNL     1      -0.747  10.876  19.391  0.00  0.00    +0.000 C 
ATOM      8  O   UNL     1      -1.558  10.134  18.842  0.00  0.00    +0.000 OA
ATOM      9  N   UNL     1       0.565  10.568  19.719  0.00  0.00    +0.000 N 
ATOM     10  H   UNL     1       1.053  11.216  20.329  0.00  0.00    +0.000 HD
BRANCH   7  11
ATOM     11  C   UNL     1      -1.153  12.292  19.773  0.00  0.00    +0.000 C 
BRANCH  11  13
ATOM     12  C   UNL     1      -0.094  14.223  18.924  0.00  0.00    +0.000 C 
ATOM     13  O   UNL     1      -0.048  13.182  19.902  0.00  0.00    +0.000 OA
ENDBRANCH  11  13
ENDBRANCH   7  11
ENDBRANCH   1   9
BRANCH   4  14
ATOM     14  C   UNL     1       3.445   5.869  18.059  0.00  0.00    +0.000 C 
BRANCH  14  15
ATOM     15  C   UNL     1       5.002   5.973  18.148  0.00  0.00    +0.000 C 
ATOM     16  C   UNL     1       5.582   4.939  19.133  0.00  0.00    +0.000 C 
ATOM     17  O   UNL     1       7.003   5.090  19.206  0.00  0.00    +0.000 OA
ATOM     18  C   UNL     1       7.590   4.780  17.952  0.00  0.00    +0.000 C 
ATOM     19  C   UNL     1       6.985   5.440  16.705  0.00  0.00    +0.000 C 
ATOM     20  O   UNL     1       7.630   5.509  15.659  0.00  0.00    +0.000 OA
ATOM     21  N   UNL     1       5.665   5.867  16.816  0.00  0.00    +0.000 N 
ATOM     22  C   UNL     1       5.064   6.556  15.682  0.00  0.00    +0.000 C 
ENDBRANCH  14  15
BRANCH  14  23
ATOM     23  O   UNL     1       3.001   4.701  18.767  0.00  0.00    +0.000 OA
ATOM     24  H   UNL     1       3.751   4.343  19.270  0.00  0.00    +0.000 HD
ENDBRANCH  14  23
ENDBRANCH   4  14
TORSDOF 6
ENDMDL
MODEL 6
REMARK VINA RESULT:      -6.5      1.126      1.582
REMARK  Name = 
REMARK  8 active torsions:
REMARK  status: ('A' for Active; 'I' for Inactive)
REMARK    1  A    between atoms: C_1  and  O_2
REMARK    2  A    between atoms: O_2  and  C_3
REMARK    3  A    between atoms: C_3  and  C_4
REMARK    4  A    between atoms: N_6  and  C_7
REMARK    5  A    between atoms: C_10  and  C_11
REMARK    6  A    between atoms: C_11  and  O_12
REMARK    7  A    between atoms: C_11  and  C_13
REMARK    8  A    between atoms: N_19  and  C_20
REMARK                            x       y       z     vdW  Elec       q    Type
REMARK                         _______ _______ _______ _____ _____    ______ ____
ROOT
ATOM      1  C   UNL     1       1.455   8.592  20.343  0.00  0.00    +0.000 A 
ATOM      2  C   UNL     1       1.764   7.302  20.768  0.00  0.00    +0.000 A 
ATOM      3  C   UNL     1       2.375   6.390  19.918  0.00  0.00    +0.000 A 
ATOM      4  C   UNL     1       2.724   6.749  18.611  0.00  0.00    +0.000 A 
ATOM      5  C   UNL     1       2.361   8.030  18.161  0.00  0.00    +0.000 A 
ATOM      6  C   UNL     1       1.721   8.940  19.016  0.00  0.00    +0.000 A 
ENDROOT
BRANCH   1   9
ATOM      7  C   UNL     1      -0.295   9.312  21.943  0.00  0.00    +0.000 C 
ATOM      8  O   UNL     1      -0.877   8.240  22.091  0.00  0.00    +0.000 OA
ATOM      9  N   UNL     1       0.855   9.533  21.201  0.00  0.00    +0.000 N 
ATOM     10  H   UNL     1       1.318  10.428  21.321  0.00  0.00    +0.000 HD
BRANCH   7  11
ATOM     11  C   UNL     1      -0.840  10.568  22.609  0.00  0.00    +0.000 C 
BRANCH  11  13
ATOM     12  C   UNL     1      -1.103  12.908  22.465  0.00  0.00    +0.000 C 
ATOM     13  O   UNL     1      -0.879  11.696  21.742  0.00  0.00    +0.000 OA
ENDBRANCH  11  13
ENDBRANCH   7  11
ENDBRANCH   1   9
BRANCH   4  14
ATOM     14  C   UNL     1       3.402   5.751  17.688  0.00  0.00    +0.000 C 
BRANCH  14  15
ATOM     15  C   UNL     1       4.964   5.726  17.754  0.00  0.00    +0.000 C 
ATOM     16  C   UNL     1       5.476   4.502  18.538  0.00  0.00    +0.000 C 
ATOM     17  O   UNL     1       6.905   4.535  18.599  0.00  0.00    +0.000 OA
ATOM     18  C   UNL     1       7.451   4.397  17.297  0.00  0.00    +0.000 C 
ATOM     19  C   UNL     1       6.882   5.299  16.193  0.00  0.00    +0.000 C 
ATOM     20  O   UNL     1       7.517   5.496  15.157  0.00  0.00    +0.000 OA
ATOM     21  N   UNL     1       5.600   5.797  16.407  0.00  0.00    +0.000 N 
ATOM     22  C   UNL     1       5.038   6.707  15.418  0.00  0.00    +0.000 C 
ENDBRANCH  14  15
BRANCH  14  23
ATOM     23  O   UNL     1       2.893   4.424  17.883  0.00  0.00    +0.000 OA
ATOM     24  H   UNL     1       3.390   3.816  17.311  0.00  0.00    +0.000 HD
ENDBRANCH  14  23
ENDBRANCH   4  14
TORSDOF 6
ENDMDL
MODEL 7
REMARK VINA RESULT:      -6.4      2.335      3.298
REMARK  Name = 
REMARK  8 active torsions:
REMARK  status: ('A' for Active; 'I' for Inactive)
REMARK    1  A    between atoms: C_1  and  O_2
REMARK    2  A    between atoms: O_2  and  C_3
REMARK    3  A    between atoms: C_3  and  C_4
REMARK    4  A    between atoms: N_6  and  C_7
REMARK    5  A    between atoms: C_10  and  C_11
REMARK    6  A    between atoms: C_11  and  O_12
REMARK    7  A    between atoms: C_11  and  C_13
REMARK    8  A    between atoms: N_19  and  C_20
REMARK                            x       y       z     vdW  Elec       q    Type
REMARK                         _______ _______ _______ _____ _____    ______ ____
ROOT
ATOM      1  C   UNL     1       0.975   9.584  19.297  0.00  0.00    +0.000 A 
ATOM      2  C   UNL     1       1.580   9.400  18.055  0.00  0.00    +0.000 A 
ATOM      3  C   UNL     1       2.374   8.290  17.799  0.00  0.00    +0.000 A 
ATOM      4  C   UNL     1       2.570   7.306  18.774  0.00  0.00    +0.000 A 
ATOM      5  C   UNL     1       2.009   7.518  20.046  0.00  0.00    +0.000 A 
ATOM      6  C   UNL     1       1.227   8.655  20.308  0.00  0.00    +0.000 A 
ENDROOT
BRANCH   1   9
ATOM      7  C   UNL     1      -1.139  10.861  19.080  0.00  0.00    +0.000 C 
ATOM      8  O   UNL     1      -1.814  10.023  18.487  0.00  0.00    +0.000 OA
ATOM      9  N   UNL     1       0.151  10.694  19.563  0.00  0.00    +0.000 N 
ATOM     10  H   UNL     1       0.506  11.411  20.188  0.00  0.00    +0.000 HD
BRANCH   7  11
ATOM     11  C   UNL     1      -1.711  12.248  19.341  0.00  0.00    +0.000 C 
BRANCH  11  13
ATOM     12  C   UNL     1      -3.587  12.937  20.596  0.00  0.00    +0.000 C 
ATOM     13  O   UNL     1      -3.132  12.268  19.417  0.00  0.00    +0.000 OA
ENDBRANCH  11  13
ENDBRANCH   7  11
ENDBRANCH   1   9
BRANCH   4  14
ATOM     14  C   UNL     1       3.430   6.088  18.485  0.00  0.00    +0.000 C 
BRANCH  14  15
ATOM     15  C   UNL     1       2.759   4.705  18.772  0.00  0.00    +0.000 C 
ATOM     16  C   UNL     1       1.615   4.417  17.779  0.00  0.00    +0.000 C 
ATOM     17  O   UNL     1       1.011   3.160  18.096  0.00  0.00    +0.000 OA
ATOM     18  C   UNL     1       1.944   2.109  17.904  0.00  0.00    +0.000 C 
ATOM     19  C   UNL     1       3.336   2.275  18.531  0.00  0.00    +0.000 C 
ATOM     20  O   UNL     1       4.060   1.297  18.714  0.00  0.00    +0.000 OA
ATOM     21  N   UNL     1       3.738   3.582  18.794  0.00  0.00    +0.000 N 
ATOM     22  C   UNL     1       5.024   3.790  19.446  0.00  0.00    +0.000 C 
ENDBRANCH  14  15
BRANCH  14  23
ATOM     23  O   UNL     1       3.935   6.107  17.142  0.00  0.00    +0.000 OA
ATOM     24  H   UNL     1       3.186   6.217  16.533  0.00  0.00    +0.000 HD
ENDBRANCH  14  23
ENDBRANCH   4  14
TORSDOF 6
ENDMDL
MODEL 8
REMARK VINA RESULT:      -6.4      2.226      3.392
REMARK  Name = 
REMARK  8 active torsions:
REMARK  status: ('A' for Active; 'I' for Inactive)
REMARK    1  A    between atoms: C_1  and  O_2
REMARK    2  A    between atoms: O_2  and  C_3
REMARK    3  A    between atoms: C_3  and  C_4
REMARK    4  A    between atoms: N_6  and  C_7
REMARK    5  A    between atoms: C_10  and  C_11
REMARK    6  A    between atoms: C_11  and  O_12
REMARK    7  A    between atoms: C_11  and  C_13
REMARK    8  A    between atoms: N_19  and  C_20
REMARK                            x       y       z     vdW  Elec       q    Type
REMARK                         _______ _______ _______ _____ _____    ______ ____
ROOT
ATOM      1  C   UNL     1       0.962   9.641  19.418  0.00  0.00    +0.000 A 
ATOM      2  C   UNL     1       1.166   8.623  20.348  0.00  0.00    +0.000 A 
ATOM      3  C   UNL     1       1.943   7.514  20.043  0.00  0.00    +0.000 A 
ATOM      4  C   UNL     1       2.567   7.395  18.797  0.00  0.00    +0.000 A 
ATOM      5  C   UNL     1       2.315   8.390  17.836  0.00  0.00    +0.000 A 
ATOM      6  C   UNL     1       1.509   9.498  18.141  0.00  0.00    +0.000 A 
ENDROOT
BRANCH   1   9
ATOM      7  C   UNL     1       0.559  11.768  20.625  0.00  0.00    +0.000 C 
ATOM      8  O   UNL     1       1.650  11.888  21.178  0.00  0.00    +0.000 OA
ATOM      9  N   UNL     1       0.194  10.781  19.722  0.00  0.00    +0.000 N 
ATOM     10  H   UNL     1      -0.675  10.917  19.215  0.00  0.00    +0.000 HD
BRANCH   7  11
ATOM     11  C   UNL     1      -0.554  12.764  20.920  0.00  0.00    +0.000 C 
BRANCH  11  13
ATOM     12  C   UNL     1      -1.499  11.834  22.872  0.00  0.00    +0.000 C 
ATOM     13  O   UNL     1      -1.710  12.167  21.498  0.00  0.00    +0.000 OA
ENDBRANCH  11  13
ENDBRANCH   7  11
ENDBRANCH   1   9
BRANCH   4  14
ATOM     14  C   UNL     1       3.425   6.184  18.472  0.00  0.00    +0.000 C 
BRANCH  14  15
ATOM     15  C   UNL     1       2.769   4.795  18.766  0.00  0.00    +0.000 C 
ATOM     16  C   UNL     1       1.638   4.482  17.767  0.00  0.00    +0.000 C 
ATOM     17  O   UNL     1       1.048   3.220  18.091  0.00  0.00    +0.000 OA
ATOM     18  C   UNL     1       1.996   2.180  17.916  0.00  0.00    +0.000 C 
ATOM     19  C   UNL     1       3.380   2.371  18.554  0.00  0.00    +0.000 C 
ATOM     20  O   UNL     1       4.115   1.404  18.753  0.00  0.00    +0.000 OA
ATOM     21  N   UNL     1       3.763   3.685  18.808  0.00  0.00    +0.000 N 
ATOM     22  C   UNL     1       5.040   3.917  19.469  0.00  0.00    +0.000 C 
ENDBRANCH  14  15
BRANCH  14  23
ATOM     23  O   UNL     1       3.889   6.217  17.115  0.00  0.00    +0.000 OA
ATOM     24  H   UNL     1       3.785   5.331  16.732  0.00  0.00    +0.000 HD
ENDBRANCH  14  23
ENDBRANCH   4  14
TORSDOF 6
ENDMDL
MODEL 9
REMARK VINA RESULT:      -6.4      1.770      1.997
REMARK  Name = 
REMARK  8 active torsions:
REMARK  status: ('A' for Active; 'I' for Inactive)
REMARK    1  A    between atoms: C_1  and  O_2
REMARK    2  A    between atoms: O_2  and  C_3
REMARK    3  A    between atoms: C_3  and  C_4
REMARK    4  A    between atoms: N_6  and  C_7
REMARK    5  A    between atoms: C_10  and  C_11
REMARK    6  A    between atoms: C_11  and  O_12
REMARK    7  A    between atoms: C_11  and  C_13
REMARK    8  A    between atoms: N_19  and  C_20
REMARK                            x       y       z     vdW  Elec       q    Type
REMARK                         _______ _______ _______ _____ _____    ______ ____
ROOT
ATOM      1  C   UNL     1       0.904   9.575  19.325  0.00  0.00    +0.000 A 
ATOM      2  C   UNL     1       1.473   9.300  18.083  0.00  0.00    +0.000 A 
ATOM      3  C   UNL     1       2.249   8.167  17.881  0.00  0.00    +0.000 A 
ATOM      4  C   UNL     1       2.463   7.249  18.916  0.00  0.00    +0.000 A 
ATOM      5  C   UNL     1       1.940   7.554  20.185  0.00  0.00    +0.000 A 
ATOM      6  C   UNL     1       1.177   8.713  20.390  0.00  0.00    +0.000 A 
ENDROOT
BRANCH   1   9
ATOM      7  C   UNL     1      -1.193  10.869  19.054  0.00  0.00    +0.000 C 
ATOM      8  O   UNL     1      -1.883  10.011  18.511  0.00  0.00    +0.000 OA
ATOM      9  N   UNL     1       0.098  10.709  19.537  0.00  0.00    +0.000 N 
ATOM     10  H   UNL     1       0.468  11.452  20.121  0.00  0.00    +0.000 HD
BRANCH   7  11
ATOM     11  C   UNL     1      -1.743  12.276  19.246  0.00  0.00    +0.000 C 
BRANCH  11  13
ATOM     12  C   UNL     1      -3.516  13.100  20.566  0.00  0.00    +0.000 C 
ATOM     13  O   UNL     1      -3.154  12.311  19.431  0.00  0.00    +0.000 OA
ENDBRANCH  11  13
ENDBRANCH   7  11
ENDBRANCH   1   9
BRANCH   4  14
ATOM     14  C   UNL     1       3.304   6.006  18.687  0.00  0.00    +0.000 C 
BRANCH  14  15
ATOM     15  C   UNL     1       4.176   6.011  17.389  0.00  0.00    +0.000 C 
ATOM     16  C   UNL     1       5.437   6.880  17.560  0.00  0.00    +0.000 C 
ATOM     17  O   UNL     1       6.187   6.880  16.341  0.00  0.00    +0.000 OA
ATOM     18  C   UNL     1       6.670   5.575  16.066  0.00  0.00    +0.000 C 
ATOM     19  C   UNL     1       5.664   4.419  16.144  0.00  0.00    +0.000 C 
ATOM     20  O   UNL     1       5.902   3.344  15.592  0.00  0.00    +0.000 OA
ATOM     21  N   UNL     1       4.535   4.638  16.930  0.00  0.00    +0.000 N 
ATOM     22  C   UNL     1       3.520   3.596  16.987  0.00  0.00    +0.000 C 
ENDBRANCH  14  15
BRANCH  14  23
ATOM     23  O   UNL     1       4.135   5.716  19.821  0.00  0.00    +0.000 OA
ATOM     24  H   UNL     1       4.048   6.443  20.459  0.00  0.00    +0.000 HD
ENDBRANCH  14  23
ENDBRANCH   4  14
TORSDOF 6
ENDMDL
