MODEL 1
REMARK VINA RESULT:      -6.5      0.000      0.000
REMARK  Name = 
REMARK  6 active torsions:
REMARK  status: ('A' for Active; 'I' for Inactive)
REMARK    1  A    between atoms: C_1  and  N_2
REMARK    2  A    between atoms: N_5  and  C_6
REMARK    3  A    between atoms: C_6  and  C_7
REMARK    4  A    between atoms: C_7  and  C_8
REMARK    5  A    between atoms: C_8  and  C_9
REMARK    6  A    between atoms: C_9  and  C_11
REMARK                            x       y       z     vdW  Elec       q    Type
REMARK                         _______ _______ _______ _____ _____    ______ ____
ROOT
ATOM      1  C   UNL     1       7.283   4.651  17.543  0.00  0.00    +0.000 C 
ENDROOT
BRANCH   1   2
ATOM      2  C   UNL     1       7.288   5.505  16.292  0.00  0.00    +0.000 C 
ATOM      3  O   UNL     1       7.625   6.689  16.302  0.00  0.00    +0.000 OA
BRANCH   2   4
ATOM      4  C   UNL     1       6.867   4.880  15.003  0.00  0.00    +0.000 A 
ATOM      5  C   UNL     1       7.588   5.064  13.813  0.00  0.00    +0.000 A 
ATOM      6  C   UNL     1       7.146   4.464  12.632  0.00  0.00    +0.000 A 
ATOM      7  C   UNL     1       5.997   3.683  12.641  0.00  0.00    +0.000 A 
ATOM      8  F   UNL     1       5.577   3.114  11.508  0.00  0.00    +0.000 F 
ATOM      9  C   UNL     1       5.273   3.489  13.810  0.00  0.00    +0.000 A 
ATOM     10  C   UNL     1       5.709   4.088  14.994  0.00  0.00    +0.000 A 
ENDBRANCH   2   4
ENDBRANCH   1   2
BRANCH   1  11
ATOM     11  C   UNL     1       6.883   5.462  18.774  0.00  0.00    +0.000 C 
BRANCH  11  12
ATOM     12  C   UNL     1       5.509   5.059  19.318  0.00  0.00    +0.000 C 
BRANCH  12  17
ATOM     13  C   UNL     1       0.922   4.030  20.434  0.00  0.00    +0.000 C 
ATOM     14  N   UNL     1       2.009   3.767  19.499  0.00  0.00    +0.000 NA
ATOM     15  C   UNL     1       3.161   3.148  20.178  0.00  0.00    +0.000 C 
ATOM     16  C   UNL     1       4.332   2.896  19.201  0.00  0.00    +0.000 C 
ATOM     17  N   UNL     1       4.793   4.097  18.464  0.00  0.00    +0.000 NA
ATOM     18  C   UNL     1       3.607   4.722  17.833  0.00  0.00    +0.000 C 
ATOM     19  C   UNL     1       2.431   4.995  18.803  0.00  0.00    +0.000 C 
ENDBRANCH  12  17
ENDBRANCH  11  12
ENDBRANCH   1  11
TORSDOF 5
ENDMDL
MODEL 2
REMARK VINA RESULT:      -6.3      1.322      1.833
REMARK  Name = 
REMARK  6 active torsions:
REMARK  status: ('A' for Active; 'I' for Inactive)
REMARK    1  A    between atoms: C_1  and  N_2
REMARK    2  A    between atoms: N_5  and  C_6
REMARK    3  A    between atoms: C_6  and  C_7
REMARK    4  A    between atoms: C_7  and  C_8
REMARK    5  A    between atoms: C_8  and  C_9
REMARK    6  A    between atoms: C_9  and  C_11
REMARK                            x       y       z     vdW  Elec       q    Type
REMARK                         _______ _______ _______ _____ _____    ______ ____
ROOT
ATOM      1  C   UNL     1       5.035   6.536  16.242  0.00  0.00    +0.000 C 
ENDROOT
BRANCH   1   2
ATOM      2  C   UNL     1       6.367   5.941  15.836  0.00  0.00    +0.000 C 
ATOM      3  O   UNL     1       7.398   6.126  16.482  0.00  0.00    +0.000 OA
BRANCH   2   4
ATOM      4  C   UNL     1       6.423   5.098  14.604  0.00  0.00    +0.000 A 
ATOM      5  C   UNL     1       5.432   4.149  14.303  0.00  0.00    +0.000 A 
ATOM      6  C   UNL     1       5.537   3.380  13.141  0.00  0.00    +0.000 A 
ATOM      7  C   UNL     1       6.617   3.562  12.286  0.00  0.00    +0.000 A 
ATOM      8  F   UNL     1       6.713   2.821  11.179  0.00  0.00    +0.000 F 
ATOM      9  C   UNL     1       7.604   4.498  12.569  0.00  0.00    +0.000 A 
ATOM     10  C   UNL     1       7.506   5.268  13.729  0.00  0.00    +0.000 A 
ENDBRANCH   2   4
ENDBRANCH   1   2
BRANCH   1  11
ATOM     11  C   UNL     1       4.660   6.148  17.671  0.00  0.00    +0.000 C 
BRANCH  11  12
ATOM     12  C   UNL     1       4.532   4.631  17.850  0.00  0.00    +0.000 C 
BRANCH  12  17
ATOM     13  C   UNL     1       1.473   2.780  21.099  0.00  0.00    +0.000 C 
ATOM     14  N   UNL     1       1.680   3.065  19.685  0.00  0.00    +0.000 NA
ATOM     15  C   UNL     1       2.838   2.321  19.155  0.00  0.00    +0.000 C 
ATOM     16  C   UNL     1       3.087   2.643  17.662  0.00  0.00    +0.000 C 
ATOM     17  N   UNL     1       3.257   4.083  17.359  0.00  0.00    +0.000 NA
ATOM     18  C   UNL     1       2.104   4.807  17.945  0.00  0.00    +0.000 C 
ATOM     19  C   UNL     1       1.851   4.508  19.443  0.00  0.00    +0.000 C 
ENDBRANCH  12  17
ENDBRANCH  11  12
ENDBRANCH   1  11
TORSDOF 5
ENDMDL
MODEL 3
REMARK VINA RESULT:      -6.2      3.809      6.720
REMARK  Name = 
REMARK  6 active torsions:
REMARK  status: ('A' for Active; 'I' for Inactive)
REMARK    1  A    between atoms: C_1  and  N_2
REMARK    2  A    between atoms: N_5  and  C_6
REMARK    3  A    between atoms: C_6  and  C_7
REMARK    4  A    between atoms: C_7  and  C_8
REMARK    5  A    between atoms: C_8  and  C_9
REMARK    6  A    between atoms: C_9  and  C_11
REMARK                            x       y       z     vdW  Elec       q    Type
REMARK                         _______ _______ _______ _____ _____    ______ ____
ROOT
ATOM      1  C   UNL     1       2.499   4.447  18.519  0.00  0.00    +0.000 C 
ENDROOT
BRANCH   1   2
ATOM      2  C   UNL     1       3.154   5.617  19.223  0.00  0.00    +0.000 C 
ATOM      3  O   UNL     1       4.227   5.513  19.818  0.00  0.00    +0.000 OA
BRANCH   2   4
ATOM      4  C   UNL     1       2.467   6.942  19.190  0.00  0.00    +0.000 A 
ATOM      5  C   UNL     1       1.902   7.520  20.339  0.00  0.00    +0.000 A 
ATOM      6  C   UNL     1       1.263   8.759  20.251  0.00  0.00    +0.000 A 
ATOM      7  C   UNL     1       1.194   9.417  19.030  0.00  0.00    +0.000 A 
ATOM      8  F   UNL     1       0.579  10.600  18.952  0.00  0.00    +0.000 F 
ATOM      9  C   UNL     1       1.750   8.861  17.885  0.00  0.00    +0.000 A 
ATOM     10  C   UNL     1       2.389   7.621  17.966  0.00  0.00    +0.000 A 
ENDBRANCH   2   4
ENDBRANCH   1   2
BRANCH   1  11
ATOM     11  C   UNL     1       3.056   4.259  17.109  0.00  0.00    +0.000 C 
BRANCH  11  12
ATOM     12  C   UNL     1       4.531   3.846  17.113  0.00  0.00    +0.000 C 
BRANCH  12  17
ATOM     13  C   UNL     1       7.984   7.010  18.300  0.00  0.00    +0.000 C 
ATOM     14  N   UNL     1       7.330   6.317  17.196  0.00  0.00    +0.000 NA
ATOM     15  C   UNL     1       5.904   6.678  17.109  0.00  0.00    +0.000 C 
ATOM     16  C   UNL     1       5.194   5.922  15.962  0.00  0.00    +0.000 C 
ATOM     17  N   UNL     1       5.317   4.447  16.023  0.00  0.00    +0.000 NA
ATOM     18  C   UNL     1       6.756   4.119  16.158  0.00  0.00    +0.000 C 
ATOM     19  C   UNL     1       7.477   4.856  17.312  0.00  0.00    +0.000 C 
ENDBRANCH  12  17
ENDBRANCH  11  12
ENDBRANCH   1  11
TORSDOF 5
ENDMDL
MODEL 4
REMARK VINA RESULT:      -6.2      1.403      2.015
REMARK  Name = 
REMARK  6 active torsions:
REMARK  status: ('A' for Active; 'I' for Inactive)
REMARK    1  A    between atoms: C_1  and  N_2
REMARK    2  A    between atoms: N_5  and  C_6
REMARK    3  A    between atoms: C_6  and  C_7
REMARK    4  A    between atoms: C_7  and  C_8
REMARK    5  A    between atoms: C_8  and  C_9
REMARK    6  A    between atoms: C_9  and  C_11
REMARK                            x       y       z     vdW  Elec       q    Type
REMARK                         _______ _______ _______ _____ _____    ______ ____
ROOT
ATOM      1  C   UNL     1       6.829   6.121  17.981  0.00  0.00    +0.000 C 
ENDROOT
BRANCH   1   2
ATOM      2  C   UNL     1       7.377   4.886  17.297  0.00  0.00    +0.000 C 
ATOM      3  O   UNL     1       8.221   4.159  17.823  0.00  0.00    +0.000 OA
BRANCH   2   4
ATOM      4  C   UNL     1       6.872   4.543  15.935  0.00  0.00    +0.000 A 
ATOM      5  C   UNL     1       5.792   3.668  15.737  0.00  0.00    +0.000 A 
ATOM      6  C   UNL     1       5.364   3.374  14.440  0.00  0.00    +0.000 A 
ATOM      7  C   UNL     1       6.004   3.954  13.352  0.00  0.00    +0.000 A 
ATOM      8  F   UNL     1       5.592   3.667  12.114  0.00  0.00    +0.000 F 
ATOM      9  C   UNL     1       7.072   4.824  13.531  0.00  0.00    +0.000 A 
ATOM     10  C   UNL     1       7.506   5.120  14.825  0.00  0.00    +0.000 A 
ENDBRANCH   2   4
ENDBRANCH   1   2
BRANCH   1  11
ATOM     11  C   UNL     1       5.338   6.300  17.702  0.00  0.00    +0.000 C 
BRANCH  11  12
ATOM     12  C   UNL     1       4.460   5.542  18.703  0.00  0.00    +0.000 C 
BRANCH  12  17
ATOM     13  C   UNL     1       1.431   2.798  21.280  0.00  0.00    +0.000 C 
ATOM     14  N   UNL     1       1.525   3.835  20.260  0.00  0.00    +0.000 NA
ATOM     15  C   UNL     1       2.234   3.346  19.064  0.00  0.00    +0.000 C 
ATOM     16  C   UNL     1       2.369   4.450  17.989  0.00  0.00    +0.000 C 
ATOM     17  N   UNL     1       3.016   5.697  18.460  0.00  0.00    +0.000 NA
ATOM     18  C   UNL     1       2.311   6.136  19.687  0.00  0.00    +0.000 C 
ATOM     19  C   UNL     1       2.183   5.046  20.779  0.00  0.00    +0.000 C 
ENDBRANCH  12  17
ENDBRANCH  11  12
ENDBRANCH   1  11
TORSDOF 5
ENDMDL
MODEL 5
REMARK VINA RESULT:      -6.2      3.951      6.660
REMARK  Name = 
REMARK  6 active torsions:
REMARK  status: ('A' for Active; 'I' for Inactive)
REMARK    1  A    between atoms: C_1  and  N_2
REMARK    2  A    between atoms: N_5  and  C_6
REMARK    3  A    between atoms: C_6  and  C_7
REMARK    4  A    between atoms: C_7  and  C_8
REMARK    5  A    between atoms: C_8  and  C_9
REMARK    6  A    between atoms: C_9  and  C_11
REMARK                            x       y       z     vdW  Elec       q    Type
REMARK                         _______ _______ _______ _____ _____    ______ ____
ROOT
ATOM      1  C   UNL     1       3.490   3.632  17.371  0.00  0.00    +0.000 C 
ENDROOT
BRANCH   1   2
ATOM      2  C   UNL     1       2.126   4.104  17.830  0.00  0.00    +0.000 C 
ATOM      3  O   UNL     1       1.088   3.513  17.532  0.00  0.00    +0.000 OA
BRANCH   2   4
ATOM      4  C   UNL     1       2.046   5.333  18.675  0.00  0.00    +0.000 A 
ATOM      5  C   UNL     1       2.360   6.606  18.173  0.00  0.00    +0.000 A 
ATOM      6  C   UNL     1       2.277   7.723  19.009  0.00  0.00    +0.000 A 
ATOM      7  C   UNL     1       1.877   7.569  20.331  0.00  0.00    +0.000 A 
ATOM      8  F   UNL     1       1.802   8.639  21.126  0.00  0.00    +0.000 F 
ATOM      9  C   UNL     1       1.560   6.316  20.842  0.00  0.00    +0.000 A 
ATOM     10  C   UNL     1       1.643   5.196  20.011  0.00  0.00    +0.000 A 
ENDBRANCH   2   4
ENDBRANCH   1   2
BRANCH   1  11
ATOM     11  C   UNL     1       4.424   3.383  18.554  0.00  0.00    +0.000 C 
BRANCH  11  12
ATOM     12  C   UNL     1       5.489   4.474  18.699  0.00  0.00    +0.000 C 
BRANCH  12  17
ATOM     13  C   UNL     1       7.678   8.669  17.723  0.00  0.00    +0.000 C 
ATOM     14  N   UNL     1       7.574   7.264  17.349  0.00  0.00    +0.000 NA
ATOM     15  C   UNL     1       6.216   6.936  16.877  0.00  0.00    +0.000 C 
ATOM     16  C   UNL     1       6.086   5.439  16.510  0.00  0.00    +0.000 C 
ATOM     17  N   UNL     1       6.462   4.501  17.594  0.00  0.00    +0.000 NA
ATOM     18  C   UNL     1       7.809   4.886  18.077  0.00  0.00    +0.000 C 
ATOM     19  C   UNL     1       7.950   6.379  18.464  0.00  0.00    +0.000 C 
ENDBRANCH  12  17
ENDBRANCH  11  12
ENDBRANCH   1  11
TORSDOF 5
ENDMDL
MODEL 6
REMARK VINA RESULT:      -6.2      5.894      7.994
REMARK  Name = 
REMARK  6 active torsions:
REMARK  status: ('A' for Active; 'I' for Inactive)
REMARK    1  A    between atoms: C_1  and  N_2
REMARK    2  A    between atoms: N_5  and  C_6
REMARK    3  A    between atoms: C_6  and  C_7
REMARK    4  A    between atoms: C_7  and  C_8
REMARK    5  A    between atoms: C_8  and  C_9
REMARK    6  A    between atoms: C_9  and  C_11
REMARK                            x       y       z     vdW  Elec       q    Type
REMARK                         _______ _______ _______ _____ _____    ______ ____
ROOT
ATOM      1  C   UNL     1       8.132   7.767  18.380  0.00  0.00    +0.000 C 
ENDROOT
BRANCH   1   2
ATOM      2  C   UNL     1       7.318   6.931  17.414  0.00  0.00    +0.000 C 
ATOM      3  O   UNL     1       7.719   6.650  16.285  0.00  0.00    +0.000 OA
BRANCH   2   4
ATOM      4  C   UNL     1       5.982   6.433  17.856  0.00  0.00    +0.000 A 
ATOM      5  C   UNL     1       4.787   6.880  17.271  0.00  0.00    +0.000 A 
ATOM      6  C   UNL     1       3.562   6.388  17.728  0.00  0.00    +0.000 A 
ATOM      7  C   UNL     1       3.531   5.454  18.755  0.00  0.00    +0.000 A 
ATOM      8  F   UNL     1       2.357   4.989  19.190  0.00  0.00    +0.000 F 
ATOM      9  C   UNL     1       4.705   4.999  19.343  0.00  0.00    +0.000 A 
ATOM     10  C   UNL     1       5.933   5.488  18.892  0.00  0.00    +0.000 A 
ENDBRANCH   2   4
ENDBRANCH   1   2
BRANCH   1  11
ATOM     11  C   UNL     1       8.297   9.200  17.879  0.00  0.00    +0.000 C 
BRANCH  11  12
ATOM     12  C   UNL     1       9.068  10.081  18.867  0.00  0.00    +0.000 C 
BRANCH  12  17
ATOM     13  C   UNL     1      10.035  14.064  21.425  0.00  0.00    +0.000 C 
ATOM     14  N   UNL     1      10.234  13.390  20.147  0.00  0.00    +0.000 NA
ATOM     15  C   UNL     1       8.951  13.171  19.454  0.00  0.00    +0.000 C 
ATOM     16  C   UNL     1       9.148  12.426  18.113  0.00  0.00    +0.000 C 
ATOM     17  N   UNL     1       9.867  11.135  18.221  0.00  0.00    +0.000 NA
ATOM     18  C   UNL     1      11.127  11.381  18.963  0.00  0.00    +0.000 C 
ATOM     19  C   UNL     1      10.944  12.111  20.315  0.00  0.00    +0.000 C 
ENDBRANCH  12  17
ENDBRANCH  11  12
ENDBRANCH   1  11
TORSDOF 5
ENDMDL
MODEL 7
REMARK VINA RESULT:      -6.2      1.384      1.858
REMARK  Name = 
REMARK  6 active torsions:
REMARK  status: ('A' for Active; 'I' for Inactive)
REMARK    1  A    between atoms: C_1  and  N_2
REMARK    2  A    between atoms: N_5  and  C_6
REMARK    3  A    between atoms: C_6  and  C_7
REMARK    4  A    between atoms: C_7  and  C_8
REMARK    5  A    between atoms: C_8  and  C_9
REMARK    6  A    between atoms: C_9  and  C_11
REMARK                            x       y       z     vdW  Elec       q    Type
REMARK                         _______ _______ _______ _____ _____    ______ ____
ROOT
ATOM      1  C   UNL     1       6.829   5.568  19.405  0.00  0.00    +0.000 C 
ENDROOT
BRANCH   1   2
ATOM      2  C   UNL     1       7.242   6.204  18.094  0.00  0.00    +0.000 C 
ATOM      3  O   UNL     1       7.990   7.181  18.041  0.00  0.00    +0.000 OA
BRANCH   2   4
ATOM      4  C   UNL     1       6.720   5.618  16.824  0.00  0.00    +0.000 A 
ATOM      5  C   UNL     1       7.204   4.407  16.305  0.00  0.00    +0.000 A 
ATOM      6  C   UNL     1       6.688   3.907  15.107  0.00  0.00    +0.000 A 
ATOM      7  C   UNL     1       5.692   4.607  14.438  0.00  0.00    +0.000 A 
ATOM      8  F   UNL     1       5.204   4.126  13.292  0.00  0.00    +0.000 F 
ATOM      9  C   UNL     1       5.201   5.806  14.938  0.00  0.00    +0.000 A 
ATOM     10  C   UNL     1       5.715   6.312  16.134  0.00  0.00    +0.000 A 
ENDBRANCH   2   4
ENDBRANCH   1   2
BRANCH   1  11
ATOM     11  C   UNL     1       5.336   5.245  19.425  0.00  0.00    +0.000 C 
BRANCH  11  12
ATOM     12  C   UNL     1       5.057   3.757  19.192  0.00  0.00    +0.000 C 
BRANCH  12  17
ATOM     13  C   UNL     1       0.341   2.937  19.843  0.00  0.00    +0.000 C 
ATOM     14  N   UNL     1       1.404   3.054  18.853  0.00  0.00    +0.000 NA
ATOM     15  C   UNL     1       2.435   2.020  19.052  0.00  0.00    +0.000 C 
ATOM     16  C   UNL     1       3.586   2.157  18.028  0.00  0.00    +0.000 C 
ATOM     17  N   UNL     1       4.235   3.489  18.000  0.00  0.00    +0.000 NA
ATOM     18  C   UNL     1       3.169   4.507  17.846  0.00  0.00    +0.000 C 
ATOM     19  C   UNL     1       2.018   4.392  18.875  0.00  0.00    +0.000 C 
ENDBRANCH  12  17
ENDBRANCH  11  12
ENDBRANCH   1  11
TORSDOF 5
ENDMDL
MODEL 8
REMARK VINA RESULT:      -6.1      1.526      1.930
REMARK  Name = 
REMARK  6 active torsions:
REMARK  status: ('A' for Active; 'I' for Inactive)
REMARK    1  A    between atoms: C_1  and  N_2
REMARK    2  A    between atoms: N_5  and  C_6
REMARK    3  A    between atoms: C_6  and  C_7
REMARK    4  A    between atoms: C_7  and  C_8
REMARK    5  A    between atoms: C_8  and  C_9
REMARK    6  A    between atoms: C_9  and  C_11
REMARK                            x       y       z     vdW  Elec       q    Type
REMARK                         _______ _______ _______ _____ _____    ______ ____
ROOT
ATOM      1  C   UNL     1       6.108   6.364  17.799  0.00  0.00    +0.000 C 
ENDROOT
BRANCH   1   2
ATOM      2  C   UNL     1       6.773   5.087  17.329  0.00  0.00    +0.000 C 
ATOM      3  O   UNL     1       7.369   4.331  18.096  0.00  0.00    +0.000 OA
BRANCH   2   4
ATOM      4  C   UNL     1       6.698   4.739  15.879  0.00  0.00    +0.000 A 
ATOM      5  C   UNL     1       7.534   5.336  14.922  0.00  0.00    +0.000 A 
ATOM      6  C   UNL     1       7.416   4.981  13.576  0.00  0.00    +0.000 A 
ATOM      7  C   UNL     1       6.477   4.033  13.191  0.00  0.00    +0.000 A 
ATOM      8  F   UNL     1       6.367   3.699  11.903  0.00  0.00    +0.000 F 
ATOM      9  C   UNL     1       5.643   3.431  14.125  0.00  0.00    +0.000 A 
ATOM     10  C   UNL     1       5.755   3.783  15.472  0.00  0.00    +0.000 A 
ENDBRANCH   2   4
ENDBRANCH   1   2
BRANCH   1  11
ATOM     11  C   UNL     1       4.608   6.354  17.511  0.00  0.00    +0.000 C 
BRANCH  11  12
ATOM     12  C   UNL     1       3.870   5.258  18.287  0.00  0.00    +0.000 C 
BRANCH  12  17
ATOM     13  C   UNL     1       1.486   2.632  21.566  0.00  0.00    +0.000 C 
ATOM     14  N   UNL     1       1.370   3.704  20.585  0.00  0.00    +0.000 NA
ATOM     15  C   UNL     1       1.665   3.218  19.226  0.00  0.00    +0.000 C 
ATOM     16  C   UNL     1       1.579   4.356  18.181  0.00  0.00    +0.000 C 
ATOM     17  N   UNL     1       2.435   5.529  18.473  0.00  0.00    +0.000 NA
ATOM     18  C   UNL     1       2.149   5.964  19.860  0.00  0.00    +0.000 C 
ATOM     19  C   UNL     1       2.247   4.839  20.919  0.00  0.00    +0.000 C 
ENDBRANCH  12  17
ENDBRANCH  11  12
ENDBRANCH   1  11
TORSDOF 5
ENDMDL
MODEL 9
REMARK VINA RESULT:      -6.1      0.966      1.132
REMARK  Name = 
REMARK  6 active torsions:
REMARK  status: ('A' for Active; 'I' for Inactive)
REMARK    1  A    between atoms: C_1  and  N_2
REMARK    2  A    between atoms: N_5  and  C_6
REMARK    3  A    between atoms: C_6  and  C_7
REMARK    4  A    between atoms: C_7  and  C_8
REMARK    5  A    between atoms: C_8  and  C_9
REMARK    6  A    between atoms: C_9  and  C_11
REMARK                            x       y       z     vdW  Elec       q    Type
REMARK                         _______ _______ _______ _____ _____    ______ ____
ROOT
ATOM      1  C   UNL     1       5.515   5.870  17.024  0.00  0.00    +0.000 C 
ENDROOT
BRANCH   1   2
ATOM      2  C   UNL     1       6.675   5.848  16.050  0.00  0.00    +0.000 C 
ATOM      3  O   UNL     1       7.724   6.459  16.258  0.00  0.00    +0.000 OA
BRANCH   2   4
ATOM      4  C   UNL     1       6.534   5.054  14.794  0.00  0.00    +0.000 A 
ATOM      5  C   UNL     1       7.516   5.061  13.791  0.00  0.00    +0.000 A 
ATOM      6  C   UNL     1       7.331   4.306  12.630  0.00  0.00    +0.000 A 
ATOM      7  C   UNL     1       6.179   3.545  12.476  0.00  0.00    +0.000 A 
ATOM      8  F   UNL     1       6.006   2.828  11.363  0.00  0.00    +0.000 F 
ATOM      9  C   UNL     1       5.199   3.525  13.460  0.00  0.00    +0.000 A 
ATOM     10  C   UNL     1       5.377   4.279  14.622  0.00  0.00    +0.000 A 
ENDBRANCH   2   4
ENDBRANCH   1   2
BRANCH   1  11
ATOM     11  C   UNL     1       5.969   5.538  18.443  0.00  0.00    +0.000 C 
BRANCH  11  12
ATOM     12  C   UNL     1       4.800   5.163  19.359  0.00  0.00    +0.000 C 
BRANCH  12  17
ATOM     13  C   UNL     1       1.499   2.624  21.808  0.00  0.00    +0.000 C 
ATOM     14  N   UNL     1       1.836   3.205  20.514  0.00  0.00    +0.000 NA
ATOM     15  C   UNL     1       3.066   2.606  19.965  0.00  0.00    +0.000 C 
ATOM     16  C   UNL     1       3.452   3.240  18.608  0.00  0.00    +0.000 C 
ATOM     17  N   UNL     1       3.600   4.714  18.633  0.00  0.00    +0.000 NA
ATOM     18  C   UNL     1       2.369   5.281  19.232  0.00  0.00    +0.000 C 
ATOM     19  C   UNL     1       1.979   4.668  20.599  0.00  0.00    +0.000 C 
ENDBRANCH  12  17
ENDBRANCH  11  12
ENDBRANCH   1  11
TORSDOF 5
ENDMDL
