MODEL 1
REMARK VINA RESULT:      -8.6      0.000      0.000
REMARK  Name = 
REMARK  5 active torsions:
REMARK  status: ('A' for Active; 'I' for Inactive)
REMARK    1  A    between atoms: C_2  and  C_3
REMARK    2  A    between atoms: C_3  and  N_4
REMARK    3  A    between atoms: N_16  and  C_17
REMARK    4  A    between atoms: C_17  and  C_18
REMARK    5  A    between atoms: C_23  and  N_24
REMARK                            x       y       z     vdW  Elec       q    Type
REMARK                         _______ _______ _______ _____ _____    ______ ____
ROOT
ATOM      1  O   UNL     1       1.305   9.740  22.290  0.00  0.00    +0.000 OA
ATOM      2  C   UNL     1       1.104   9.848  21.075  0.00  0.00    +0.000 C 
ATOM      3  N   UNL     1       1.172   8.731  20.236  0.00  0.00    +0.000 N 
ATOM      4  H   UNL     1       1.127   8.878  19.230  0.00  0.00    +0.000 HD
ENDROOT
BRANCH   2   5
ATOM      5  C   UNL     1       0.824  11.207  20.425  0.00  0.00    +0.000 C 
BRANCH   5   6
ATOM      6  N   UNL     1      -0.495  11.285  19.787  0.00  0.00    +0.000 N 
ATOM      7  C   UNL     1      -1.574  11.878  20.425  0.00  0.00    +0.000 A 
ATOM      8  N   UNL     1      -2.749  11.998  19.906  0.00  0.00    +0.000 NA
ATOM      9  C   UNL     1      -2.963  11.511  18.620  0.00  0.00    +0.000 A 
ATOM     10  C   UNL     1      -4.197  11.733  17.989  0.00  0.00    +0.000 A 
ATOM     11  C   UNL     1      -4.417  11.303  16.676  0.00  0.00    +0.000 A 
ATOM     12  C   UNL     1      -3.435  10.565  16.016  0.00  0.00    +0.000 A 
ATOM     13 CL   UNL     1      -3.722   9.997  14.419  0.00  0.00    +0.000 Cl
ATOM     14  C   UNL     1      -2.214  10.306  16.633  0.00  0.00    +0.000 A 
ATOM     15  C   UNL     1      -1.975  10.824  17.910  0.00  0.00    +0.000 A 
ATOM     16  C   UNL     1      -0.627  10.729  18.539  0.00  0.00    +0.000 A 
ATOM     17  O   UNL     1       0.301  10.254  17.898  0.00  0.00    +0.000 OA
ENDBRANCH   5   6
ENDBRANCH   2   5
BRANCH   3  18
ATOM     18  C   UNL     1       1.533   7.381  20.739  0.00  0.00    +0.000 C 
BRANCH  18  19
ATOM     19  C   UNL     1       2.437   6.578  19.812  0.00  0.00    +0.000 A 
ATOM     20  N   UNL     1       3.090   5.490  20.153  0.00  0.00    +0.000 NA
ATOM     21  C   UNL     1       4.019   5.275  19.190  0.00  0.00    +0.000 A 
ATOM     22  C   UNL     1       5.344   4.887  19.422  0.00  0.00    +0.000 A 
ATOM     23  C   UNL     1       6.222   4.761  18.345  0.00  0.00    +0.000 A 
ATOM     24  C   UNL     1       5.743   4.685  17.037  0.00  0.00    +0.000 A 
ATOM     25  C   UNL     1       4.386   4.974  16.775  0.00  0.00    +0.000 A 
ATOM     26  C   UNL     1       3.662   5.545  17.864  0.00  0.00    +0.000 A 
ATOM     27  S   UNL     1       2.729   7.033  18.131  0.00  0.00    +0.000 S 
BRANCH  24  28
ATOM     28  N   UNL     1       6.659   4.272  15.942  0.00  0.00    +0.000 N 
ATOM     29  O   UNL     1       6.172   3.628  15.023  0.00  0.00    +0.000 OA
ATOM     30  O   UNL     1       7.826   4.588  16.020  0.00  0.00    +0.000 OA
ENDBRANCH  24  28
ENDBRANCH  18  19
ENDBRANCH   3  18
TORSDOF 5
ENDMDL
MODEL 2
REMARK VINA RESULT:      -8.2      2.960      3.767
REMARK  Name = 
REMARK  5 active torsions:
REMARK  status: ('A' for Active; 'I' for Inactive)
REMARK    1  A    between atoms: C_2  and  C_3
REMARK    2  A    between atoms: C_3  and  N_4
REMARK    3  A    between atoms: N_16  and  C_17
REMARK    4  A    between atoms: C_17  and  C_18
REMARK    5  A    between atoms: C_23  and  N_24
REMARK                            x       y       z     vdW  Elec       q    Type
REMARK                         _______ _______ _______ _____ _____    ______ ____
ROOT
ATOM      1  O   UNL     1       1.602   8.141  19.301  0.00  0.00    +0.000 OA
ATOM      2  C   UNL     1       1.742   8.009  20.523  0.00  0.00    +0.000 C 
ATOM      3  N   UNL     1       1.789   6.737  21.104  0.00  0.00    +0.000 N 
ATOM      4  H   UNL     1       1.777   6.668  22.119  0.00  0.00    +0.000 HD
ENDROOT
BRANCH   2   5
ATOM      5  C   UNL     1       1.818   9.220  21.458  0.00  0.00    +0.000 C 
BRANCH   5   6
ATOM      6  N   UNL     1       0.680  10.135  21.316  0.00  0.00    +0.000 N 
ATOM      7  C   UNL     1       0.378  10.731  20.101  0.00  0.00    +0.000 A 
ATOM      8  N   UNL     1      -0.623  11.522  19.908  0.00  0.00    +0.000 NA
ATOM      9  C   UNL     1      -1.468  11.802  20.978  0.00  0.00    +0.000 A 
ATOM     10  C   UNL     1      -2.627  12.565  20.767  0.00  0.00    +0.000 A 
ATOM     11  C   UNL     1      -3.522  12.812  21.814  0.00  0.00    +0.000 A 
ATOM     12  C   UNL     1      -3.215  12.375  23.103  0.00  0.00    +0.000 A 
ATOM     13 CL   UNL     1      -4.292  12.719  24.399  0.00  0.00    +0.000 Cl
ATOM     14  C   UNL     1      -2.056  11.643  23.343  0.00  0.00    +0.000 A 
ATOM     15  C   UNL     1      -1.220  11.324  22.267  0.00  0.00    +0.000 A 
ATOM     16  C   UNL     1      -0.067  10.395  22.438  0.00  0.00    +0.000 A 
ATOM     17  O   UNL     1       0.107   9.849  23.520  0.00  0.00    +0.000 OA
ENDBRANCH   5   6
ENDBRANCH   2   5
BRANCH   3  18
ATOM     18  C   UNL     1       1.627   5.494  20.308  0.00  0.00    +0.000 C 
BRANCH  18  19
ATOM     19  C   UNL     1       2.756   5.217  19.323  0.00  0.00    +0.000 A 
ATOM     20  N   UNL     1       4.009   5.571  19.495  0.00  0.00    +0.000 NA
ATOM     21  C   UNL     1       4.615   5.454  18.288  0.00  0.00    +0.000 A 
ATOM     22  C   UNL     1       5.518   6.379  17.748  0.00  0.00    +0.000 A 
ATOM     23  C   UNL     1       6.025   6.175  16.464  0.00  0.00    +0.000 A 
ATOM     24  C   UNL     1       5.922   4.930  15.844  0.00  0.00    +0.000 A 
ATOM     25  C   UNL     1       5.097   3.936  16.412  0.00  0.00    +0.000 A 
ATOM     26  C   UNL     1       4.251   4.377  17.473  0.00  0.00    +0.000 A 
ATOM     27  S   UNL     1       2.503   4.375  17.791  0.00  0.00    +0.000 S 
BRANCH  24  28
ATOM     28  N   UNL     1       6.706   4.656  14.611  0.00  0.00    +0.000 N 
ATOM     29  O   UNL     1       7.686   5.359  14.408  0.00  0.00    +0.000 OA
ATOM     30  O   UNL     1       6.332   3.765  13.880  0.00  0.00    +0.000 OA
ENDBRANCH  24  28
ENDBRANCH  18  19
ENDBRANCH   3  18
TORSDOF 5
ENDMDL
MODEL 3
REMARK VINA RESULT:      -8.1      3.969      9.654
REMARK  Name = 
REMARK  5 active torsions:
REMARK  status: ('A' for Active; 'I' for Inactive)
REMARK    1  A    between atoms: C_2  and  C_3
REMARK    2  A    between atoms: C_3  and  N_4
REMARK    3  A    between atoms: N_16  and  C_17
REMARK    4  A    between atoms: C_17  and  C_18
REMARK    5  A    between atoms: C_23  and  N_24
REMARK                            x       y       z     vdW  Elec       q    Type
REMARK                         _______ _______ _______ _____ _____    ______ ____
ROOT
ATOM      1  O   UNL     1       2.185   5.379  19.220  0.00  0.00    +0.000 OA
ATOM      2  C   UNL     1       3.208   5.975  18.860  0.00  0.00    +0.000 C 
ATOM      3  N   UNL     1       3.130   7.253  18.296  0.00  0.00    +0.000 N 
ATOM      4  H   UNL     1       3.974   7.658  17.898  0.00  0.00    +0.000 HD
ENDROOT
BRANCH   2   5
ATOM      5  C   UNL     1       4.594   5.329  18.965  0.00  0.00    +0.000 C 
BRANCH   5   6
ATOM      6  N   UNL     1       5.335   5.337  17.699  0.00  0.00    +0.000 N 
ATOM      7  C   UNL     1       6.464   6.123  17.527  0.00  0.00    +0.000 A 
ATOM      8  N   UNL     1       7.172   6.153  16.448  0.00  0.00    +0.000 NA
ATOM      9  C   UNL     1       6.793   5.346  15.380  0.00  0.00    +0.000 A 
ATOM     10  C   UNL     1       7.609   5.273  14.240  0.00  0.00    +0.000 A 
ATOM     11  C   UNL     1       7.279   4.425  13.176  0.00  0.00    +0.000 A 
ATOM     12  C   UNL     1       6.081   3.713  13.206  0.00  0.00    +0.000 A 
ATOM     13 CL   UNL     1       5.652   2.707  11.879  0.00  0.00    +0.000 Cl
ATOM     14  C   UNL     1       5.239   3.793  14.312  0.00  0.00    +0.000 A 
ATOM     15  C   UNL     1       5.630   4.572  15.407  0.00  0.00    +0.000 A 
ATOM     16  C   UNL     1       4.857   4.550  16.681  0.00  0.00    +0.000 A 
ATOM     17  O   UNL     1       3.908   3.785  16.794  0.00  0.00    +0.000 OA
ENDBRANCH   5   6
ENDBRANCH   2   5
BRANCH   3  18
ATOM     18  C   UNL     1       1.834   7.936  18.054  0.00  0.00    +0.000 C 
BRANCH  18  19
ATOM     19  C   UNL     1       1.389   8.871  19.171  0.00  0.00    +0.000 A 
ATOM     20  N   UNL     1       1.601   8.669  20.452  0.00  0.00    +0.000 NA
ATOM     21  C   UNL     1       0.782   9.517  21.121  0.00  0.00    +0.000 A 
ATOM     22  C   UNL     1       0.036   9.186  22.259  0.00  0.00    +0.000 A 
ATOM     23  C   UNL     1      -0.821  10.134  22.818  0.00  0.00    +0.000 A 
ATOM     24  C   UNL     1      -0.710  11.484  22.485  0.00  0.00    +0.000 A 
ATOM     25  C   UNL     1       0.110  11.868  21.402  0.00  0.00    +0.000 A 
ATOM     26  C   UNL     1       0.591  10.797  20.590  0.00  0.00    +0.000 A 
ATOM     27  S   UNL     1       0.502  10.368  18.868  0.00  0.00    +0.000 S 
BRANCH  24  28
ATOM     28  N   UNL     1      -1.434  12.502  23.291  0.00  0.00    +0.000 N 
ATOM     29  O   UNL     1      -2.609  12.279  23.542  0.00  0.00    +0.000 OA
ATOM     30  O   UNL     1      -0.827  13.489  23.647  0.00  0.00    +0.000 OA
ENDBRANCH  24  28
ENDBRANCH  18  19
ENDBRANCH   3  18
TORSDOF 5
ENDMDL
MODEL 4
REMARK VINA RESULT:      -8.1      7.219      9.977
REMARK  Name = 
REMARK  5 active torsions:
REMARK  status: ('A' for Active; 'I' for Inactive)
REMARK    1  A    between atoms: C_2  and  C_3
REMARK    2  A    between atoms: C_3  and  N_4
REMARK    3  A    between atoms: N_16  and  C_17
REMARK    4  A    between atoms: C_17  and  C_18
REMARK    5  A    between atoms: C_23  and  N_24
REMARK                            x       y       z     vdW  Elec       q    Type
REMARK                         _______ _______ _______ _____ _____    ______ ____
ROOT
ATOM      1  O   UNL     1       6.842   7.133  16.352  0.00  0.00    +0.000 OA
ATOM      2  C   UNL     1       7.449   6.922  17.409  0.00  0.00    +0.000 C 
ATOM      3  N   UNL     1       8.120   7.957  18.069  0.00  0.00    +0.000 N 
ATOM      4  H   UNL     1       8.710   7.722  18.863  0.00  0.00    +0.000 HD
ENDROOT
BRANCH   2   5
ATOM      5  C   UNL     1       7.538   5.518  18.017  0.00  0.00    +0.000 C 
BRANCH   5   6
ATOM      6  N   UNL     1       6.283   4.764  17.920  0.00  0.00    +0.000 N 
ATOM      7  C   UNL     1       5.911   4.125  16.747  0.00  0.00    +0.000 A 
ATOM      8  N   UNL     1       4.835   3.427  16.609  0.00  0.00    +0.000 NA
ATOM      9  C   UNL     1       3.984   3.291  17.702  0.00  0.00    +0.000 A 
ATOM     10  C   UNL     1       2.868   2.443  17.613  0.00  0.00    +0.000 A 
ATOM     11  C   UNL     1       2.029   2.245  18.715  0.00  0.00    +0.000 A 
ATOM     12  C   UNL     1       2.248   2.968  19.888  0.00  0.00    +0.000 A 
ATOM     13 CL   UNL     1       1.190   2.760  21.228  0.00  0.00    +0.000 Cl
ATOM     14  C   UNL     1       3.329   3.838  19.990  0.00  0.00    +0.000 A 
ATOM     15  C   UNL     1       4.212   3.952  18.911  0.00  0.00    +0.000 A 
ATOM     16  C   UNL     1       5.479   4.728  19.032  0.00  0.00    +0.000 A 
ATOM     17  O   UNL     1       5.784   5.213  20.115  0.00  0.00    +0.000 OA
ENDBRANCH   5   6
ENDBRANCH   2   5
BRANCH   3  18
ATOM     18  C   UNL     1       8.185   9.336  17.521  0.00  0.00    +0.000 C 
BRANCH  18  19
ATOM     19  C   UNL     1       8.791  10.368  18.465  0.00  0.00    +0.000 A 
ATOM     20  N   UNL     1       9.245  10.111  19.670  0.00  0.00    +0.000 NA
ATOM     21  C   UNL     1       9.379  11.305  20.298  0.00  0.00    +0.000 A 
ATOM     22  C   UNL     1       9.012  11.561  21.625  0.00  0.00    +0.000 A 
ATOM     23  C   UNL     1       9.142  12.854  22.136  0.00  0.00    +0.000 A 
ATOM     24  C   UNL     1       9.924  13.805  21.483  0.00  0.00    +0.000 A 
ATOM     25  C   UNL     1      10.397  13.542  20.179  0.00  0.00    +0.000 A 
ATOM     26  C   UNL     1       9.836  12.392  19.546  0.00  0.00    +0.000 A 
ATOM     27  S   UNL     1       8.947  12.075  18.041  0.00  0.00    +0.000 S 
BRANCH  24  28
ATOM     28  N   UNL     1      10.275  15.071  22.179  0.00  0.00    +0.000 N 
ATOM     29  O   UNL     1       9.666  15.327  23.207  0.00  0.00    +0.000 OA
ATOM     30  O   UNL     1      11.133  15.775  21.691  0.00  0.00    +0.000 OA
ENDBRANCH  24  28
ENDBRANCH  18  19
ENDBRANCH   3  18
TORSDOF 5
ENDMDL
MODEL 5
REMARK VINA RESULT:      -7.9      2.692      3.280
REMARK  Name = 
REMARK  5 active torsions:
REMARK  status: ('A' for Active; 'I' for Inactive)
REMARK    1  A    between atoms: C_2  and  C_3
REMARK    2  A    between atoms: C_3  and  N_4
REMARK    3  A    between atoms: N_16  and  C_17
REMARK    4  A    between atoms: C_17  and  C_18
REMARK    5  A    between atoms: C_23  and  N_24
REMARK                            x       y       z     vdW  Elec       q    Type
REMARK                         _______ _______ _______ _____ _____    ______ ____
ROOT
ATOM      1  O   UNL     1       1.694   9.623  22.567  0.00  0.00    +0.000 OA
ATOM      2  C   UNL     1       1.319   9.948  21.434  0.00  0.00    +0.000 C 
ATOM      3  N   UNL     1       1.080   8.979  20.454  0.00  0.00    +0.000 N 
ATOM      4  H   UNL     1       0.897   9.288  19.502  0.00  0.00    +0.000 HD
ENDROOT
BRANCH   2   5
ATOM      5  C   UNL     1       1.149  11.418  21.035  0.00  0.00    +0.000 C 
BRANCH   5   6
ATOM      6  N   UNL     1      -0.253  11.812  20.857  0.00  0.00    +0.000 N 
ATOM      7  C   UNL     1      -0.813  11.941  19.595  0.00  0.00    +0.000 A 
ATOM      8  N   UNL     1      -2.044  12.259  19.375  0.00  0.00    +0.000 NA
ATOM      9  C   UNL     1      -2.879  12.484  20.465  0.00  0.00    +0.000 A 
ATOM     10  C   UNL     1      -4.248  12.716  20.256  0.00  0.00    +0.000 A 
ATOM     11  C   UNL     1      -5.118  12.889  21.338  0.00  0.00    +0.000 A 
ATOM     12  C   UNL     1      -4.609  12.923  22.636  0.00  0.00    +0.000 A 
ATOM     13 CL   UNL     1      -5.672  13.181  23.964  0.00  0.00    +0.000 Cl
ATOM     14  C   UNL     1      -3.250  12.726  22.867  0.00  0.00    +0.000 A 
ATOM     15  C   UNL     1      -2.410  12.460  21.781  0.00  0.00    +0.000 A 
ATOM     16  C   UNL     1      -0.987  12.067  21.988  0.00  0.00    +0.000 A 
ATOM     17  O   UNL     1      -0.570  11.904  23.128  0.00  0.00    +0.000 OA
ENDBRANCH   5   6
ENDBRANCH   2   5
BRANCH   3  18
ATOM     18  C   UNL     1       1.307   7.532  20.697  0.00  0.00    +0.000 C 
BRANCH  18  19
ATOM     19  C   UNL     1       2.302   6.876  19.748  0.00  0.00    +0.000 A 
ATOM     20  N   UNL     1       2.915   5.735  19.969  0.00  0.00    +0.000 NA
ATOM     21  C   UNL     1       3.940   5.665  19.084  0.00  0.00    +0.000 A 
ATOM     22  C   UNL     1       5.233   5.220  19.384  0.00  0.00    +0.000 A 
ATOM     23  C   UNL     1       6.219   5.258  18.397  0.00  0.00    +0.000 A 
ATOM     24  C   UNL     1       5.879   5.408  17.053  0.00  0.00    +0.000 A 
ATOM     25  C   UNL     1       4.557   5.760  16.704  0.00  0.00    +0.000 A 
ATOM     26  C   UNL     1       3.723   6.156  17.792  0.00  0.00    +0.000 A 
ATOM     27  S   UNL     1       2.769   7.597  18.205  0.00  0.00    +0.000 S 
BRANCH  24  28
ATOM     28  N   UNL     1       6.904   5.165  16.004  0.00  0.00    +0.000 N 
ATOM     29  O   UNL     1       6.686   5.630  14.895  0.00  0.00    +0.000 OA
ATOM     30  O   UNL     1       7.887   4.521  16.302  0.00  0.00    +0.000 OA
ENDBRANCH  24  28
ENDBRANCH  18  19
ENDBRANCH   3  18
TORSDOF 5
ENDMDL
MODEL 6
REMARK VINA RESULT:      -7.9      7.006      9.887
REMARK  Name = 
REMARK  5 active torsions:
REMARK  status: ('A' for Active; 'I' for Inactive)
REMARK    1  A    between atoms: C_2  and  C_3
REMARK    2  A    between atoms: C_3  and  N_4
REMARK    3  A    between atoms: N_16  and  C_17
REMARK    4  A    between atoms: C_17  and  C_18
REMARK    5  A    between atoms: C_23  and  N_24
REMARK                            x       y       z     vdW  Elec       q    Type
REMARK                         _______ _______ _______ _____ _____    ______ ____
ROOT
ATOM      1  O   UNL     1       7.576   6.406  18.460  0.00  0.00    +0.000 OA
ATOM      2  C   UNL     1       7.206   7.285  17.672  0.00  0.00    +0.000 C 
ATOM      3  N   UNL     1       7.781   8.560  17.700  0.00  0.00    +0.000 N 
ATOM      4  H   UNL     1       7.366   9.290  17.127  0.00  0.00    +0.000 HD
ENDROOT
BRANCH   2   5
ATOM      5  C   UNL     1       6.074   7.039  16.669  0.00  0.00    +0.000 C 
BRANCH   5   6
ATOM      6  N   UNL     1       5.344   5.790  16.913  0.00  0.00    +0.000 N 
ATOM      7  C   UNL     1       5.747   4.593  16.341  0.00  0.00    +0.000 A 
ATOM      8  N   UNL     1       5.162   3.459  16.539  0.00  0.00    +0.000 NA
ATOM      9  C   UNL     1       4.056   3.418  17.383  0.00  0.00    +0.000 A 
ATOM     10  C   UNL     1       3.473   2.182  17.706  0.00  0.00    +0.000 A 
ATOM     11  C   UNL     1       2.397   2.109  18.597  0.00  0.00    +0.000 A 
ATOM     12  C   UNL     1       1.835   3.282  19.100  0.00  0.00    +0.000 A 
ATOM     13 CL   UNL     1       0.483   3.195  20.159  0.00  0.00    +0.000 Cl
ATOM     14  C   UNL     1       2.376   4.522  18.770  0.00  0.00    +0.000 A 
ATOM     15  C   UNL     1       3.511   4.571  17.953  0.00  0.00    +0.000 A 
ATOM     16  C   UNL     1       4.233   5.853  17.716  0.00  0.00    +0.000 A 
ATOM     17  O   UNL     1       3.868   6.864  18.303  0.00  0.00    +0.000 OA
ENDBRANCH   5   6
ENDBRANCH   2   5
BRANCH   3  18
ATOM     18  C   UNL     1       8.816   8.942  18.695  0.00  0.00    +0.000 C 
BRANCH  18  19
ATOM     19  C   UNL     1       9.060  10.441  18.815  0.00  0.00    +0.000 A 
ATOM     20  N   UNL     1       8.874  11.314  17.851  0.00  0.00    +0.000 NA
ATOM     21  C   UNL     1       9.507  12.452  18.230  0.00  0.00    +0.000 A 
ATOM     22  C   UNL     1      10.288  13.256  17.390  0.00  0.00    +0.000 A 
ATOM     23  C   UNL     1      10.941  14.370  17.919  0.00  0.00    +0.000 A 
ATOM     24  C   UNL     1      10.578  14.889  19.161  0.00  0.00    +0.000 A 
ATOM     25  C   UNL     1       9.712  14.152  19.997  0.00  0.00    +0.000 A 
ATOM     26  C   UNL     1       9.456  12.811  19.581  0.00  0.00    +0.000 A 
ATOM     27  S   UNL     1       9.646  11.197  20.299  0.00  0.00    +0.000 S 
BRANCH  24  28
ATOM     28  N   UNL     1      11.082  16.225  19.575  0.00  0.00    +0.000 N 
ATOM     29  O   UNL     1      10.870  16.565  20.730  0.00  0.00    +0.000 OA
ATOM     30  O   UNL     1      11.666  16.897  18.753  0.00  0.00    +0.000 OA
ENDBRANCH  24  28
ENDBRANCH  18  19
ENDBRANCH   3  18
TORSDOF 5
ENDMDL
MODEL 7
REMARK VINA RESULT:      -7.8      7.435     10.116
REMARK  Name = 
REMARK  5 active torsions:
REMARK  status: ('A' for Active; 'I' for Inactive)
REMARK    1  A    between atoms: C_2  and  C_3
REMARK    2  A    between atoms: C_3  and  N_4
REMARK    3  A    between atoms: N_16  and  C_17
REMARK    4  A    between atoms: C_17  and  C_18
REMARK    5  A    between atoms: C_23  and  N_24
REMARK                            x       y       z     vdW  Elec       q    Type
REMARK                         _______ _______ _______ _____ _____    ______ ____
ROOT
ATOM      1  O   UNL     1       8.015   6.897  18.543  0.00  0.00    +0.000 OA
ATOM      2  C   UNL     1       7.629   7.741  17.725  0.00  0.00    +0.000 C 
ATOM      3  N   UNL     1       8.050   9.072  17.819  0.00  0.00    +0.000 N 
ATOM      4  H   UNL     1       7.615   9.761  17.210  0.00  0.00    +0.000 HD
ENDROOT
BRANCH   2   5
ATOM      5  C   UNL     1       6.639   7.387  16.611  0.00  0.00    +0.000 C 
BRANCH   5   6
ATOM      6  N   UNL     1       5.890   6.153  16.871  0.00  0.00    +0.000 N 
ATOM      7  C   UNL     1       6.347   4.922  16.425  0.00  0.00    +0.000 A 
ATOM      8  N   UNL     1       5.746   3.800  16.645  0.00  0.00    +0.000 NA
ATOM      9  C   UNL     1       4.565   3.810  17.380  0.00  0.00    +0.000 A 
ATOM     10  C   UNL     1       3.955   2.595  17.732  0.00  0.00    +0.000 A 
ATOM     11  C   UNL     1       2.799   2.576  18.519  0.00  0.00    +0.000 A 
ATOM     12  C   UNL     1       2.190   3.777  18.883  0.00  0.00    +0.000 A 
ATOM     13 CL   UNL     1       0.743   3.754  19.812  0.00  0.00    +0.000 Cl
ATOM     14  C   UNL     1       2.759   4.995  18.520  0.00  0.00    +0.000 A 
ATOM     15  C   UNL     1       3.967   4.996  17.814  0.00  0.00    +0.000 A 
ATOM     16  C   UNL     1       4.707   6.264  17.558  0.00  0.00    +0.000 A 
ATOM     17  O   UNL     1       4.287   7.310  18.035  0.00  0.00    +0.000 OA
ENDBRANCH   5   6
ENDBRANCH   2   5
BRANCH   3  18
ATOM     18  C   UNL     1       8.930   9.551  18.916  0.00  0.00    +0.000 C 
BRANCH  18  19
ATOM     19  C   UNL     1       9.609  10.889  18.648  0.00  0.00    +0.000 A 
ATOM     20  N   UNL     1      10.852  11.178  18.960  0.00  0.00    +0.000 NA
ATOM     21  C   UNL     1      10.970  12.526  18.877  0.00  0.00    +0.000 A 
ATOM     22  C   UNL     1      11.651  13.332  19.798  0.00  0.00    +0.000 A 
ATOM     23  C   UNL     1      11.645  14.718  19.633  0.00  0.00    +0.000 A 
ATOM     24  C   UNL     1      11.272  15.292  18.419  0.00  0.00    +0.000 A 
ATOM     25  C   UNL     1      10.671  14.490  17.425  0.00  0.00    +0.000 A 
ATOM     26  C   UNL     1      10.289  13.180  17.845  0.00  0.00    +0.000 A 
ATOM     27  S   UNL     1       8.780  12.244  17.879  0.00  0.00    +0.000 S 
BRANCH  24  28
ATOM     28  N   UNL     1      11.539  16.734  18.175  0.00  0.00    +0.000 N 
ATOM     29  O   UNL     1      11.268  17.170  17.066  0.00  0.00    +0.000 OA
ATOM     30  O   UNL     1      12.011  17.390  19.078  0.00  0.00    +0.000 OA
ENDBRANCH  24  28
ENDBRANCH  18  19
ENDBRANCH   3  18
TORSDOF 5
ENDMDL
MODEL 8
REMARK VINA RESULT:      -7.7      7.522      9.984
REMARK  Name = 
REMARK  5 active torsions:
REMARK  status: ('A' for Active; 'I' for Inactive)
REMARK    1  A    between atoms: C_2  and  C_3
REMARK    2  A    between atoms: C_3  and  N_4
REMARK    3  A    between atoms: N_16  and  C_17
REMARK    4  A    between atoms: C_17  and  C_18
REMARK    5  A    between atoms: C_23  and  N_24
REMARK                            x       y       z     vdW  Elec       q    Type
REMARK                         _______ _______ _______ _____ _____    ______ ____
ROOT
ATOM      1  O   UNL     1       7.768  10.210  17.498  0.00  0.00    +0.000 OA
ATOM      2  C   UNL     1       8.359   9.454  18.280  0.00  0.00    +0.000 C 
ATOM      3  N   UNL     1       8.230   8.065  18.165  0.00  0.00    +0.000 N 
ATOM      4  H   UNL     1       8.626   7.481  18.899  0.00  0.00    +0.000 HD
ENDROOT
BRANCH   2   5
ATOM      5  C   UNL     1       9.210   9.995  19.433  0.00  0.00    +0.000 C 
BRANCH   5   6
ATOM      6  N   UNL     1       9.878  11.262  19.115  0.00  0.00    +0.000 N 
ATOM      7  C   UNL     1      10.628  11.414  17.959  0.00  0.00    +0.000 A 
ATOM      8  N   UNL     1      11.217  12.510  17.613  0.00  0.00    +0.000 NA
ATOM      9  C   UNL     1      11.095  13.622  18.441  0.00  0.00    +0.000 A 
ATOM     10  C   UNL     1      11.627  14.855  18.032  0.00  0.00    +0.000 A 
ATOM     11  C   UNL     1      11.469  16.000  18.820  0.00  0.00    +0.000 A 
ATOM     12  C   UNL     1      10.857  15.900  20.069  0.00  0.00    +0.000 A 
ATOM     13 CL   UNL     1      10.703  17.298  21.059  0.00  0.00    +0.000 Cl
ATOM     14  C   UNL     1      10.349  14.682  20.511  0.00  0.00    +0.000 A 
ATOM     15  C   UNL     1      10.431  13.568  19.670  0.00  0.00    +0.000 A 
ATOM     16  C   UNL     1       9.748  12.289  20.016  0.00  0.00    +0.000 A 
ATOM     17  O   UNL     1       9.045  12.238  21.018  0.00  0.00    +0.000 OA
ENDBRANCH   5   6
ENDBRANCH   2   5
BRANCH   3  18
ATOM     18  C   UNL     1       7.354   7.430  17.149  0.00  0.00    +0.000 C 
BRANCH  18  19
ATOM     19  C   UNL     1       6.299   6.488  17.718  0.00  0.00    +0.000 A 
ATOM     20  N   UNL     1       5.036   6.468  17.359  0.00  0.00    +0.000 NA
ATOM     21  C   UNL     1       4.375   5.755  18.304  0.00  0.00    +0.000 A 
ATOM     22  C   UNL     1       3.132   6.101  18.850  0.00  0.00    +0.000 A 
ATOM     23  C   UNL     1       2.586   5.316  19.866  0.00  0.00    +0.000 A 
ATOM     24  C   UNL     1       3.071   4.033  20.117  0.00  0.00    +0.000 A 
ATOM     25  C   UNL     1       4.271   3.611  19.506  0.00  0.00    +0.000 A 
ATOM     26  C   UNL     1       5.014   4.635  18.845  0.00  0.00    +0.000 A 
ATOM     27  S   UNL     1       6.660   5.292  18.966  0.00  0.00    +0.000 S 
BRANCH  24  28
ATOM     28  N   UNL     1       2.302   3.116  21.000  0.00  0.00    +0.000 N 
ATOM     29  O   UNL     1       1.535   2.335  20.457  0.00  0.00    +0.000 OA
ATOM     30  O   UNL     1       2.472   3.197  22.197  0.00  0.00    +0.000 OA
ENDBRANCH  24  28
ENDBRANCH  18  19
ENDBRANCH   3  18
TORSDOF 5
ENDMDL
MODEL 9
REMARK VINA RESULT:      -7.7      1.768      2.203
REMARK  Name = 
REMARK  5 active torsions:
REMARK  status: ('A' for Active; 'I' for Inactive)
REMARK    1  A    between atoms: C_2  and  C_3
REMARK    2  A    between atoms: C_3  and  N_4
REMARK    3  A    between atoms: N_16  and  C_17
REMARK    4  A    between atoms: C_17  and  C_18
REMARK    5  A    between atoms: C_23  and  N_24
REMARK                            x       y       z     vdW  Elec       q    Type
REMARK                         _______ _______ _______ _____ _____    ______ ____
ROOT
ATOM      1  O   UNL     1       1.419  10.210  21.941  0.00  0.00    +0.000 OA
ATOM      2  C   UNL     1       0.943  10.239  20.800  0.00  0.00    +0.000 C 
ATOM      3  N   UNL     1       0.822   9.067  20.045  0.00  0.00    +0.000 N 
ATOM      4  H   UNL     1       0.545   9.146  19.069  0.00  0.00    +0.000 HD
ENDROOT
BRANCH   2   5
ATOM      5  C   UNL     1       0.514  11.554  20.142  0.00  0.00    +0.000 C 
BRANCH   5   6
ATOM      6  N   UNL     1      -0.736  11.441  19.381  0.00  0.00    +0.000 N 
ATOM      7  C   UNL     1      -0.776  10.816  18.144  0.00  0.00    +0.000 A 
ATOM      8  N   UNL     1      -1.848  10.664  17.441  0.00  0.00    +0.000 NA
ATOM      9  C   UNL     1      -3.051  11.148  17.947  0.00  0.00    +0.000 A 
ATOM     10  C   UNL     1      -4.248  10.893  17.257  0.00  0.00    +0.000 A 
ATOM     11  C   UNL     1      -5.476  11.320  17.774  0.00  0.00    +0.000 A 
ATOM     12  C   UNL     1      -5.508  12.087  18.938  0.00  0.00    +0.000 A 
ATOM     13 CL   UNL     1      -7.013  12.652  19.548  0.00  0.00    +0.000 Cl
ATOM     14  C   UNL     1      -4.331  12.380  19.623  0.00  0.00    +0.000 A 
ATOM     15  C   UNL     1      -3.122  11.865  19.144  0.00  0.00    +0.000 A 
ATOM     16  C   UNL     1      -1.864  11.996  19.933  0.00  0.00    +0.000 A 
ATOM     17  O   UNL     1      -1.906  12.499  21.048  0.00  0.00    +0.000 OA
ENDBRANCH   5   6
ENDBRANCH   2   5
BRANCH   3  18
ATOM     18  C   UNL     1       1.296   7.750  20.542  0.00  0.00    +0.000 C 
BRANCH  18  19
ATOM     19  C   UNL     1       2.297   7.050  19.631  0.00  0.00    +0.000 A 
ATOM     20  N   UNL     1       2.828   5.871  19.862  0.00  0.00    +0.000 NA
ATOM     21  C   UNL     1       3.890   5.752  19.027  0.00  0.00    +0.000 A 
ATOM     22  C   UNL     1       5.138   5.224  19.383  0.00  0.00    +0.000 A 
ATOM     23  C   UNL     1       6.172   5.218  18.447  0.00  0.00    +0.000 A 
ATOM     24  C   UNL     1       5.911   5.409  17.090  0.00  0.00    +0.000 A 
ATOM     25  C   UNL     1       4.632   5.847  16.683  0.00  0.00    +0.000 A 
ATOM     26  C   UNL     1       3.770   6.276  17.736  0.00  0.00    +0.000 A 
ATOM     27  S   UNL     1       2.884   7.766  18.128  0.00  0.00    +0.000 S 
BRANCH  24  28
ATOM     28  N   UNL     1       6.972   5.120  16.090  0.00  0.00    +0.000 N 
ATOM     29  O   UNL     1       7.912   4.432  16.460  0.00  0.00    +0.000 OA
ATOM     30  O   UNL     1       6.850   5.582  14.976  0.00  0.00    +0.000 OA
ENDBRANCH  24  28
ENDBRANCH  18  19
ENDBRANCH   3  18
TORSDOF 5
ENDMDL
