MODEL 1
REMARK VINA RESULT:      -8.4      0.000      0.000
REMARK  Name = 
REMARK  8 active torsions:
REMARK  status: ('A' for Active; 'I' for Inactive)
REMARK    1  A    between atoms: C_1  and  S_2
REMARK    2  A    between atoms: S_2  and  C_3
REMARK    3  A    between atoms: C_5  and  C_6
REMARK    4  A    between atoms: C_10  and  C_11
REMARK    5  A    between atoms: C_16  and  C_17
REMARK    6  A    between atoms: N_22  and  C_23
REMARK    7  A    between atoms: C_23  and  C_24
REMARK    8  A    between atoms: C_23  and  C_25
REMARK                            x       y       z     vdW  Elec       q    Type
REMARK                         _______ _______ _______ _____ _____    ______ ____
ROOT
ATOM      1  C   UNL     1       1.240  13.569  18.777  0.00  0.00    +0.000 A 
ATOM      2  N   UNL     1       0.017  13.386  18.351  0.00  0.00    +0.000 NA
ATOM      3  C   UNL     1      -0.252  12.056  18.606  0.00  0.00    +0.000 A 
ATOM      4  C   UNL     1       0.853  11.418  19.167  0.00  0.00    +0.000 A 
ATOM      5  N   UNL     1       1.782  12.430  19.282  0.00  0.00    +0.000 N 
ATOM      6  H   UNL     1       2.726  12.346  19.628  0.00  0.00    +0.000 HD
ENDROOT
BRANCH   4   7
ATOM      7  C   UNL     1       1.153  10.029  19.517  0.00  0.00    +0.000 A 
ATOM      8  C   UNL     1       1.012   9.551  20.821  0.00  0.00    +0.000 A 
ATOM      9  C   UNL     1       1.319   8.220  21.067  0.00  0.00    +0.000 A 
ATOM     10  N   UNL     1       1.772   7.362  20.124  0.00  0.00    +0.000 NA
ATOM     11  C   UNL     1       1.938   7.840  18.878  0.00  0.00    +0.000 A 
ATOM     12  N   UNL     1       2.430   7.023  17.845  0.00  0.00    +0.000 N 
ATOM     13  C   UNL     1       1.612   9.145  18.540  0.00  0.00    +0.000 A 
ATOM     14  H   UNL     1       1.612   6.556  17.455  0.00  0.00    +0.000 HD
BRANCH  12  15
ATOM     15  C   UNL     1       3.480   6.065  18.232  0.00  0.00    +0.000 C 
ATOM     16  C   UNL     1       4.832   6.565  17.682  0.00  0.00    +0.000 C 
BRANCH  15  17
ATOM     17  C   UNL     1       3.127   4.667  17.614  0.00  0.00    +0.000 C 
ATOM     18  C   UNL     1       4.070   3.532  18.067  0.00  0.00    +0.000 C 
ATOM     19  C   UNL     1       3.880   3.161  19.537  0.00  0.00    +0.000 C 
ATOM     20  C   UNL     1       2.430   2.803  19.850  0.00  0.00    +0.000 C 
ATOM     21  C   UNL     1       1.450   3.867  19.363  0.00  0.00    +0.000 C 
ATOM     22  C   UNL     1       1.680   4.203  17.892  0.00  0.00    +0.000 C 
ENDBRANCH  15  17
ENDBRANCH  12  15
ENDBRANCH   4   7
BRANCH   3  23
ATOM     23  C   UNL     1      -1.544  11.463  18.286  0.00  0.00    +0.000 A 
ATOM     24  C   UNL     1      -1.610  10.347  17.443  0.00  0.00    +0.000 A 
ATOM     25  C   UNL     1      -2.840   9.751  17.148  0.00  0.00    +0.000 A 
ATOM     26  C   UNL     1      -4.017  10.259  17.701  0.00  0.00    +0.000 A 
ATOM     27  C   UNL     1      -3.976  11.381  18.540  0.00  0.00    +0.000 A 
ATOM     28  C   UNL     1      -2.736  11.986  18.804  0.00  0.00    +0.000 A 
BRANCH  27  29
ATOM     29  C   UNL     1      -5.219  11.935  19.186  0.00  0.00    +0.000 C 
ATOM     30  F   UNL     1      -5.671  13.082  18.609  0.00  0.00    +0.000 F 
ATOM     31  F   UNL     1      -6.262  11.058  19.135  0.00  0.00    +0.000 F 
ATOM     32  F   UNL     1      -5.041  12.224  20.505  0.00  0.00    +0.000 F 
ENDBRANCH  27  29
ENDBRANCH   3  23
BRANCH   1  34
ATOM     33  C   UNL     1       3.563  14.531  19.793  0.00  0.00    +0.000 C 
ATOM     34  S   UNL     1       2.171  15.017  18.748  0.00  0.00    +0.000 S 
ENDBRANCH   1  34
TORSDOF 6
ENDMDL
MODEL 2
REMARK VINA RESULT:      -8.4      4.463      8.691
REMARK  Name = 
REMARK  8 active torsions:
REMARK  status: ('A' for Active; 'I' for Inactive)
REMARK    1  A    between atoms: C_1  and  S_2
REMARK    2  A    between atoms: S_2  and  C_3
REMARK    3  A    between atoms: C_5  and  C_6
REMARK    4  A    between atoms: C_10  and  C_11
REMARK    5  A    between atoms: C_16  and  C_17
REMARK    6  A    between atoms: N_22  and  C_23
REMARK    7  A    between atoms: C_23  and  C_24
REMARK    8  A    between atoms: C_23  and  C_25
REMARK                            x       y       z     vdW  Elec       q    Type
REMARK                         _______ _______ _______ _____ _____    ______ ____
ROOT
ATOM      1  C   UNL     1       5.089   5.868  16.529  0.00  0.00    +0.000 A 
ATOM      2  N   UNL     1       4.548   4.757  16.960  0.00  0.00    +0.000 NA
ATOM      3  C   UNL     1       3.474   5.159  17.727  0.00  0.00    +0.000 A 
ATOM      4  C   UNL     1       3.390   6.550  17.787  0.00  0.00    +0.000 A 
ATOM      5  N   UNL     1       4.432   6.967  16.985  0.00  0.00    +0.000 N 
ATOM      6  H   UNL     1       4.707   7.920  16.801  0.00  0.00    +0.000 HD
ENDROOT
BRANCH   4   7
ATOM      7  C   UNL     1       2.543   7.484  18.529  0.00  0.00    +0.000 A 
ATOM      8  C   UNL     1       2.357   7.374  19.907  0.00  0.00    +0.000 A 
ATOM      9  C   UNL     1       1.535   8.302  20.534  0.00  0.00    +0.000 A 
ATOM     10  N   UNL     1       0.884   9.293  19.884  0.00  0.00    +0.000 NA
ATOM     11  C   UNL     1       1.042   9.371  18.551  0.00  0.00    +0.000 A 
ATOM     12  N   UNL     1       0.380  10.356  17.796  0.00  0.00    +0.000 N 
ATOM     13  C   UNL     1       1.879   8.511  17.857  0.00  0.00    +0.000 A 
ATOM     14  H   UNL     1       0.988  11.172  17.821  0.00  0.00    +0.000 HD
BRANCH  12  15
ATOM     15  C   UNL     1      -0.992  10.676  18.227  0.00  0.00    +0.000 C 
ATOM     16  C   UNL     1      -1.982  10.106  17.189  0.00  0.00    +0.000 C 
BRANCH  15  17
ATOM     17  C   UNL     1      -1.133  12.236  18.310  0.00  0.00    +0.000 C 
ATOM     18  C   UNL     1      -2.165  12.711  19.355  0.00  0.00    +0.000 C 
ATOM     19  C   UNL     1      -1.704  12.469  20.791  0.00  0.00    +0.000 C 
ATOM     20  C   UNL     1      -0.343  13.102  21.064  0.00  0.00    +0.000 C 
ATOM     21  C   UNL     1       0.700  12.714  20.020  0.00  0.00    +0.000 C 
ATOM     22  C   UNL     1       0.192  12.973  18.604  0.00  0.00    +0.000 C 
ENDBRANCH  15  17
ENDBRANCH  12  15
ENDBRANCH   4   7
BRANCH   3  23
ATOM     23  C   UNL     1       2.594   4.195  18.375  0.00  0.00    +0.000 A 
ATOM     24  C   UNL     1       1.651   3.490  17.617  0.00  0.00    +0.000 A 
ATOM     25  C   UNL     1       0.818   2.543  18.221  0.00  0.00    +0.000 A 
ATOM     26  C   UNL     1       0.926   2.284  19.588  0.00  0.00    +0.000 A 
ATOM     27  C   UNL     1       1.856   2.984  20.369  0.00  0.00    +0.000 A 
ATOM     28  C   UNL     1       2.666   3.953  19.753  0.00  0.00    +0.000 A 
BRANCH  27  29
ATOM     29  C   UNL     1       2.028   2.705  21.839  0.00  0.00    +0.000 C 
ATOM     30  F   UNL     1       3.003   1.795  22.112  0.00  0.00    +0.000 F 
ATOM     31  F   UNL     1       2.359   3.826  22.542  0.00  0.00    +0.000 F 
ATOM     32  F   UNL     1       0.894   2.224  22.419  0.00  0.00    +0.000 F 
ENDBRANCH  27  29
ENDBRANCH   3  23
BRANCH   1  34
ATOM     33  C   UNL     1       6.328   4.580  14.490  0.00  0.00    +0.000 C 
ATOM     34  S   UNL     1       6.469   6.059  15.519  0.00  0.00    +0.000 S 
ENDBRANCH   1  34
TORSDOF 6
ENDMDL
MODEL 3
REMARK VINA RESULT:      -8.2      1.720      2.130
REMARK  Name = 
REMARK  8 active torsions:
REMARK  status: ('A' for Active; 'I' for Inactive)
REMARK    1  A    between atoms: C_1  and  S_2
REMARK    2  A    between atoms: S_2  and  C_3
REMARK    3  A    between atoms: C_5  and  C_6
REMARK    4  A    between atoms: C_10  and  C_11
REMARK    5  A    between atoms: C_16  and  C_17
REMARK    6  A    between atoms: N_22  and  C_23
REMARK    7  A    between atoms: C_23  and  C_24
REMARK    8  A    between atoms: C_23  and  C_25
REMARK                            x       y       z     vdW  Elec       q    Type
REMARK                         _______ _______ _______ _____ _____    ______ ____
ROOT
ATOM      1  C   UNL     1       1.295  14.174  19.175  0.00  0.00    +0.000 A 
ATOM      2  N   UNL     1       0.059  14.059  18.761  0.00  0.00    +0.000 NA
ATOM      3  C   UNL     1      -0.262  12.733  18.967  0.00  0.00    +0.000 A 
ATOM      4  C   UNL     1       0.824  12.026  19.484  0.00  0.00    +0.000 A 
ATOM      5  N   UNL     1       1.796  12.994  19.625  0.00  0.00    +0.000 N 
ATOM      6  H   UNL     1       2.740  12.857  19.953  0.00  0.00    +0.000 HD
ENDROOT
BRANCH   4   7
ATOM      7  C   UNL     1       1.070  10.613  19.774  0.00  0.00    +0.000 A 
ATOM      8  C   UNL     1       0.935  10.090  21.060  0.00  0.00    +0.000 A 
ATOM      9  C   UNL     1       1.189   8.738  21.248  0.00  0.00    +0.000 A 
ATOM     10  N   UNL     1       1.583   7.900  20.262  0.00  0.00    +0.000 NA
ATOM     11  C   UNL     1       1.744   8.420  19.032  0.00  0.00    +0.000 A 
ATOM     12  N   UNL     1       2.177   7.624  17.957  0.00  0.00    +0.000 N 
ATOM     13  C   UNL     1       1.468   9.750  18.752  0.00  0.00    +0.000 A 
ATOM     14  H   UNL     1       1.332   7.209  17.569  0.00  0.00    +0.000 HD
BRANCH  12  15
ATOM     15  C   UNL     1       3.193   6.607  18.283  0.00  0.00    +0.000 C 
ATOM     16  C   UNL     1       4.475   6.915  17.482  0.00  0.00    +0.000 C 
BRANCH  15  17
ATOM     17  C   UNL     1       2.628   5.199  17.881  0.00  0.00    +0.000 C 
ATOM     18  C   UNL     1       3.720   4.123  17.699  0.00  0.00    +0.000 C 
ATOM     19  C   UNL     1       4.371   3.715  19.019  0.00  0.00    +0.000 C 
ATOM     20  C   UNL     1       3.338   3.255  20.044  0.00  0.00    +0.000 C 
ATOM     21  C   UNL     1       2.200   4.258  20.214  0.00  0.00    +0.000 C 
ATOM     22  C   UNL     1       1.584   4.634  18.869  0.00  0.00    +0.000 C 
ENDBRANCH  15  17
ENDBRANCH  12  15
ENDBRANCH   4   7
BRANCH   3  23
ATOM     23  C   UNL     1      -1.582  12.207  18.644  0.00  0.00    +0.000 A 
ATOM     24  C   UNL     1      -2.638  12.368  19.548  0.00  0.00    +0.000 A 
ATOM     25  C   UNL     1      -3.916  11.891  19.240  0.00  0.00    +0.000 A 
ATOM     26  C   UNL     1      -4.153  11.256  18.020  0.00  0.00    +0.000 A 
ATOM     27  C   UNL     1      -3.109  11.075  17.103  0.00  0.00    +0.000 A 
ATOM     28  C   UNL     1      -1.825  11.534  17.439  0.00  0.00    +0.000 A 
BRANCH  27  29
ATOM     29  C   UNL     1      -3.334  10.430  15.760  0.00  0.00    +0.000 C 
ATOM     30  F   UNL     1      -2.685  11.054  14.738  0.00  0.00    +0.000 F 
ATOM     31  F   UNL     1      -2.910   9.135  15.733  0.00  0.00    +0.000 F 
ATOM     32  F   UNL     1      -4.648  10.400  15.406  0.00  0.00    +0.000 F 
ENDBRANCH  27  29
ENDBRANCH   3  23
BRANCH   1  34
ATOM     33  C   UNL     1       3.459  15.170  17.880  0.00  0.00    +0.000 C 
ATOM     34  S   UNL     1       2.286  15.581  19.190  0.00  0.00    +0.000 S 
ENDBRANCH   1  34
TORSDOF 6
ENDMDL
MODEL 4
REMARK VINA RESULT:      -8.2      4.377      8.505
REMARK  Name = 
REMARK  8 active torsions:
REMARK  status: ('A' for Active; 'I' for Inactive)
REMARK    1  A    between atoms: C_1  and  S_2
REMARK    2  A    between atoms: S_2  and  C_3
REMARK    3  A    between atoms: C_5  and  C_6
REMARK    4  A    between atoms: C_10  and  C_11
REMARK    5  A    between atoms: C_16  and  C_17
REMARK    6  A    between atoms: N_22  and  C_23
REMARK    7  A    between atoms: C_23  and  C_24
REMARK    8  A    between atoms: C_23  and  C_25
REMARK                            x       y       z     vdW  Elec       q    Type
REMARK                         _______ _______ _______ _____ _____    ______ ____
ROOT
ATOM      1  C   UNL     1       5.154   6.194  16.887  0.00  0.00    +0.000 A 
ATOM      2  N   UNL     1       4.618   5.060  17.258  0.00  0.00    +0.000 NA
ATOM      3  C   UNL     1       3.473   5.416  17.941  0.00  0.00    +0.000 A 
ATOM      4  C   UNL     1       3.339   6.802  18.013  0.00  0.00    +0.000 A 
ATOM      5  N   UNL     1       4.427   7.265  17.303  0.00  0.00    +0.000 N 
ATOM      6  H   UNL     1       4.685   8.229  17.154  0.00  0.00    +0.000 HD
ENDROOT
BRANCH   4   7
ATOM      7  C   UNL     1       2.405   7.698  18.697  0.00  0.00    +0.000 A 
ATOM      8  C   UNL     1       2.174   7.611  20.070  0.00  0.00    +0.000 A 
ATOM      9  C   UNL     1       1.271   8.498  20.639  0.00  0.00    +0.000 A 
ATOM     10  N   UNL     1       0.581   9.427  19.939  0.00  0.00    +0.000 NA
ATOM     11  C   UNL     1       0.785   9.481  18.610  0.00  0.00    +0.000 A 
ATOM     12  N   UNL     1       0.089  10.399  17.804  0.00  0.00    +0.000 N 
ATOM     13  C   UNL     1       1.702   8.661  17.972  0.00  0.00    +0.000 A 
ATOM     14  H   UNL     1       0.642  11.255  17.828  0.00  0.00    +0.000 HD
BRANCH  12  15
ATOM     15  C   UNL     1      -1.317  10.639  18.175  0.00  0.00    +0.000 C 
ATOM     16  C   UNL     1      -2.226  10.000  17.105  0.00  0.00    +0.000 C 
BRANCH  15  17
ATOM     17  C   UNL     1      -1.555  12.188  18.234  0.00  0.00    +0.000 C 
ATOM     18  C   UNL     1      -2.515  12.626  19.361  0.00  0.00    +0.000 C 
ATOM     19  C   UNL     1      -1.907  12.458  20.752  0.00  0.00    +0.000 C 
ATOM     20  C   UNL     1      -0.573  13.187  20.880  0.00  0.00    +0.000 C 
ATOM     21  C   UNL     1       0.393  12.837  19.750  0.00  0.00    +0.000 C 
ATOM     22  C   UNL     1      -0.262  13.020  18.383  0.00  0.00    +0.000 C 
ENDBRANCH  15  17
ENDBRANCH  12  15
ENDBRANCH   4   7
BRANCH   3  23
ATOM     23  C   UNL     1       2.576   4.414  18.503  0.00  0.00    +0.000 A 
ATOM     24  C   UNL     1       1.662   3.752  17.676  0.00  0.00    +0.000 A 
ATOM     25  C   UNL     1       0.813   2.770  18.196  0.00  0.00    +0.000 A 
ATOM     26  C   UNL     1       0.877   2.434  19.550  0.00  0.00    +0.000 A 
ATOM     27  C   UNL     1       1.778   3.090  20.399  0.00  0.00    +0.000 A 
ATOM     28  C   UNL     1       2.604   4.094  19.867  0.00  0.00    +0.000 A 
BRANCH  27  29
ATOM     29  C   UNL     1       1.903   2.727  21.856  0.00  0.00    +0.000 C 
ATOM     30  F   UNL     1       0.744   2.272  22.408  0.00  0.00    +0.000 F 
ATOM     31  F   UNL     1       2.825   1.746  22.066  0.00  0.00    +0.000 F 
ATOM     32  F   UNL     1       2.296   3.779  22.627  0.00  0.00    +0.000 F 
ENDBRANCH  27  29
ENDBRANCH   3  23
BRANCH   1  34
ATOM     33  C   UNL     1       7.618   7.271  17.240  0.00  0.00    +0.000 C 
ATOM     34  S   UNL     1       6.604   6.445  15.993  0.00  0.00    +0.000 S 
ENDBRANCH   1  34
TORSDOF 6
ENDMDL
MODEL 5
REMARK VINA RESULT:      -8.1      4.413      8.284
REMARK  Name = 
REMARK  8 active torsions:
REMARK  status: ('A' for Active; 'I' for Inactive)
REMARK    1  A    between atoms: C_1  and  S_2
REMARK    2  A    between atoms: S_2  and  C_3
REMARK    3  A    between atoms: C_5  and  C_6
REMARK    4  A    between atoms: C_10  and  C_11
REMARK    5  A    between atoms: C_16  and  C_17
REMARK    6  A    between atoms: N_22  and  C_23
REMARK    7  A    between atoms: C_23  and  C_24
REMARK    8  A    between atoms: C_23  and  C_25
REMARK                            x       y       z     vdW  Elec       q    Type
REMARK                         _______ _______ _______ _____ _____    ______ ____
ROOT
ATOM      1  C   UNL     1       5.050   6.465  16.991  0.00  0.00    +0.000 A 
ATOM      2  N   UNL     1       4.513   5.328  17.351  0.00  0.00    +0.000 NA
ATOM      3  C   UNL     1       3.361   5.677  18.026  0.00  0.00    +0.000 A 
ATOM      4  C   UNL     1       3.225   7.063  18.105  0.00  0.00    +0.000 A 
ATOM      5  N   UNL     1       4.318   7.532  17.408  0.00  0.00    +0.000 N 
ATOM      6  H   UNL     1       4.575   8.497  17.267  0.00  0.00    +0.000 HD
ENDROOT
BRANCH   4   7
ATOM      7  C   UNL     1       2.283   7.953  18.786  0.00  0.00    +0.000 A 
ATOM      8  C   UNL     1       1.883   7.732  20.105  0.00  0.00    +0.000 A 
ATOM      9  C   UNL     1       0.985   8.624  20.675  0.00  0.00    +0.000 A 
ATOM     10  N   UNL     1       0.455   9.682  20.022  0.00  0.00    +0.000 NA
ATOM     11  C   UNL     1       0.819   9.868  18.740  0.00  0.00    +0.000 A 
ATOM     12  N   UNL     1       0.293  10.928  17.981  0.00  0.00    +0.000 N 
ATOM     13  C   UNL     1       1.744   9.049  18.111  0.00  0.00    +0.000 A 
ATOM     14  H   UNL     1       0.900  11.725  18.170  0.00  0.00    +0.000 HD
BRANCH  12  15
ATOM     15  C   UNL     1      -1.126  11.245  18.221  0.00  0.00    +0.000 C 
ATOM     16  C   UNL     1      -1.321  11.533  19.724  0.00  0.00    +0.000 C 
BRANCH  15  17
ATOM     17  C   UNL     1      -1.988  10.007  17.790  0.00  0.00    +0.000 C 
ATOM     18  C   UNL     1      -3.442  10.054  18.304  0.00  0.00    +0.000 C 
ATOM     19  C   UNL     1      -4.276  11.134  17.617  0.00  0.00    +0.000 C 
ATOM     20  C   UNL     1      -4.254  10.987  16.098  0.00  0.00    +0.000 C 
ATOM     21  C   UNL     1      -2.837  10.871  15.544  0.00  0.00    +0.000 C 
ATOM     22  C   UNL     1      -2.047   9.781  16.263  0.00  0.00    +0.000 C 
ENDBRANCH  15  17
ENDBRANCH  12  15
ENDBRANCH   4   7
BRANCH   3  23
ATOM     23  C   UNL     1       2.461   4.671  18.575  0.00  0.00    +0.000 A 
ATOM     24  C   UNL     1       1.478   4.095  17.761  0.00  0.00    +0.000 A 
ATOM     25  C   UNL     1       0.625   3.109  18.267  0.00  0.00    +0.000 A 
ATOM     26  C   UNL     1       0.752   2.683  19.589  0.00  0.00    +0.000 A 
ATOM     27  C   UNL     1       1.723   3.251  20.425  0.00  0.00    +0.000 A 
ATOM     28  C   UNL     1       2.553   4.260  19.911  0.00  0.00    +0.000 A 
BRANCH  27  29
ATOM     29  C   UNL     1       1.916   2.790  21.846  0.00  0.00    +0.000 C 
ATOM     30  F   UNL     1       2.311   3.779  22.694  0.00  0.00    +0.000 F 
ATOM     31  F   UNL     1       0.773   2.276  22.382  0.00  0.00    +0.000 F 
ATOM     32  F   UNL     1       2.853   1.807  21.956  0.00  0.00    +0.000 F 
ENDBRANCH  27  29
ENDBRANCH   3  23
BRANCH   1  34
ATOM     33  C   UNL     1       7.517   7.524  17.378  0.00  0.00    +0.000 C 
ATOM     34  S   UNL     1       6.507   6.724  16.112  0.00  0.00    +0.000 S 
ENDBRANCH   1  34
TORSDOF 6
ENDMDL
MODEL 6
REMARK VINA RESULT:      -8.0      1.356      1.822
REMARK  Name = 
REMARK  8 active torsions:
REMARK  status: ('A' for Active; 'I' for Inactive)
REMARK    1  A    between atoms: C_1  and  S_2
REMARK    2  A    between atoms: S_2  and  C_3
REMARK    3  A    between atoms: C_5  and  C_6
REMARK    4  A    between atoms: C_10  and  C_11
REMARK    5  A    between atoms: C_16  and  C_17
REMARK    6  A    between atoms: N_22  and  C_23
REMARK    7  A    between atoms: C_23  and  C_24
REMARK    8  A    between atoms: C_23  and  C_25
REMARK                            x       y       z     vdW  Elec       q    Type
REMARK                         _______ _______ _______ _____ _____    ______ ____
ROOT
ATOM      1  C   UNL     1       2.125  13.811  18.316  0.00  0.00    +0.000 A 
ATOM      2  N   UNL     1       0.824  13.940  18.339  0.00  0.00    +0.000 NA
ATOM      3  C   UNL     1       0.352  12.715  18.764  0.00  0.00    +0.000 A 
ATOM      4  C   UNL     1       1.399  11.815  18.965  0.00  0.00    +0.000 A 
ATOM      5  N   UNL     1       2.522  12.566  18.690  0.00  0.00    +0.000 N 
ATOM      6  H   UNL     1       3.479  12.247  18.705  0.00  0.00    +0.000 HD
ENDROOT
BRANCH   4   7
ATOM      7  C   UNL     1       1.463  10.390  19.293  0.00  0.00    +0.000 A 
ATOM      8  C   UNL     1       1.043   9.899  20.530  0.00  0.00    +0.000 A 
ATOM      9  C   UNL     1       1.140   8.534  20.759  0.00  0.00    +0.000 A 
ATOM     10  N   UNL     1       1.641   7.651  19.865  0.00  0.00    +0.000 NA
ATOM     11  C   UNL     1       2.076   8.138  18.689  0.00  0.00    +0.000 A 
ATOM     12  N   UNL     1       2.635   7.293  17.714  0.00  0.00    +0.000 N 
ATOM     13  C   UNL     1       1.973   9.482  18.364  0.00  0.00    +0.000 A 
ATOM     14  H   UNL     1       1.847   6.945  17.171  0.00  0.00    +0.000 HD
BRANCH  12  15
ATOM     15  C   UNL     1       3.480   6.199  18.225  0.00  0.00    +0.000 C 
ATOM     16  C   UNL     1       4.942   6.470  17.814  0.00  0.00    +0.000 C 
BRANCH  15  17
ATOM     17  C   UNL     1       2.979   4.853  17.593  0.00  0.00    +0.000 C 
ATOM     18  C   UNL     1       3.917   3.656  17.860  0.00  0.00    +0.000 C 
ATOM     19  C   UNL     1       3.906   3.213  19.322  0.00  0.00    +0.000 C 
ATOM     20  C   UNL     1       2.494   2.901  19.810  0.00  0.00    +0.000 C 
ATOM     21  C   UNL     1       1.511   4.029  19.510  0.00  0.00    +0.000 C 
ATOM     22  C   UNL     1       1.561   4.435  18.040  0.00  0.00    +0.000 C 
ENDBRANCH  15  17
ENDBRANCH  12  15
ENDBRANCH   4   7
BRANCH   3  23
ATOM     23  C   UNL     1      -1.072  12.462  18.938  0.00  0.00    +0.000 A 
ATOM     24  C   UNL     1      -1.730  12.930  20.082  0.00  0.00    +0.000 A 
ATOM     25  C   UNL     1      -3.102  12.717  20.250  0.00  0.00    +0.000 A 
ATOM     26  C   UNL     1      -3.832  12.042  19.271  0.00  0.00    +0.000 A 
ATOM     27  C   UNL     1      -3.194  11.556  18.122  0.00  0.00    +0.000 A 
ATOM     28  C   UNL     1      -1.810  11.752  17.980  0.00  0.00    +0.000 A 
BRANCH  27  29
ATOM     29  C   UNL     1      -3.955  10.857  17.026  0.00  0.00    +0.000 C 
ATOM     30  F   UNL     1      -3.950  11.530  15.842  0.00  0.00    +0.000 F 
ATOM     31  F   UNL     1      -3.449   9.621  16.753  0.00  0.00    +0.000 F 
ATOM     32  F   UNL     1      -5.266  10.662  17.339  0.00  0.00    +0.000 F 
ENDBRANCH  27  29
ENDBRANCH   3  23
BRANCH   1  34
ATOM     33  C   UNL     1       2.412  16.507  18.262  0.00  0.00    +0.000 C 
ATOM     34  S   UNL     1       3.304  14.984  17.874  0.00  0.00    +0.000 S 
ENDBRANCH   1  34
TORSDOF 6
ENDMDL
MODEL 7
REMARK VINA RESULT:      -8.0      1.492      2.388
REMARK  Name = 
REMARK  8 active torsions:
REMARK  status: ('A' for Active; 'I' for Inactive)
REMARK    1  A    between atoms: C_1  and  S_2
REMARK    2  A    between atoms: S_2  and  C_3
REMARK    3  A    between atoms: C_5  and  C_6
REMARK    4  A    between atoms: C_10  and  C_11
REMARK    5  A    between atoms: C_16  and  C_17
REMARK    6  A    between atoms: N_22  and  C_23
REMARK    7  A    between atoms: C_23  and  C_24
REMARK    8  A    between atoms: C_23  and  C_25
REMARK                            x       y       z     vdW  Elec       q    Type
REMARK                         _______ _______ _______ _____ _____    ______ ____
ROOT
ATOM      1  C   UNL     1       0.430  12.931  20.706  0.00  0.00    +0.000 A 
ATOM      2  N   UNL     1      -0.672  12.800  20.014  0.00  0.00    +0.000 NA
ATOM      3  C   UNL     1      -0.548  11.581  19.378  0.00  0.00    +0.000 A 
ATOM      4  C   UNL     1       0.678  10.984  19.668  0.00  0.00    +0.000 A 
ATOM      5  N   UNL     1       1.266  11.872  20.543  0.00  0.00    +0.000 N 
ATOM      6  H   UNL     1       2.182  11.793  20.959  0.00  0.00    +0.000 HD
ENDROOT
BRANCH   4   7
ATOM      7  C   UNL     1       1.360   9.782  19.187  0.00  0.00    +0.000 A 
ATOM      8  C   UNL     1       1.874   9.694  17.893  0.00  0.00    +0.000 A 
ATOM      9  C   UNL     1       2.505   8.516  17.517  0.00  0.00    +0.000 A 
ATOM     10  N   UNL     1       2.632   7.437  18.323  0.00  0.00    +0.000 NA
ATOM     11  C   UNL     1       2.104   7.518  19.558  0.00  0.00    +0.000 A 
ATOM     12  N   UNL     1       2.169   6.433  20.449  0.00  0.00    +0.000 N 
ATOM     13  C   UNL     1       1.497   8.674  20.025  0.00  0.00    +0.000 A 
ATOM     14  H   UNL     1       3.063   6.527  20.928  0.00  0.00    +0.000 HD
BRANCH  12  15
ATOM     15  C   UNL     1       2.003   5.099  19.846  0.00  0.00    +0.000 C 
ATOM     16  C   UNL     1       0.799   4.400  20.511  0.00  0.00    +0.000 C 
BRANCH  15  17
ATOM     17  C   UNL     1       3.315   4.276  20.098  0.00  0.00    +0.000 C 
ATOM     18  C   UNL     1       3.080   2.755  20.218  0.00  0.00    +0.000 C 
ATOM     19  C   UNL     1       2.688   2.113  18.888  0.00  0.00    +0.000 C 
ATOM     20  C   UNL     1       3.708   2.408  17.793  0.00  0.00    +0.000 C 
ATOM     21  C   UNL     1       4.025   3.897  17.677  0.00  0.00    +0.000 C 
ATOM     22  C   UNL     1       4.409   4.490  19.030  0.00  0.00    +0.000 C 
ENDBRANCH  15  17
ENDBRANCH  12  15
ENDBRANCH   4   7
BRANCH   3  23
ATOM     23  C   UNL     1      -1.599  11.060  18.513  0.00  0.00    +0.000 A 
ATOM     24  C   UNL     1      -1.291  10.105  17.537  0.00  0.00    +0.000 A 
ATOM     25  C   UNL     1      -2.294   9.576  16.718  0.00  0.00    +0.000 A 
ATOM     26  C   UNL     1      -3.617   9.991  16.873  0.00  0.00    +0.000 A 
ATOM     27  C   UNL     1      -3.948  10.952  17.837  0.00  0.00    +0.000 A 
ATOM     28  C   UNL     1      -2.926  11.495  18.633  0.00  0.00    +0.000 A 
BRANCH  27  29
ATOM     29  C   UNL     1      -5.371  11.396  18.061  0.00  0.00    +0.000 C 
ATOM     30  F   UNL     1      -5.525  12.219  19.135  0.00  0.00    +0.000 F 
ATOM     31  F   UNL     1      -5.872  12.080  16.993  0.00  0.00    +0.000 F 
ATOM     32  F   UNL     1      -6.220  10.351  18.266  0.00  0.00    +0.000 F 
ENDBRANCH  27  29
ENDBRANCH   3  23
BRANCH   1  34
ATOM     33  C   UNL     1      -0.580  14.395  22.754  0.00  0.00    +0.000 C 
ATOM     34  S   UNL     1       0.897  14.237  21.725  0.00  0.00    +0.000 S 
ENDBRANCH   1  34
TORSDOF 6
ENDMDL
MODEL 8
REMARK VINA RESULT:      -7.8      4.426      8.601
REMARK  Name = 
REMARK  8 active torsions:
REMARK  status: ('A' for Active; 'I' for Inactive)
REMARK    1  A    between atoms: C_1  and  S_2
REMARK    2  A    between atoms: S_2  and  C_3
REMARK    3  A    between atoms: C_5  and  C_6
REMARK    4  A    between atoms: C_10  and  C_11
REMARK    5  A    between atoms: C_16  and  C_17
REMARK    6  A    between atoms: N_22  and  C_23
REMARK    7  A    between atoms: C_23  and  C_24
REMARK    8  A    between atoms: C_23  and  C_25
REMARK                            x       y       z     vdW  Elec       q    Type
REMARK                         _______ _______ _______ _____ _____    ______ ____
ROOT
ATOM      1  C   UNL     1       5.248   6.464  17.259  0.00  0.00    +0.000 A 
ATOM      2  N   UNL     1       4.705   5.319  17.584  0.00  0.00    +0.000 NA
ATOM      3  C   UNL     1       3.489   5.650  18.146  0.00  0.00    +0.000 A 
ATOM      4  C   UNL     1       3.316   7.033  18.193  0.00  0.00    +0.000 A 
ATOM      5  N   UNL     1       4.458   7.518  17.592  0.00  0.00    +0.000 N 
ATOM      6  H   UNL     1       4.706   8.487  17.461  0.00  0.00    +0.000 HD
ENDROOT
BRANCH   4   7
ATOM      7  C   UNL     1       2.297   7.910  18.773  0.00  0.00    +0.000 A 
ATOM      8  C   UNL     1       2.070   7.966  20.148  0.00  0.00    +0.000 A 
ATOM      9  C   UNL     1       1.083   8.823  20.615  0.00  0.00    +0.000 A 
ATOM     10  N   UNL     1       0.310   9.591  19.814  0.00  0.00    +0.000 NA
ATOM     11  C   UNL     1       0.512   9.505  18.487  0.00  0.00    +0.000 A 
ATOM     12  N   UNL     1      -0.267  10.249  17.583  0.00  0.00    +0.000 N 
ATOM     13  C   UNL     1       1.507   8.707  17.943  0.00  0.00    +0.000 A 
ATOM     14  H   UNL     1       0.200  11.151  17.500  0.00  0.00    +0.000 HD
BRANCH  12  15
ATOM     15  C   UNL     1      -1.690  10.394  17.934  0.00  0.00    +0.000 C 
ATOM     16  C   UNL     1      -2.535   9.602  16.913  0.00  0.00    +0.000 C 
BRANCH  15  17
ATOM     17  C   UNL     1      -2.060  11.918  17.877  0.00  0.00    +0.000 C 
ATOM     18  C   UNL     1      -3.569  12.197  18.052  0.00  0.00    +0.000 C 
ATOM     19  C   UNL     1      -4.059  11.919  19.471  0.00  0.00    +0.000 C 
ATOM     20  C   UNL     1      -3.253  12.690  20.512  0.00  0.00    +0.000 C 
ATOM     21  C   UNL     1      -1.748  12.499  20.342  0.00  0.00    +0.000 C 
ATOM     22  C   UNL     1      -1.309  12.787  18.909  0.00  0.00    +0.000 C 
ENDBRANCH  15  17
ENDBRANCH  12  15
ENDBRANCH   4   7
BRANCH   3  23
ATOM     23  C   UNL     1       2.564   4.630  18.624  0.00  0.00    +0.000 A 
ATOM     24  C   UNL     1       1.634   4.064  17.745  0.00  0.00    +0.000 A 
ATOM     25  C   UNL     1       0.758   3.066  18.184  0.00  0.00    +0.000 A 
ATOM     26  C   UNL     1       0.811   2.617  19.504  0.00  0.00    +0.000 A 
ATOM     27  C   UNL     1       1.727   3.176  20.405  0.00  0.00    +0.000 A 
ATOM     28  C   UNL     1       2.581   4.197  19.957  0.00  0.00    +0.000 A 
BRANCH  27  29
ATOM     29  C   UNL     1       1.840   2.691  21.827  0.00  0.00    +0.000 C 
ATOM     30  F   UNL     1       2.672   1.623  21.976  0.00  0.00    +0.000 F 
ATOM     31  F   UNL     1       2.318   3.654  22.664  0.00  0.00    +0.000 F 
ATOM     32  F   UNL     1       0.642   2.306  22.347  0.00  0.00    +0.000 F 
ENDBRANCH  27  29
ENDBRANCH   3  23
BRANCH   1  34
ATOM     33  C   UNL     1       6.966   5.213  15.573  0.00  0.00    +0.000 C 
ATOM     34  S   UNL     1       6.774   6.744  16.513  0.00  0.00    +0.000 S 
ENDBRANCH   1  34
TORSDOF 6
ENDMDL
MODEL 9
REMARK VINA RESULT:      -7.8      6.894      9.997
REMARK  Name = 
REMARK  8 active torsions:
REMARK  status: ('A' for Active; 'I' for Inactive)
REMARK    1  A    between atoms: C_1  and  S_2
REMARK    2  A    between atoms: S_2  and  C_3
REMARK    3  A    between atoms: C_5  and  C_6
REMARK    4  A    between atoms: C_10  and  C_11
REMARK    5  A    between atoms: C_16  and  C_17
REMARK    6  A    between atoms: N_22  and  C_23
REMARK    7  A    between atoms: C_23  and  C_24
REMARK    8  A    between atoms: C_23  and  C_25
REMARK                            x       y       z     vdW  Elec       q    Type
REMARK                         _______ _______ _______ _____ _____    ______ ____
ROOT
ATOM      1  C   UNL     1       6.239   4.308  14.129  0.00  0.00    +0.000 A 
ATOM      2  N   UNL     1       5.139   4.071  14.796  0.00  0.00    +0.000 NA
ATOM      3  C   UNL     1       5.274   4.785  15.970  0.00  0.00    +0.000 A 
ATOM      4  C   UNL     1       6.505   5.438  16.022  0.00  0.00    +0.000 A 
ATOM      5  N   UNL     1       7.084   5.125  14.811  0.00  0.00    +0.000 N 
ATOM      6  H   UNL     1       8.000   5.401  14.491  0.00  0.00    +0.000 HD
ENDROOT
BRANCH   4   7
ATOM      7  C   UNL     1       7.199   6.215  17.051  0.00  0.00    +0.000 A 
ATOM      8  C   UNL     1       7.448   5.697  18.322  0.00  0.00    +0.000 A 
ATOM      9  C   UNL     1       8.110   6.502  19.239  0.00  0.00    +0.000 A 
ATOM     10  N   UNL     1       8.508   7.769  18.982  0.00  0.00    +0.000 NA
ATOM     11  C   UNL     1       8.233   8.272  17.765  0.00  0.00    +0.000 A 
ATOM     12  N   UNL     1       8.588   9.590  17.426  0.00  0.00    +0.000 N 
ATOM     13  C   UNL     1       7.615   7.519  16.779  0.00  0.00    +0.000 A 
ATOM     14  H   UNL     1       9.545   9.533  17.082  0.00  0.00    +0.000 HD
BRANCH  12  15
ATOM     15  C   UNL     1       8.444  10.588  18.500  0.00  0.00    +0.000 C 
ATOM     16  C   UNL     1       8.283  11.983  17.861  0.00  0.00    +0.000 C 
BRANCH  15  17
ATOM     17  C   UNL     1       9.736  10.545  19.390  0.00  0.00    +0.000 C 
ATOM     18  C   UNL     1      10.847  11.507  18.917  0.00  0.00    +0.000 C 
ATOM     19  C   UNL     1      10.491  12.975  19.143  0.00  0.00    +0.000 C 
ATOM     20  C   UNL     1      10.130  13.255  20.599  0.00  0.00    +0.000 C 
ATOM     21  C   UNL     1       9.080  12.286  21.136  0.00  0.00    +0.000 C 
ATOM     22  C   UNL     1       9.481  10.835  20.885  0.00  0.00    +0.000 C 
ENDBRANCH  15  17
ENDBRANCH  12  15
ENDBRANCH   4   7
BRANCH   3  23
ATOM     23  C   UNL     1       4.229   4.792  16.985  0.00  0.00    +0.000 A 
ATOM     24  C   UNL     1       3.702   6.008  17.436  0.00  0.00    +0.000 A 
ATOM     25  C   UNL     1       2.681   6.030  18.391  0.00  0.00    +0.000 A 
ATOM     26  C   UNL     1       2.169   4.834  18.898  0.00  0.00    +0.000 A 
ATOM     27  C   UNL     1       2.687   3.605  18.469  0.00  0.00    +0.000 A 
ATOM     28  C   UNL     1       3.732   3.600  17.530  0.00  0.00    +0.000 A 
BRANCH  27  29
ATOM     29  C   UNL     1       2.135   2.294  18.963  0.00  0.00    +0.000 C 
ATOM     30  F   UNL     1       2.900   1.217  18.631  0.00  0.00    +0.000 F 
ATOM     31  F   UNL     1       2.018   2.262  20.321  0.00  0.00    +0.000 F 
ATOM     32  F   UNL     1       0.890   2.032  18.477  0.00  0.00    +0.000 F 
ENDBRANCH  27  29
ENDBRANCH   3  23
BRANCH   1  34
ATOM     33  C   UNL     1       5.087   3.177  11.950  0.00  0.00    +0.000 C 
ATOM     34  S   UNL     1       6.694   3.713  12.580  0.00  0.00    +0.000 S 
ENDBRANCH   1  34
TORSDOF 6
ENDMDL
