MODEL 1
REMARK VINA RESULT:      -8.9      0.000      0.000
REMARK  Name = 
REMARK  8 active torsions:
REMARK  status: ('A' for Active; 'I' for Inactive)
REMARK    1  A    between atoms: C_1  and  C_2
REMARK    2  A    between atoms: C_2  and  C_3
REMARK    3  A    between atoms: C_2  and  N_4
REMARK    4  A    between atoms: C_5  and  C_7
REMARK    5  A    between atoms: C_9  and  C_10
REMARK    6  A    between atoms: N_16  and  C_17
REMARK    7  A    between atoms: C_20  and  S_21
REMARK    8  A    between atoms: S_21  and  N_22
REMARK                            x       y       z     vdW  Elec       q    Type
REMARK                         _______ _______ _______ _____ _____    ______ ____
ROOT
ATOM      1  C   UNL     1       5.229   4.832  16.541  0.00  0.00    +0.000 A 
ATOM      2  N   UNL     1       4.752   3.868  17.409  0.00  0.00    +0.000 NA
ATOM      3  C   UNL     1       3.833   4.483  18.134  0.00  0.00    +0.000 A 
ATOM      4  N   UNL     1       3.871   5.841  17.804  0.00  0.00    +0.000 N 
ATOM      5  N   UNL     1       4.661   6.043  16.713  0.00  0.00    +0.000 NA
ENDROOT
BRANCH   3   6
ATOM      6  C   UNL     1       2.903   3.822  19.073  0.00  0.00    +0.000 A 
ATOM      7  C   UNL     1       3.361   3.364  20.315  0.00  0.00    +0.000 A 
ATOM      8  C   UNL     1       2.466   2.851  21.265  0.00  0.00    +0.000 A 
ATOM      9  C   UNL     1       1.100   2.802  20.992  0.00  0.00    +0.000 A 
ATOM     10  C   UNL     1       0.637   3.188  19.741  0.00  0.00    +0.000 A 
ATOM     11  C   UNL     1       1.540   3.638  18.775  0.00  0.00    +0.000 A 
ENDBRANCH   3   6
BRANCH   4  12
ATOM     12  C   UNL     1       3.167   6.929  18.387  0.00  0.00    +0.000 A 
ATOM     13  C   UNL     1       2.716   6.870  19.715  0.00  0.00    +0.000 A 
ATOM     14  C   UNL     1       1.811   7.820  20.189  0.00  0.00    +0.000 A 
ATOM     15  C   UNL     1       1.415   8.865  19.352  0.00  0.00    +0.000 A 
ATOM     16  C   UNL     1       1.927   8.981  18.057  0.00  0.00    +0.000 A 
ATOM     17  C   UNL     1       2.824   8.022  17.579  0.00  0.00    +0.000 A 
BRANCH  15  18
ATOM     18  S   UNL     1       0.221  10.031  19.937  0.00  0.00    +0.000 S 
ATOM     19  O   UNL     1       0.894  11.222  20.394  0.00  0.00    +0.000 OA
ATOM     20  O   UNL     1      -0.887  10.074  19.011  0.00  0.00    +0.000 OA
BRANCH  18  21
ATOM     21  N   UNL     1      -0.342   9.250  21.309  0.00  0.00    +0.000 NA
ATOM     22  H   UNL     1      -1.360   9.304  21.347  0.00  0.00    +0.000 HD
ATOM     23  H   UNL     1       0.034   8.305  21.358  0.00  0.00    +0.000 HD
ENDBRANCH  18  21
ENDBRANCH  15  18
ENDBRANCH   4  12
BRANCH   1  25
ATOM     24  N   UNL     1       5.769   4.258  14.245  0.00  0.00    +0.000 N 
ATOM     25  C   UNL     1       6.267   4.555  15.511  0.00  0.00    +0.000 C 
ATOM     26  O   UNL     1       7.468   4.572  15.754  0.00  0.00    +0.000 OA
ATOM     27  H   UNL     1       4.760   4.174  14.167  0.00  0.00    +0.000 HD
BRANCH  24  29
ATOM     28  C   UNL     1       5.842   3.116  12.065  0.00  0.00    +0.000 C 
ATOM     29  C   UNL     1       6.635   3.856  13.140  0.00  0.00    +0.000 C 
ATOM     30  C   UNL     1       7.355   5.058  12.530  0.00  0.00    +0.000 C 
ENDBRANCH  24  29
ENDBRANCH   1  25
TORSDOF 6
ENDMDL
MODEL 2
REMARK VINA RESULT:      -8.8      0.554      1.086
REMARK  Name = 
REMARK  8 active torsions:
REMARK  status: ('A' for Active; 'I' for Inactive)
REMARK    1  A    between atoms: C_1  and  C_2
REMARK    2  A    between atoms: C_2  and  C_3
REMARK    3  A    between atoms: C_2  and  N_4
REMARK    4  A    between atoms: C_5  and  C_7
REMARK    5  A    between atoms: C_9  and  C_10
REMARK    6  A    between atoms: N_16  and  C_17
REMARK    7  A    between atoms: C_20  and  S_21
REMARK    8  A    between atoms: S_21  and  N_22
REMARK                            x       y       z     vdW  Elec       q    Type
REMARK                         _______ _______ _______ _____ _____    ______ ____
ROOT
ATOM      1  C   UNL     1       5.163   4.938  16.744  0.00  0.00    +0.000 A 
ATOM      2  N   UNL     1       4.778   3.988  17.670  0.00  0.00    +0.000 NA
ATOM      3  C   UNL     1       3.755   4.528  18.310  0.00  0.00    +0.000 A 
ATOM      4  N   UNL     1       3.630   5.849  17.873  0.00  0.00    +0.000 N 
ATOM      5  N   UNL     1       4.435   6.072  16.798  0.00  0.00    +0.000 NA
ENDROOT
BRANCH   3   6
ATOM      6  C   UNL     1       2.878   3.820  19.267  0.00  0.00    +0.000 A 
ATOM      7  C   UNL     1       3.373   3.419  20.514  0.00  0.00    +0.000 A 
ATOM      8  C   UNL     1       2.521   2.862  21.479  0.00  0.00    +0.000 A 
ATOM      9  C   UNL     1       1.160   2.713  21.215  0.00  0.00    +0.000 A 
ATOM     10  C   UNL     1       0.666   3.043  19.960  0.00  0.00    +0.000 A 
ATOM     11  C   UNL     1       1.530   3.536  18.981  0.00  0.00    +0.000 A 
ENDBRANCH   3   6
BRANCH   4  12
ATOM     12  C   UNL     1       2.765   6.875  18.342  0.00  0.00    +0.000 A 
ATOM     13  C   UNL     1       2.367   7.927  17.502  0.00  0.00    +0.000 A 
ATOM     14  C   UNL     1       1.741   9.051  18.039  0.00  0.00    +0.000 A 
ATOM     15  C   UNL     1       1.455   9.089  19.405  0.00  0.00    +0.000 A 
ATOM     16  C   UNL     1       1.768   8.009  20.234  0.00  0.00    +0.000 A 
ATOM     17  C   UNL     1       2.407   6.887  19.698  0.00  0.00    +0.000 A 
BRANCH  15  18
ATOM     18  S   UNL     1       0.717  10.542  20.090  0.00  0.00    +0.000 S 
ATOM     19  O   UNL     1       1.444  11.706  19.649  0.00  0.00    +0.000 OA
ATOM     20  O   UNL     1      -0.719  10.437  19.981  0.00  0.00    +0.000 OA
BRANCH  18  21
ATOM     21  N   UNL     1       1.080  10.347  21.715  0.00  0.00    +0.000 NA
ATOM     22  H   UNL     1       0.320  10.714  22.289  0.00  0.00    +0.000 HD
ATOM     23  H   UNL     1       1.325   9.378  21.910  0.00  0.00    +0.000 HD
ENDBRANCH  18  21
ENDBRANCH  15  18
ENDBRANCH   4  12
BRANCH   1  25
ATOM     24  N   UNL     1       5.869   4.398  14.484  0.00  0.00    +0.000 N 
ATOM     25  C   UNL     1       6.274   4.725  15.776  0.00  0.00    +0.000 C 
ATOM     26  O   UNL     1       7.456   4.818  16.087  0.00  0.00    +0.000 OA
ATOM     27  H   UNL     1       4.873   4.251  14.349  0.00  0.00    +0.000 HD
BRANCH  24  29
ATOM     28  C   UNL     1       6.120   3.340  12.275  0.00  0.00    +0.000 C 
ATOM     29  C   UNL     1       6.820   4.049  13.433  0.00  0.00    +0.000 C 
ATOM     30  C   UNL     1       7.563   5.283  12.922  0.00  0.00    +0.000 C 
ENDBRANCH  24  29
ENDBRANCH   1  25
TORSDOF 6
ENDMDL
MODEL 3
REMARK VINA RESULT:      -8.8      0.783      1.341
REMARK  Name = 
REMARK  8 active torsions:
REMARK  status: ('A' for Active; 'I' for Inactive)
REMARK    1  A    between atoms: C_1  and  C_2
REMARK    2  A    between atoms: C_2  and  C_3
REMARK    3  A    between atoms: C_2  and  N_4
REMARK    4  A    between atoms: C_5  and  C_7
REMARK    5  A    between atoms: C_9  and  C_10
REMARK    6  A    between atoms: N_16  and  C_17
REMARK    7  A    between atoms: C_20  and  S_21
REMARK    8  A    between atoms: S_21  and  N_22
REMARK                            x       y       z     vdW  Elec       q    Type
REMARK                         _______ _______ _______ _____ _____    ______ ____
ROOT
ATOM      1  C   UNL     1       5.206   4.896  16.625  0.00  0.00    +0.000 A 
ATOM      2  N   UNL     1       4.718   3.998  17.554  0.00  0.00    +0.000 NA
ATOM      3  C   UNL     1       3.795   4.666  18.225  0.00  0.00    +0.000 A 
ATOM      4  N   UNL     1       3.841   5.997  17.801  0.00  0.00    +0.000 N 
ATOM      5  N   UNL     1       4.642   6.119  16.707  0.00  0.00    +0.000 NA
ENDROOT
BRANCH   3   6
ATOM      6  C   UNL     1       2.853   4.075  19.198  0.00  0.00    +0.000 A 
ATOM      7  C   UNL     1       1.555   3.726  18.802  0.00  0.00    +0.000 A 
ATOM      8  C   UNL     1       0.695   3.049  19.678  0.00  0.00    +0.000 A 
ATOM      9  C   UNL     1       1.125   2.699  20.957  0.00  0.00    +0.000 A 
ATOM     10  C   UNL     1       2.383   3.095  21.389  0.00  0.00    +0.000 A 
ATOM     11  C   UNL     1       3.212   3.826  20.535  0.00  0.00    +0.000 A 
ENDBRANCH   3   6
BRANCH   4  12
ATOM     12  C   UNL     1       3.137   7.126  18.301  0.00  0.00    +0.000 A 
ATOM     13  C   UNL     1       2.598   7.127  19.597  0.00  0.00    +0.000 A 
ATOM     14  C   UNL     1       1.697   8.120  19.977  0.00  0.00    +0.000 A 
ATOM     15  C   UNL     1       1.390   9.147  19.083  0.00  0.00    +0.000 A 
ATOM     16  C   UNL     1       1.989   9.202  17.821  0.00  0.00    +0.000 A 
ATOM     17  C   UNL     1       2.884   8.199  17.435  0.00  0.00    +0.000 A 
BRANCH  15  18
ATOM     18  S   UNL     1       0.200  10.369  19.548  0.00  0.00    +0.000 S 
ATOM     19  O   UNL     1      -0.841   9.753  20.333  0.00  0.00    +0.000 OA
ATOM     20  O   UNL     1       0.893  11.561  19.977  0.00  0.00    +0.000 OA
BRANCH  18  21
ATOM     21  N   UNL     1      -0.482  10.731  18.061  0.00  0.00    +0.000 NA
ATOM     22  H   UNL     1       0.250  10.858  17.362  0.00  0.00    +0.000 HD
ATOM     23  H   UNL     1      -1.185  10.036  17.814  0.00  0.00    +0.000 HD
ENDBRANCH  18  21
ENDBRANCH  15  18
ENDBRANCH   4  12
BRANCH   1  25
ATOM     24  N   UNL     1       5.786   4.376  14.325  0.00  0.00    +0.000 N 
ATOM     25  C   UNL     1       6.253   4.544  15.627  0.00  0.00    +0.000 C 
ATOM     26  O   UNL     1       7.434   4.400  15.922  0.00  0.00    +0.000 OA
ATOM     27  H   UNL     1       4.779   4.422  14.200  0.00  0.00    +0.000 HD
BRANCH  24  29
ATOM     28  C   UNL     1       5.840   3.222  12.151  0.00  0.00    +0.000 C 
ATOM     29  C   UNL     1       6.650   3.925  13.239  0.00  0.00    +0.000 C 
ATOM     30  C   UNL     1       7.442   5.086  12.638  0.00  0.00    +0.000 C 
ENDBRANCH  24  29
ENDBRANCH   1  25
TORSDOF 6
ENDMDL
MODEL 4
REMARK VINA RESULT:      -8.5      0.465      1.016
REMARK  Name = 
REMARK  8 active torsions:
REMARK  status: ('A' for Active; 'I' for Inactive)
REMARK    1  A    between atoms: C_1  and  C_2
REMARK    2  A    between atoms: C_2  and  C_3
REMARK    3  A    between atoms: C_2  and  N_4
REMARK    4  A    between atoms: C_5  and  C_7
REMARK    5  A    between atoms: C_9  and  C_10
REMARK    6  A    between atoms: N_16  and  C_17
REMARK    7  A    between atoms: C_20  and  S_21
REMARK    8  A    between atoms: S_21  and  N_22
REMARK                            x       y       z     vdW  Elec       q    Type
REMARK                         _______ _______ _______ _____ _____    ______ ____
ROOT
ATOM      1  C   UNL     1       5.105   5.294  16.528  0.00  0.00    +0.000 A 
ATOM      2  N   UNL     1       4.637   4.321  17.389  0.00  0.00    +0.000 NA
ATOM      3  C   UNL     1       3.693   4.916  18.099  0.00  0.00    +0.000 A 
ATOM      4  N   UNL     1       3.706   6.274  17.768  0.00  0.00    +0.000 N 
ATOM      5  N   UNL     1       4.508   6.492  16.690  0.00  0.00    +0.000 NA
ENDROOT
BRANCH   3   6
ATOM      6  C   UNL     1       2.763   4.234  19.023  0.00  0.00    +0.000 A 
ATOM      7  C   UNL     1       1.544   3.729  18.552  0.00  0.00    +0.000 A 
ATOM      8  C   UNL     1       0.711   2.971  19.387  0.00  0.00    +0.000 A 
ATOM      9  C   UNL     1       1.092   2.693  20.699  0.00  0.00    +0.000 A 
ATOM     10  C   UNL     1       2.264   3.242  21.202  0.00  0.00    +0.000 A 
ATOM     11  C   UNL     1       3.058   4.051  20.386  0.00  0.00    +0.000 A 
ENDBRANCH   3   6
BRANCH   4  12
ATOM     12  C   UNL     1       2.969   7.346  18.339  0.00  0.00    +0.000 A 
ATOM     13  C   UNL     1       2.494   7.276  19.658  0.00  0.00    +0.000 A 
ATOM     14  C   UNL     1       1.561   8.207  20.116  0.00  0.00    +0.000 A 
ATOM     15  C   UNL     1       1.160   9.244  19.273  0.00  0.00    +0.000 A 
ATOM     16  C   UNL     1       1.693   9.372  17.988  0.00  0.00    +0.000 A 
ATOM     17  C   UNL     1       2.619   8.433  17.525  0.00  0.00    +0.000 A 
BRANCH  15  18
ATOM     18  S   UNL     1      -0.069  10.385  19.836  0.00  0.00    +0.000 S 
ATOM     19  O   UNL     1       0.532  11.681  20.034  0.00  0.00    +0.000 OA
ATOM     20  O   UNL     1      -1.273  10.199  19.062  0.00  0.00    +0.000 OA
BRANCH  18  21
ATOM     21  N   UNL     1      -0.392   9.776  21.363  0.00  0.00    +0.000 NA
ATOM     22  H   UNL     1      -0.918  10.461  21.908  0.00  0.00    +0.000 HD
ATOM     23  H   UNL     1      -0.835   8.862  21.295  0.00  0.00    +0.000 HD
ENDBRANCH  18  21
ENDBRANCH  15  18
ENDBRANCH   4  12
BRANCH   1  25
ATOM     24  N   UNL     1       5.726   4.404  14.356  0.00  0.00    +0.000 N 
ATOM     25  C   UNL     1       6.166   5.039  15.515  0.00  0.00    +0.000 C 
ATOM     26  O   UNL     1       7.339   5.351  15.685  0.00  0.00    +0.000 OA
ATOM     27  H   UNL     1       4.757   4.100  14.350  0.00  0.00    +0.000 HD
BRANCH  24  29
ATOM     28  C   UNL     1       5.905   3.208  12.211  0.00  0.00    +0.000 C 
ATOM     29  C   UNL     1       6.644   3.979  13.303  0.00  0.00    +0.000 C 
ATOM     30  C   UNL     1       7.386   5.170  12.697  0.00  0.00    +0.000 C 
ENDBRANCH  24  29
ENDBRANCH   1  25
TORSDOF 6
ENDMDL
MODEL 5
REMARK VINA RESULT:      -8.3      3.319      5.183
REMARK  Name = 
REMARK  8 active torsions:
REMARK  status: ('A' for Active; 'I' for Inactive)
REMARK    1  A    between atoms: C_1  and  C_2
REMARK    2  A    between atoms: C_2  and  C_3
REMARK    3  A    between atoms: C_2  and  N_4
REMARK    4  A    between atoms: C_5  and  C_7
REMARK    5  A    between atoms: C_9  and  C_10
REMARK    6  A    between atoms: N_16  and  C_17
REMARK    7  A    between atoms: C_20  and  S_21
REMARK    8  A    between atoms: S_21  and  N_22
REMARK                            x       y       z     vdW  Elec       q    Type
REMARK                         _______ _______ _______ _____ _____    ______ ____
ROOT
ATOM      1  C   UNL     1       6.296   4.206  14.007  0.00  0.00    +0.000 A 
ATOM      2  N   UNL     1       7.057   5.172  14.636  0.00  0.00    +0.000 NA
ATOM      3  C   UNL     1       6.512   5.311  15.833  0.00  0.00    +0.000 A 
ATOM      4  N   UNL     1       5.343   4.545  15.860  0.00  0.00    +0.000 N 
ATOM      5  N   UNL     1       5.271   3.751  14.756  0.00  0.00    +0.000 NA
ENDROOT
BRANCH   3   6
ATOM      6  C   UNL     1       7.089   6.094  16.947  0.00  0.00    +0.000 A 
ATOM      7  C   UNL     1       7.495   5.452  18.124  0.00  0.00    +0.000 A 
ATOM      8  C   UNL     1       8.158   6.161  19.135  0.00  0.00    +0.000 A 
ATOM      9  C   UNL     1       8.439   7.517  18.978  0.00  0.00    +0.000 A 
ATOM     10  C   UNL     1       7.984   8.183  17.847  0.00  0.00    +0.000 A 
ATOM     11  C   UNL     1       7.267   7.487  16.872  0.00  0.00    +0.000 A 
ENDBRANCH   3   6
BRANCH   4  12
ATOM     12  C   UNL     1       4.348   4.457  16.870  0.00  0.00    +0.000 A 
ATOM     13  C   UNL     1       3.773   5.612  17.423  0.00  0.00    +0.000 A 
ATOM     14  C   UNL     1       3.001   5.523  18.581  0.00  0.00    +0.000 A 
ATOM     15  C   UNL     1       2.751   4.270  19.142  0.00  0.00    +0.000 A 
ATOM     16  C   UNL     1       3.246   3.106  18.549  0.00  0.00    +0.000 A 
ATOM     17  C   UNL     1       4.030   3.196  17.396  0.00  0.00    +0.000 A 
BRANCH  15  18
ATOM     18  S   UNL     1       1.823   4.169  20.644  0.00  0.00    +0.000 S 
ATOM     19  O   UNL     1       0.435   3.923  20.338  0.00  0.00    +0.000 OA
ATOM     20  O   UNL     1       2.559   3.373  21.599  0.00  0.00    +0.000 OA
BRANCH  18  21
ATOM     21  N   UNL     1       1.914   5.753  21.183  0.00  0.00    +0.000 NA
ATOM     22  H   UNL     1       0.995   6.071  21.491  0.00  0.00    +0.000 HD
ATOM     23  H   UNL     1       2.650   5.849  21.881  0.00  0.00    +0.000 HD
ENDBRANCH  18  21
ENDBRANCH  15  18
ENDBRANCH   4  12
BRANCH   1  25
ATOM     24  N   UNL     1       6.076   2.447  12.347  0.00  0.00    +0.000 N 
ATOM     25  C   UNL     1       6.586   3.711  12.633  0.00  0.00    +0.000 C 
ATOM     26  O   UNL     1       7.233   4.356  11.815  0.00  0.00    +0.000 OA
ATOM     27  H   UNL     1       5.638   1.954  13.119  0.00  0.00    +0.000 HD
BRANCH  24  29
ATOM     28  C   UNL     1       7.824   1.900  10.703  0.00  0.00    +0.000 C 
ATOM     29  C   UNL     1       6.354   1.760  11.089  0.00  0.00    +0.000 C 
ATOM     30  C   UNL     1       5.967   0.283  11.164  0.00  0.00    +0.000 C 
ENDBRANCH  24  29
ENDBRANCH   1  25
TORSDOF 6
ENDMDL
MODEL 6
REMARK VINA RESULT:      -7.9      3.119      7.513
REMARK  Name = 
REMARK  8 active torsions:
REMARK  status: ('A' for Active; 'I' for Inactive)
REMARK    1  A    between atoms: C_1  and  C_2
REMARK    2  A    between atoms: C_2  and  C_3
REMARK    3  A    between atoms: C_2  and  N_4
REMARK    4  A    between atoms: C_5  and  C_7
REMARK    5  A    between atoms: C_9  and  C_10
REMARK    6  A    between atoms: N_16  and  C_17
REMARK    7  A    between atoms: C_20  and  S_21
REMARK    8  A    between atoms: S_21  and  N_22
REMARK                            x       y       z     vdW  Elec       q    Type
REMARK                         _______ _______ _______ _____ _____    ______ ____
ROOT
ATOM      1  C   UNL     1       1.155   8.110  20.684  0.00  0.00    +0.000 A 
ATOM      2  N   UNL     1       0.676   6.823  20.828  0.00  0.00    +0.000 NA
ATOM      3  C   UNL     1       1.600   6.050  20.280  0.00  0.00    +0.000 A 
ATOM      4  N   UNL     1       2.548   6.883  19.679  0.00  0.00    +0.000 N 
ATOM      5  N   UNL     1       2.337   8.179  20.038  0.00  0.00    +0.000 NA
ENDROOT
BRANCH   3   6
ATOM      6  C   UNL     1       1.633   4.575  20.358  0.00  0.00    +0.000 A 
ATOM      7  C   UNL     1       1.195   3.801  19.275  0.00  0.00    +0.000 A 
ATOM      8  C   UNL     1       1.340   2.407  19.285  0.00  0.00    +0.000 A 
ATOM      9  C   UNL     1       1.937   1.768  20.371  0.00  0.00    +0.000 A 
ATOM     10  C   UNL     1       2.315   2.512  21.481  0.00  0.00    +0.000 A 
ATOM     11  C   UNL     1       2.110   3.893  21.493  0.00  0.00    +0.000 A 
ENDBRANCH   3   6
BRANCH   4  12
ATOM     12  C   UNL     1       3.662   6.539  18.866  0.00  0.00    +0.000 A 
ATOM     13  C   UNL     1       3.755   6.986  17.539  0.00  0.00    +0.000 A 
ATOM     14  C   UNL     1       4.705   6.435  16.681  0.00  0.00    +0.000 A 
ATOM     15  C   UNL     1       5.604   5.487  17.172  0.00  0.00    +0.000 A 
ATOM     16  C   UNL     1       5.575   5.099  18.515  0.00  0.00    +0.000 A 
ATOM     17  C   UNL     1       4.614   5.643  19.372  0.00  0.00    +0.000 A 
BRANCH  15  18
ATOM     18  S   UNL     1       6.767   4.746  16.065  0.00  0.00    +0.000 S 
ATOM     19  O   UNL     1       6.174   3.583  15.451  0.00  0.00    +0.000 OA
ATOM     20  O   UNL     1       7.412   5.785  15.297  0.00  0.00    +0.000 OA
BRANCH  18  21
ATOM     21  N   UNL     1       7.915   4.176  17.144  0.00  0.00    +0.000 NA
ATOM     22  H   UNL     1       8.813   4.628  16.969  0.00  0.00    +0.000 HD
ATOM     23  H   UNL     1       7.578   4.265  18.102  0.00  0.00    +0.000 HD
ENDBRANCH  18  21
ENDBRANCH  15  18
ENDBRANCH   4  12
BRANCH   1  25
ATOM     24  N   UNL     1       0.810  10.513  20.612  0.00  0.00    +0.000 N 
ATOM     25  C   UNL     1       0.435   9.307  21.199  0.00  0.00    +0.000 C 
ATOM     26  O   UNL     1      -0.415   9.245  22.080  0.00  0.00    +0.000 OA
ATOM     27  H   UNL     1       1.589  10.473  19.962  0.00  0.00    +0.000 HD
BRANCH  24  29
ATOM     28  C   UNL     1       1.275  12.925  20.771  0.00  0.00    +0.000 C 
ATOM     29  C   UNL     1       0.289  11.798  21.068  0.00  0.00    +0.000 C 
ATOM     30  C   UNL     1      -1.068  12.105  20.434  0.00  0.00    +0.000 C 
ENDBRANCH  24  29
ENDBRANCH   1  25
TORSDOF 6
ENDMDL
MODEL 7
REMARK VINA RESULT:      -7.9      3.413      5.177
REMARK  Name = 
REMARK  8 active torsions:
REMARK  status: ('A' for Active; 'I' for Inactive)
REMARK    1  A    between atoms: C_1  and  C_2
REMARK    2  A    between atoms: C_2  and  C_3
REMARK    3  A    between atoms: C_2  and  N_4
REMARK    4  A    between atoms: C_5  and  C_7
REMARK    5  A    between atoms: C_9  and  C_10
REMARK    6  A    between atoms: N_16  and  C_17
REMARK    7  A    between atoms: C_20  and  S_21
REMARK    8  A    between atoms: S_21  and  N_22
REMARK                            x       y       z     vdW  Elec       q    Type
REMARK                         _______ _______ _______ _____ _____    ______ ____
ROOT
ATOM      1  C   UNL     1       6.072   4.553  14.442  0.00  0.00    +0.000 A 
ATOM      2  N   UNL     1       6.835   5.591  14.940  0.00  0.00    +0.000 NA
ATOM      3  C   UNL     1       6.470   5.708  16.205  0.00  0.00    +0.000 A 
ATOM      4  N   UNL     1       5.389   4.849  16.417  0.00  0.00    +0.000 N 
ATOM      5  N   UNL     1       5.217   4.029  15.343  0.00  0.00    +0.000 NA
ENDROOT
BRANCH   3   6
ATOM      6  C   UNL     1       7.142   6.558  17.212  0.00  0.00    +0.000 A 
ATOM      7  C   UNL     1       7.671   5.987  18.376  0.00  0.00    +0.000 A 
ATOM      8  C   UNL     1       8.420   6.758  19.276  0.00  0.00    +0.000 A 
ATOM      9  C   UNL     1       8.663   8.106  19.017  0.00  0.00    +0.000 A 
ATOM     10  C   UNL     1       8.090   8.703  17.902  0.00  0.00    +0.000 A 
ATOM     11  C   UNL     1       7.291   7.946  17.043  0.00  0.00    +0.000 A 
ENDBRANCH   3   6
BRANCH   4  12
ATOM     12  C   UNL     1       4.571   4.698  17.569  0.00  0.00    +0.000 A 
ATOM     13  C   UNL     1       4.717   3.591  18.421  0.00  0.00    +0.000 A 
ATOM     14  C   UNL     1       3.749   3.320  19.387  0.00  0.00    +0.000 A 
ATOM     15  C   UNL     1       2.673   4.196  19.543  0.00  0.00    +0.000 A 
ATOM     16  C   UNL     1       2.566   5.348  18.758  0.00  0.00    +0.000 A 
ATOM     17  C   UNL     1       3.530   5.612  17.782  0.00  0.00    +0.000 A 
BRANCH  15  18
ATOM     18  S   UNL     1       1.417   3.815  20.727  0.00  0.00    +0.000 S 
ATOM     19  O   UNL     1       2.020   3.227  21.898  0.00  0.00    +0.000 OA
ATOM     20  O   UNL     1       0.492   4.921  20.804  0.00  0.00    +0.000 OA
BRANCH  18  21
ATOM     21  N   UNL     1       0.605   2.577  19.943  0.00  0.00    +0.000 NA
ATOM     22  H   UNL     1       1.024   2.409  19.028  0.00  0.00    +0.000 HD
ATOM     23  H   UNL     1       0.550   1.753  20.540  0.00  0.00    +0.000 HD
ENDBRANCH  18  21
ENDBRANCH  15  18
ENDBRANCH   4  12
BRANCH   1  25
ATOM     24  N   UNL     1       5.024   3.501  12.520  0.00  0.00    +0.000 N 
ATOM     25  C   UNL     1       6.189   4.057  13.043  0.00  0.00    +0.000 C 
ATOM     26  O   UNL     1       7.231   4.120  12.399  0.00  0.00    +0.000 OA
ATOM     27  H   UNL     1       4.243   3.408  13.163  0.00  0.00    +0.000 HD
BRANCH  24  29
ATOM     28  C   UNL     1       5.566   1.457  11.259  0.00  0.00    +0.000 C 
ATOM     29  C   UNL     1       4.983   2.868  11.205  0.00  0.00    +0.000 C 
ATOM     30  C   UNL     1       3.560   2.830  10.649  0.00  0.00    +0.000 C 
ENDBRANCH  24  29
ENDBRANCH   1  25
TORSDOF 6
ENDMDL
MODEL 8
REMARK VINA RESULT:      -7.8      1.602      2.374
REMARK  Name = 
REMARK  8 active torsions:
REMARK  status: ('A' for Active; 'I' for Inactive)
REMARK    1  A    between atoms: C_1  and  C_2
REMARK    2  A    between atoms: C_2  and  C_3
REMARK    3  A    between atoms: C_2  and  N_4
REMARK    4  A    between atoms: C_5  and  C_7
REMARK    5  A    between atoms: C_9  and  C_10
REMARK    6  A    between atoms: N_16  and  C_17
REMARK    7  A    between atoms: C_20  and  S_21
REMARK    8  A    between atoms: S_21  and  N_22
REMARK                            x       y       z     vdW  Elec       q    Type
REMARK                         _______ _______ _______ _____ _____    ______ ____
ROOT
ATOM      1  C   UNL     1       4.399   6.240  17.242  0.00  0.00    +0.000 A 
ATOM      2  N   UNL     1       4.141   5.146  18.044  0.00  0.00    +0.000 NA
ATOM      3  C   UNL     1       3.139   5.519  18.822  0.00  0.00    +0.000 A 
ATOM      4  N   UNL     1       2.905   6.878  18.590  0.00  0.00    +0.000 N 
ATOM      5  N   UNL     1       3.612   7.303  17.507  0.00  0.00    +0.000 NA
ENDROOT
BRANCH   3   6
ATOM      6  C   UNL     1       2.379   4.627  19.722  0.00  0.00    +0.000 A 
ATOM      7  C   UNL     1       1.242   3.956  19.254  0.00  0.00    +0.000 A 
ATOM      8  C   UNL     1       0.586   3.010  20.056  0.00  0.00    +0.000 A 
ATOM      9  C   UNL     1       1.068   2.711  21.329  0.00  0.00    +0.000 A 
ATOM     10  C   UNL     1       2.153   3.415  21.834  0.00  0.00    +0.000 A 
ATOM     11  C   UNL     1       2.763   4.402  21.057  0.00  0.00    +0.000 A 
ENDBRANCH   3   6
BRANCH   4  12
ATOM     12  C   UNL     1       2.020   7.766  19.259  0.00  0.00    +0.000 A 
ATOM     13  C   UNL     1       1.481   8.883  18.601  0.00  0.00    +0.000 A 
ATOM     14  C   UNL     1       0.833   9.878  19.331  0.00  0.00    +0.000 A 
ATOM     15  C   UNL     1       0.666   9.719  20.708  0.00  0.00    +0.000 A 
ATOM     16  C   UNL     1       1.122   8.569  21.357  0.00  0.00    +0.000 A 
ATOM     17  C   UNL     1       1.782   7.577  20.628  0.00  0.00    +0.000 A 
BRANCH  15  18
ATOM     18  S   UNL     1      -0.102  11.013  21.638  0.00  0.00    +0.000 S 
ATOM     19  O   UNL     1      -1.291  11.457  20.954  0.00  0.00    +0.000 OA
ATOM     20  O   UNL     1      -0.100  10.651  23.036  0.00  0.00    +0.000 OA
BRANCH  18  21
ATOM     21  N   UNL     1       1.027  12.240  21.468  0.00  0.00    +0.000 NA
ATOM     22  H   UNL     1       1.408  12.492  22.380  0.00  0.00    +0.000 HD
ATOM     23  H   UNL     1       1.728  11.985  20.774  0.00  0.00    +0.000 HD
ENDBRANCH  18  21
ENDBRANCH  15  18
ENDBRANCH   4  12
BRANCH   1  25
ATOM     24  N   UNL     1       5.318   5.228  15.235  0.00  0.00    +0.000 N 
ATOM     25  C   UNL     1       5.444   6.242  16.182  0.00  0.00    +0.000 C 
ATOM     26  O   UNL     1       6.355   7.061  16.145  0.00  0.00    +0.000 OA
ATOM     27  H   UNL     1       4.588   4.543  15.405  0.00  0.00    +0.000 HD
BRANCH  24  29
ATOM     28  C   UNL     1       7.703   4.818  14.785  0.00  0.00    +0.000 C 
ATOM     29  C   UNL     1       6.311   5.010  14.188  0.00  0.00    +0.000 C 
ATOM     30  C   UNL     1       5.944   3.813  13.312  0.00  0.00    +0.000 C 
ENDBRANCH  24  29
ENDBRANCH   1  25
TORSDOF 6
ENDMDL
MODEL 9
REMARK VINA RESULT:      -7.8      3.688      5.444
REMARK  Name = 
REMARK  8 active torsions:
REMARK  status: ('A' for Active; 'I' for Inactive)
REMARK    1  A    between atoms: C_1  and  C_2
REMARK    2  A    between atoms: C_2  and  C_3
REMARK    3  A    between atoms: C_2  and  N_4
REMARK    4  A    between atoms: C_5  and  C_7
REMARK    5  A    between atoms: C_9  and  C_10
REMARK    6  A    between atoms: N_16  and  C_17
REMARK    7  A    between atoms: C_20  and  S_21
REMARK    8  A    between atoms: S_21  and  N_22
REMARK                            x       y       z     vdW  Elec       q    Type
REMARK                         _______ _______ _______ _____ _____    ______ ____
ROOT
ATOM      1  C   UNL     1       6.306   4.095  14.053  0.00  0.00    +0.000 A 
ATOM      2  N   UNL     1       6.993   5.134  14.650  0.00  0.00    +0.000 NA
ATOM      3  C   UNL     1       6.513   5.202  15.880  0.00  0.00    +0.000 A 
ATOM      4  N   UNL     1       5.440   4.311  15.966  0.00  0.00    +0.000 N 
ATOM      5  N   UNL     1       5.386   3.523  14.857  0.00  0.00    +0.000 NA
ENDROOT
BRANCH   3   6
ATOM      6  C   UNL     1       7.068   6.034  16.968  0.00  0.00    +0.000 A 
ATOM      7  C   UNL     1       7.565   5.433  18.132  0.00  0.00    +0.000 A 
ATOM      8  C   UNL     1       8.209   6.197  19.115  0.00  0.00    +0.000 A 
ATOM      9  C   UNL     1       8.378   7.570  18.942  0.00  0.00    +0.000 A 
ATOM     10  C   UNL     1       7.833   8.192  17.826  0.00  0.00    +0.000 A 
ATOM     11  C   UNL     1       7.136   7.436  16.882  0.00  0.00    +0.000 A 
ENDBRANCH   3   6
BRANCH   4  12
ATOM     12  C   UNL     1       4.525   4.103  17.034  0.00  0.00    +0.000 A 
ATOM     13  C   UNL     1       4.780   3.147  18.030  0.00  0.00    +0.000 A 
ATOM     14  C   UNL     1       3.769   2.771  18.914  0.00  0.00    +0.000 A 
ATOM     15  C   UNL     1       2.527   3.403  18.841  0.00  0.00    +0.000 A 
ATOM     16  C   UNL     1       2.291   4.418  17.910  0.00  0.00    +0.000 A 
ATOM     17  C   UNL     1       3.301   4.786  17.016  0.00  0.00    +0.000 A 
BRANCH  15  18
ATOM     18  S   UNL     1       1.230   2.880  19.923  0.00  0.00    +0.000 S 
ATOM     19  O   UNL     1       0.137   2.351  19.145  0.00  0.00    +0.000 OA
ATOM     20  O   UNL     1       1.807   2.165  21.037  0.00  0.00    +0.000 OA
BRANCH  18  21
ATOM     21  N   UNL     1       0.708   4.353  20.530  0.00  0.00    +0.000 NA
ATOM     22  H   UNL     1       0.623   4.302  21.545  0.00  0.00    +0.000 HD
ATOM     23  H   UNL     1       1.305   5.107  20.194  0.00  0.00    +0.000 HD
ENDBRANCH  18  21
ENDBRANCH  15  18
ENDBRANCH   4  12
BRANCH   1  25
ATOM     24  N   UNL     1       6.105   2.367  12.360  0.00  0.00    +0.000 N 
ATOM     25  C   UNL     1       6.562   3.648  12.656  0.00  0.00    +0.000 C 
ATOM     26  O   UNL     1       7.140   4.345  11.830  0.00  0.00    +0.000 OA
ATOM     27  H   UNL     1       5.725   1.834  13.137  0.00  0.00    +0.000 HD
BRANCH  24  29
ATOM     28  C   UNL     1       7.833   1.860  10.681  0.00  0.00    +0.000 C 
ATOM     29  C   UNL     1       6.363   1.724  11.075  0.00  0.00    +0.000 C 
ATOM     30  C   UNL     1       5.959   0.250  11.098  0.00  0.00    +0.000 C 
ENDBRANCH  24  29
ENDBRANCH   1  25
TORSDOF 6
ENDMDL
