MODEL 1
REMARK VINA RESULT:     -10.0      0.000      0.000
REMARK  Name = 
REMARK  5 active torsions:
REMARK  status: ('A' for Active; 'I' for Inactive)
REMARK    1  A    between atoms: C_1  and  N_2
REMARK    2  A    between atoms: C_4  and  C_5
REMARK    3  A    between atoms: C_7  and  C_8
REMARK    4  A    between atoms: C_14  and  C_15
REMARK    5  A    between atoms: C_18  and  C_19
REMARK                            x       y       z     vdW  Elec       q    Type
REMARK                         _______ _______ _______ _____ _____    ______ ____
ROOT
ATOM      1  C   UNL     1       1.721   8.253  19.706  0.00  0.00    +0.000 A 
ATOM      2  N   UNL     1       1.634   7.156  20.424  0.00  0.00    +0.000 NA
ATOM      3  C   UNL     1       2.363   6.198  19.744  0.00  0.00    +0.000 A 
ATOM      4  C   UNL     1       2.893   6.717  18.567  0.00  0.00    +0.000 A 
ATOM      5  N   UNL     1       2.468   8.027  18.584  0.00  0.00    +0.000 N 
ATOM      6  H   UNL     1       2.649   8.715  17.871  0.00  0.00    +0.000 HD
ENDROOT
BRANCH   1  10
ATOM      7  C   UNL     1       0.252  13.001  19.274  0.00  0.00    +0.000 C 
ATOM      8  N   UNL     1       0.457  11.683  19.833  0.00  0.00    +0.000 N 
ATOM      9  C   UNL     1       1.176  10.685  19.229  0.00  0.00    +0.000 A 
ATOM     10  C   UNL     1       1.096   9.565  20.032  0.00  0.00    +0.000 A 
ATOM     11  C   UNL     1       0.330   9.908  21.181  0.00  0.00    +0.000 A 
ATOM     12  C   UNL     1      -0.074   9.214  22.343  0.00  0.00    +0.000 A 
ATOM     13  C   UNL     1      -0.832   9.871  23.317  0.00  0.00    +0.000 A 
ATOM     14  C   UNL     1      -1.198  11.204  23.149  0.00  0.00    +0.000 A 
ATOM     15  C   UNL     1      -0.819  11.914  22.006  0.00  0.00    +0.000 A 
ATOM     16  C   UNL     1      -0.052  11.247  21.038  0.00  0.00    +0.000 A 
ENDBRANCH   1  10
BRANCH   3  17
ATOM     17  C   UNL     1       2.484   4.836  20.246  0.00  0.00    +0.000 A 
ATOM     18  C   UNL     1       1.379   4.227  20.855  0.00  0.00    +0.000 A 
ATOM     19  C   UNL     1       1.458   2.909  21.316  0.00  0.00    +0.000 A 
ATOM     20  C   UNL     1       2.640   2.187  21.166  0.00  0.00    +0.000 A 
ATOM     21  C   UNL     1       3.749   2.785  20.572  0.00  0.00    +0.000 A 
ATOM     22  C   UNL     1       3.677   4.109  20.133  0.00  0.00    +0.000 A 
ENDBRANCH   3  17
BRANCH   4  23
ATOM     23  C   UNL     1       3.668   6.174  17.451  0.00  0.00    +0.000 A 
ATOM     24  C   UNL     1       3.592   4.824  17.107  0.00  0.00    +0.000 A 
ATOM     25  C   UNL     1       4.358   4.303  16.059  0.00  0.00    +0.000 A 
ATOM     26  C   UNL     1       5.176   5.122  15.266  0.00  0.00    +0.000 A 
ATOM     27  C   UNL     1       5.223   6.486  15.604  0.00  0.00    +0.000 A 
ATOM     28  C   UNL     1       4.499   7.001  16.688  0.00  0.00    +0.000 A 
BRANCH  26  29
ATOM     29  C   UNL     1       5.931   4.578  14.112  0.00  0.00    +0.000 A 
ATOM     30  C   UNL     1       5.397   3.555  13.305  0.00  0.00    +0.000 A 
ATOM     31  C   UNL     1       6.093   3.048  12.206  0.00  0.00    +0.000 A 
ATOM     32  C   UNL     1       7.342   3.564  11.875  0.00  0.00    +0.000 A 
ATOM     33  C   UNL     1       7.895   4.576  12.652  0.00  0.00    +0.000 A 
ATOM     34  C   UNL     1       7.203   5.067  13.763  0.00  0.00    +0.000 A 
ENDBRANCH  26  29
ENDBRANCH   4  23
TORSDOF 4
ENDMDL
MODEL 2
REMARK VINA RESULT:      -9.8      3.016      6.817
REMARK  Name = 
REMARK  5 active torsions:
REMARK  status: ('A' for Active; 'I' for Inactive)
REMARK    1  A    between atoms: C_1  and  N_2
REMARK    2  A    between atoms: C_4  and  C_5
REMARK    3  A    between atoms: C_7  and  C_8
REMARK    4  A    between atoms: C_14  and  C_15
REMARK    5  A    between atoms: C_18  and  C_19
REMARK                            x       y       z     vdW  Elec       q    Type
REMARK                         _______ _______ _______ _____ _____    ______ ____
ROOT
ATOM      1  C   UNL     1      -1.807  12.335  20.387  0.00  0.00    +0.000 A 
ATOM      2  N   UNL     1      -0.844  13.228  20.345  0.00  0.00    +0.000 NA
ATOM      3  C   UNL     1       0.280  12.555  19.903  0.00  0.00    +0.000 A 
ATOM      4  C   UNL     1       0.002  11.209  19.690  0.00  0.00    +0.000 A 
ATOM      5  N   UNL     1      -1.336  11.112  20.001  0.00  0.00    +0.000 N 
ATOM      6  H   UNL     1      -1.887  10.270  19.979  0.00  0.00    +0.000 HD
ENDROOT
BRANCH   1  10
ATOM      7  C   UNL     1      -6.708  13.227  20.107  0.00  0.00    +0.000 C 
ATOM      8  N   UNL     1      -5.394  12.992  20.666  0.00  0.00    +0.000 N 
ATOM      9  C   UNL     1      -4.248  12.855  19.928  0.00  0.00    +0.000 A 
ATOM     10  C   UNL     1      -3.215  12.585  20.803  0.00  0.00    +0.000 A 
ATOM     11  C   UNL     1      -3.749  12.595  22.122  0.00  0.00    +0.000 A 
ATOM     12  C   UNL     1      -3.202  12.410  23.411  0.00  0.00    +0.000 A 
ATOM     13  C   UNL     1      -4.028  12.505  24.536  0.00  0.00    +0.000 A 
ATOM     14  C   UNL     1      -5.387  12.773  24.396  0.00  0.00    +0.000 A 
ATOM     15  C   UNL     1      -5.957  12.953  23.133  0.00  0.00    +0.000 A 
ATOM     16  C   UNL     1      -5.118  12.863  22.011  0.00  0.00    +0.000 A 
ENDBRANCH   1  10
BRANCH   3  17
ATOM     17  C   UNL     1       1.559  13.234  19.741  0.00  0.00    +0.000 A 
ATOM     18  C   UNL     1       2.032  13.510  18.451  0.00  0.00    +0.000 A 
ATOM     19  C   UNL     1       3.239  14.190  18.268  0.00  0.00    +0.000 A 
ATOM     20  C   UNL     1       3.981  14.606  19.373  0.00  0.00    +0.000 A 
ATOM     21  C   UNL     1       3.526  14.328  20.659  0.00  0.00    +0.000 A 
ATOM     22  C   UNL     1       2.332  13.627  20.842  0.00  0.00    +0.000 A 
ENDBRANCH   3  17
BRANCH   4  23
ATOM     23  C   UNL     1       0.787  10.038  19.298  0.00  0.00    +0.000 A 
ATOM     24  C   UNL     1       1.081   9.025  20.212  0.00  0.00    +0.000 A 
ATOM     25  C   UNL     1       1.858   7.923  19.841  0.00  0.00    +0.000 A 
ATOM     26  C   UNL     1       2.312   7.750  18.524  0.00  0.00    +0.000 A 
ATOM     27  C   UNL     1       1.986   8.762  17.605  0.00  0.00    +0.000 A 
ATOM     28  C   UNL     1       1.254   9.896  17.986  0.00  0.00    +0.000 A 
BRANCH  26  29
ATOM     29  C   UNL     1       3.075   6.546  18.119  0.00  0.00    +0.000 A 
ATOM     30  C   UNL     1       4.350   6.652  17.529  0.00  0.00    +0.000 A 
ATOM     31  C   UNL     1       5.085   5.523  17.160  0.00  0.00    +0.000 A 
ATOM     32  C   UNL     1       4.567   4.252  17.387  0.00  0.00    +0.000 A 
ATOM     33  C   UNL     1       3.312   4.115  17.970  0.00  0.00    +0.000 A 
ATOM     34  C   UNL     1       2.572   5.248  18.320  0.00  0.00    +0.000 A 
ENDBRANCH  26  29
ENDBRANCH   4  23
TORSDOF 4
ENDMDL
MODEL 3
REMARK VINA RESULT:      -9.7      2.929      6.857
REMARK  Name = 
REMARK  5 active torsions:
REMARK  status: ('A' for Active; 'I' for Inactive)
REMARK    1  A    between atoms: C_1  and  N_2
REMARK    2  A    between atoms: C_4  and  C_5
REMARK    3  A    between atoms: C_7  and  C_8
REMARK    4  A    between atoms: C_14  and  C_15
REMARK    5  A    between atoms: C_18  and  C_19
REMARK                            x       y       z     vdW  Elec       q    Type
REMARK                         _______ _______ _______ _____ _____    ______ ____
ROOT
ATOM      1  C   UNL     1      -1.842  12.324  20.364  0.00  0.00    +0.000 A 
ATOM      2  N   UNL     1      -0.890  13.226  20.287  0.00  0.00    +0.000 NA
ATOM      3  C   UNL     1       0.244  12.549  19.876  0.00  0.00    +0.000 A 
ATOM      4  C   UNL     1      -0.017  11.192  19.718  0.00  0.00    +0.000 A 
ATOM      5  N   UNL     1      -1.355  11.091  20.031  0.00  0.00    +0.000 N 
ATOM      6  H   UNL     1      -1.895  10.242  20.043  0.00  0.00    +0.000 HD
ENDROOT
BRANCH   1  10
ATOM      7  C   UNL     1      -6.742  13.203  20.039  0.00  0.00    +0.000 C 
ATOM      8  N   UNL     1      -5.433  12.975  20.610  0.00  0.00    +0.000 N 
ATOM      9  C   UNL     1      -4.280  12.835  19.883  0.00  0.00    +0.000 A 
ATOM     10  C   UNL     1      -3.254  12.572  20.767  0.00  0.00    +0.000 A 
ATOM     11  C   UNL     1      -3.799  12.589  22.082  0.00  0.00    +0.000 A 
ATOM     12  C   UNL     1      -3.262  12.414  23.377  0.00  0.00    +0.000 A 
ATOM     13  C   UNL     1      -4.098  12.513  24.494  0.00  0.00    +0.000 A 
ATOM     14  C   UNL     1      -5.456  12.777  24.341  0.00  0.00    +0.000 A 
ATOM     15  C   UNL     1      -6.016  12.948  23.072  0.00  0.00    +0.000 A 
ATOM     16  C   UNL     1      -5.168  12.854  21.957  0.00  0.00    +0.000 A 
ENDBRANCH   1  10
BRANCH   3  17
ATOM     17  C   UNL     1       1.514  13.236  19.688  0.00  0.00    +0.000 A 
ATOM     18  C   UNL     1       1.957  13.520  18.390  0.00  0.00    +0.000 A 
ATOM     19  C   UNL     1       3.156  14.209  18.182  0.00  0.00    +0.000 A 
ATOM     20  C   UNL     1       3.919  14.625  19.272  0.00  0.00    +0.000 A 
ATOM     21  C   UNL     1       3.495  14.339  20.567  0.00  0.00    +0.000 A 
ATOM     22  C   UNL     1       2.309  13.630  20.773  0.00  0.00    +0.000 A 
ENDBRANCH   3  17
BRANCH   4  23
ATOM     23  C   UNL     1       0.783  10.015  19.376  0.00  0.00    +0.000 A 
ATOM     24  C   UNL     1       1.325   9.855  18.100  0.00  0.00    +0.000 A 
ATOM     25  C   UNL     1       2.063   8.715  17.768  0.00  0.00    +0.000 A 
ATOM     26  C   UNL     1       2.353   7.722  18.717  0.00  0.00    +0.000 A 
ATOM     27  C   UNL     1       1.826   7.908  20.007  0.00  0.00    +0.000 A 
ATOM     28  C   UNL     1       1.039   9.023  20.328  0.00  0.00    +0.000 A 
BRANCH  26  29
ATOM     29  C   UNL     1       3.195   6.550  18.381  0.00  0.00    +0.000 A 
ATOM     30  C   UNL     1       3.069   5.334  19.080  0.00  0.00    +0.000 A 
ATOM     31  C   UNL     1       3.844   4.217  18.759  0.00  0.00    +0.000 A 
ATOM     32  C   UNL     1       4.761   4.286  17.715  0.00  0.00    +0.000 A 
ATOM     33  C   UNL     1       4.907   5.472  17.004  0.00  0.00    +0.000 A 
ATOM     34  C   UNL     1       4.142   6.592  17.341  0.00  0.00    +0.000 A 
ENDBRANCH  26  29
ENDBRANCH   4  23
TORSDOF 4
ENDMDL
MODEL 4
REMARK VINA RESULT:      -9.6      2.934      6.866
REMARK  Name = 
REMARK  5 active torsions:
REMARK  status: ('A' for Active; 'I' for Inactive)
REMARK    1  A    between atoms: C_1  and  N_2
REMARK    2  A    between atoms: C_4  and  C_5
REMARK    3  A    between atoms: C_7  and  C_8
REMARK    4  A    between atoms: C_14  and  C_15
REMARK    5  A    between atoms: C_18  and  C_19
REMARK                            x       y       z     vdW  Elec       q    Type
REMARK                         _______ _______ _______ _____ _____    ______ ____
ROOT
ATOM      1  C   UNL     1      -1.390  12.157  21.266  0.00  0.00    +0.000 A 
ATOM      2  N   UNL     1      -0.500  13.084  20.986  0.00  0.00    +0.000 NA
ATOM      3  C   UNL     1       0.515  12.441  20.301  0.00  0.00    +0.000 A 
ATOM      4  C   UNL     1       0.250  11.081  20.178  0.00  0.00    +0.000 A 
ATOM      5  N   UNL     1      -0.973  10.943  20.797  0.00  0.00    +0.000 N 
ATOM      6  H   UNL     1      -1.479  10.081  20.917  0.00  0.00    +0.000 HD
ENDROOT
BRANCH   1  10
ATOM      7  C   UNL     1      -4.667  12.477  25.013  0.00  0.00    +0.000 C 
ATOM      8  N   UNL     1      -4.122  12.494  23.673  0.00  0.00    +0.000 N 
ATOM      9  C   UNL     1      -2.828  12.175  23.356  0.00  0.00    +0.000 A 
ATOM     10  C   UNL     1      -2.670  12.365  21.998  0.00  0.00    +0.000 A 
ATOM     11  C   UNL     1      -3.924  12.779  21.468  0.00  0.00    +0.000 A 
ATOM     12  C   UNL     1      -4.393  13.100  20.175  0.00  0.00    +0.000 A 
ATOM     13  C   UNL     1      -5.730  13.465  19.992  0.00  0.00    +0.000 A 
ATOM     14  C   UNL     1      -6.604  13.520  21.075  0.00  0.00    +0.000 A 
ATOM     15  C   UNL     1      -6.166  13.215  22.367  0.00  0.00    +0.000 A 
ATOM     16  C   UNL     1      -4.823  12.843  22.538  0.00  0.00    +0.000 A 
ENDBRANCH   1  10
BRANCH   3  17
ATOM     17  C   UNL     1       1.692  13.162  19.834  0.00  0.00    +0.000 A 
ATOM     18  C   UNL     1       1.837  13.427  18.465  0.00  0.00    +0.000 A 
ATOM     19  C   UNL     1       2.939  14.146  17.994  0.00  0.00    +0.000 A 
ATOM     20  C   UNL     1       3.902  14.612  18.887  0.00  0.00    +0.000 A 
ATOM     21  C   UNL     1       3.774  14.346  20.248  0.00  0.00    +0.000 A 
ATOM     22  C   UNL     1       2.685  13.607  20.716  0.00  0.00    +0.000 A 
ENDBRANCH   3  17
BRANCH   4  23
ATOM     23  C   UNL     1       0.968   9.931  19.628  0.00  0.00    +0.000 A 
ATOM     24  C   UNL     1       1.273   8.823  20.420  0.00  0.00    +0.000 A 
ATOM     25  C   UNL     1       1.986   7.739  19.899  0.00  0.00    +0.000 A 
ATOM     26  C   UNL     1       2.361   7.684  18.548  0.00  0.00    +0.000 A 
ATOM     27  C   UNL     1       2.024   8.793  17.753  0.00  0.00    +0.000 A 
ATOM     28  C   UNL     1       1.357   9.906  18.285  0.00  0.00    +0.000 A 
BRANCH  26  29
ATOM     29  C   UNL     1       3.055   6.502  17.983  0.00  0.00    +0.000 A 
ATOM     30  C   UNL     1       2.481   5.218  18.046  0.00  0.00    +0.000 A 
ATOM     31  C   UNL     1       3.118   4.101  17.502  0.00  0.00    +0.000 A 
ATOM     32  C   UNL     1       4.346   4.244  16.864  0.00  0.00    +0.000 A 
ATOM     33  C   UNL     1       4.938   5.499  16.785  0.00  0.00    +0.000 A 
ATOM     34  C   UNL     1       4.305   6.611  17.347  0.00  0.00    +0.000 A 
ENDBRANCH  26  29
ENDBRANCH   4  23
TORSDOF 4
ENDMDL
MODEL 5
REMARK VINA RESULT:      -9.6      2.931      6.805
REMARK  Name = 
REMARK  5 active torsions:
REMARK  status: ('A' for Active; 'I' for Inactive)
REMARK    1  A    between atoms: C_1  and  N_2
REMARK    2  A    between atoms: C_4  and  C_5
REMARK    3  A    between atoms: C_7  and  C_8
REMARK    4  A    between atoms: C_14  and  C_15
REMARK    5  A    between atoms: C_18  and  C_19
REMARK                            x       y       z     vdW  Elec       q    Type
REMARK                         _______ _______ _______ _____ _____    ______ ____
ROOT
ATOM      1  C   UNL     1      -1.862  12.244  20.270  0.00  0.00    +0.000 A 
ATOM      2  N   UNL     1      -0.926  13.162  20.174  0.00  0.00    +0.000 NA
ATOM      3  C   UNL     1       0.223  12.496  19.789  0.00  0.00    +0.000 A 
ATOM      4  C   UNL     1      -0.011  11.130  19.666  0.00  0.00    +0.000 A 
ATOM      5  N   UNL     1      -1.349  11.013  19.974  0.00  0.00    +0.000 N 
ATOM      6  H   UNL     1      -1.873  10.154  20.005  0.00  0.00    +0.000 HD
ENDROOT
BRANCH   1  10
ATOM      7  C   UNL     1      -6.785  12.951  19.891  0.00  0.00    +0.000 C 
ATOM      8  N   UNL     1      -5.471  12.801  20.475  0.00  0.00    +0.000 N 
ATOM      9  C   UNL     1      -4.313  12.648  19.757  0.00  0.00    +0.000 A 
ATOM     10  C   UNL     1      -3.281  12.477  20.657  0.00  0.00    +0.000 A 
ATOM     11  C   UNL     1      -3.828  12.566  21.967  0.00  0.00    +0.000 A 
ATOM     12  C   UNL     1      -3.287  12.494  23.271  0.00  0.00    +0.000 A 
ATOM     13  C   UNL     1      -4.126  12.643  24.379  0.00  0.00    +0.000 A 
ATOM     14  C   UNL     1      -5.491  12.855  24.211  0.00  0.00    +0.000 A 
ATOM     15  C   UNL     1      -6.055  12.923  22.934  0.00  0.00    +0.000 A 
ATOM     16  C   UNL     1      -5.203  12.779  21.827  0.00  0.00    +0.000 A 
ENDBRANCH   1  10
BRANCH   3  17
ATOM     17  C   UNL     1       1.481  13.202  19.590  0.00  0.00    +0.000 A 
ATOM     18  C   UNL     1       2.240  13.582  20.705  0.00  0.00    +0.000 A 
ATOM     19  C   UNL     1       3.467  14.231  20.542  0.00  0.00    +0.000 A 
ATOM     20  C   UNL     1       3.949  14.500  19.262  0.00  0.00    +0.000 A 
ATOM     21  C   UNL     1       3.199  14.138  18.146  0.00  0.00    +0.000 A 
ATOM     22  C   UNL     1       1.961  13.511  18.310  0.00  0.00    +0.000 A 
ENDBRANCH   3  17
BRANCH   4  23
ATOM     23  C   UNL     1       0.814   9.961  19.362  0.00  0.00    +0.000 A 
ATOM     24  C   UNL     1       1.074   8.989  20.329  0.00  0.00    +0.000 A 
ATOM     25  C   UNL     1       1.889   7.888  20.044  0.00  0.00    +0.000 A 
ATOM     26  C   UNL     1       2.417   7.675  18.761  0.00  0.00    +0.000 A 
ATOM     27  C   UNL     1       2.124   8.646  17.787  0.00  0.00    +0.000 A 
ATOM     28  C   UNL     1       1.354   9.779  18.085  0.00  0.00    +0.000 A 
BRANCH  26  29
ATOM     29  C   UNL     1       3.221   6.471  18.444  0.00  0.00    +0.000 A 
ATOM     30  C   UNL     1       3.252   5.363  19.313  0.00  0.00    +0.000 A 
ATOM     31  C   UNL     1       3.993   4.217  19.016  0.00  0.00    +0.000 A 
ATOM     32  C   UNL     1       4.713   4.144  17.828  0.00  0.00    +0.000 A 
ATOM     33  C   UNL     1       4.701   5.221  16.949  0.00  0.00    +0.000 A 
ATOM     34  C   UNL     1       3.974   6.374  17.259  0.00  0.00    +0.000 A 
ENDBRANCH  26  29
ENDBRANCH   4  23
TORSDOF 4
ENDMDL
MODEL 6
REMARK VINA RESULT:      -9.6      3.405      7.100
REMARK  Name = 
REMARK  5 active torsions:
REMARK  status: ('A' for Active; 'I' for Inactive)
REMARK    1  A    between atoms: C_1  and  N_2
REMARK    2  A    between atoms: C_4  and  C_5
REMARK    3  A    between atoms: C_7  and  C_8
REMARK    4  A    between atoms: C_14  and  C_15
REMARK    5  A    between atoms: C_18  and  C_19
REMARK                            x       y       z     vdW  Elec       q    Type
REMARK                         _______ _______ _______ _____ _____    ______ ____
ROOT
ATOM      1  C   UNL     1      -1.897  12.182  19.970  0.00  0.00    +0.000 A 
ATOM      2  N   UNL     1      -0.954  13.097  19.948  0.00  0.00    +0.000 NA
ATOM      3  C   UNL     1       0.220  12.426  19.659  0.00  0.00    +0.000 A 
ATOM      4  C   UNL     1      -0.007  11.061  19.521  0.00  0.00    +0.000 A 
ATOM      5  N   UNL     1      -1.366  10.948  19.719  0.00  0.00    +0.000 N 
ATOM      6  H   UNL     1      -1.893  10.091  19.711  0.00  0.00    +0.000 HD
ENDROOT
BRANCH   1  10
ATOM      7  C   UNL     1      -6.082  13.546  22.318  0.00  0.00    +0.000 C 
ATOM      8  N   UNL     1      -5.199  13.020  21.300  0.00  0.00    +0.000 N 
ATOM      9  C   UNL     1      -3.841  12.900  21.434  0.00  0.00    +0.000 A 
ATOM     10  C   UNL     1      -3.342  12.419  20.240  0.00  0.00    +0.000 A 
ATOM     11  C   UNL     1      -4.443  12.206  19.364  0.00  0.00    +0.000 A 
ATOM     12  C   UNL     1      -4.576  11.719  18.044  0.00  0.00    +0.000 A 
ATOM     13  C   UNL     1      -5.845  11.618  17.466  0.00  0.00    +0.000 A 
ATOM     14  C   UNL     1      -6.980  11.999  18.178  0.00  0.00    +0.000 A 
ATOM     15  C   UNL     1      -6.878  12.490  19.482  0.00  0.00    +0.000 A 
ATOM     16  C   UNL     1      -5.600  12.582  20.056  0.00  0.00    +0.000 A 
ENDBRANCH   1  10
BRANCH   3  17
ATOM     17  C   UNL     1       1.493  13.128  19.561  0.00  0.00    +0.000 A 
ATOM     18  C   UNL     1       2.025  13.414  18.297  0.00  0.00    +0.000 A 
ATOM     19  C   UNL     1       3.227  14.116  18.174  0.00  0.00    +0.000 A 
ATOM     20  C   UNL     1       3.905  14.545  19.314  0.00  0.00    +0.000 A 
ATOM     21  C   UNL     1       3.391  14.258  20.577  0.00  0.00    +0.000 A 
ATOM     22  C   UNL     1       2.202  13.535  20.699  0.00  0.00    +0.000 A 
ENDBRANCH   3  17
BRANCH   4  23
ATOM     23  C   UNL     1       0.836   9.888  19.288  0.00  0.00    +0.000 A 
ATOM     24  C   UNL     1       1.058   8.945  20.292  0.00  0.00    +0.000 A 
ATOM     25  C   UNL     1       1.889   7.842  20.075  0.00  0.00    +0.000 A 
ATOM     26  C   UNL     1       2.475   7.596  18.823  0.00  0.00    +0.000 A 
ATOM     27  C   UNL     1       2.222   8.537  17.810  0.00  0.00    +0.000 A 
ATOM     28  C   UNL     1       1.434   9.673  18.041  0.00  0.00    +0.000 A 
BRANCH  26  29
ATOM     29  C   UNL     1       3.299   6.389  18.577  0.00  0.00    +0.000 A 
ATOM     30  C   UNL     1       4.020   6.227  17.377  0.00  0.00    +0.000 A 
ATOM     31  C   UNL     1       4.813   5.101  17.143  0.00  0.00    +0.000 A 
ATOM     32  C   UNL     1       4.917   4.111  18.114  0.00  0.00    +0.000 A 
ATOM     33  C   UNL     1       4.219   4.242  19.309  0.00  0.00    +0.000 A 
ATOM     34  C   UNL     1       3.411   5.362  19.532  0.00  0.00    +0.000 A 
ENDBRANCH  26  29
ENDBRANCH   4  23
TORSDOF 4
ENDMDL
MODEL 7
REMARK VINA RESULT:      -9.5      3.446      7.148
REMARK  Name = 
REMARK  5 active torsions:
REMARK  status: ('A' for Active; 'I' for Inactive)
REMARK    1  A    between atoms: C_1  and  N_2
REMARK    2  A    between atoms: C_4  and  C_5
REMARK    3  A    between atoms: C_7  and  C_8
REMARK    4  A    between atoms: C_14  and  C_15
REMARK    5  A    between atoms: C_18  and  C_19
REMARK                            x       y       z     vdW  Elec       q    Type
REMARK                         _______ _______ _______ _____ _____    ______ ____
ROOT
ATOM      1  C   UNL     1      -2.007  12.269  19.987  0.00  0.00    +0.000 A 
ATOM      2  N   UNL     1      -1.065  13.185  19.958  0.00  0.00    +0.000 NA
ATOM      3  C   UNL     1       0.108  12.515  19.662  0.00  0.00    +0.000 A 
ATOM      4  C   UNL     1      -0.119  11.150  19.527  0.00  0.00    +0.000 A 
ATOM      5  N   UNL     1      -1.476  11.036  19.735  0.00  0.00    +0.000 N 
ATOM      6  H   UNL     1      -2.003  10.178  19.730  0.00  0.00    +0.000 HD
ENDROOT
BRANCH   1  10
ATOM      7  C   UNL     1      -6.175  13.667  22.345  0.00  0.00    +0.000 C 
ATOM      8  N   UNL     1      -5.300  13.122  21.330  0.00  0.00    +0.000 N 
ATOM      9  C   UNL     1      -3.940  13.012  21.453  0.00  0.00    +0.000 A 
ATOM     10  C   UNL     1      -3.450  12.505  20.266  0.00  0.00    +0.000 A 
ATOM     11  C   UNL     1      -4.559  12.266  19.407  0.00  0.00    +0.000 A 
ATOM     12  C   UNL     1      -4.702  11.747  18.100  0.00  0.00    +0.000 A 
ATOM     13  C   UNL     1      -5.977  11.626  17.538  0.00  0.00    +0.000 A 
ATOM     14  C   UNL     1      -7.106  12.018  18.251  0.00  0.00    +0.000 A 
ATOM     15  C   UNL     1      -6.994  12.541  19.542  0.00  0.00    +0.000 A 
ATOM     16  C   UNL     1      -5.711  12.652  20.101  0.00  0.00    +0.000 A 
ENDBRANCH   1  10
BRANCH   3  17
ATOM     17  C   UNL     1       1.379  13.219  19.555  0.00  0.00    +0.000 A 
ATOM     18  C   UNL     1       2.094  13.528  20.720  0.00  0.00    +0.000 A 
ATOM     19  C   UNL     1       3.332  14.173  20.644  0.00  0.00    +0.000 A 
ATOM     20  C   UNL     1       3.869  14.508  19.402  0.00  0.00    +0.000 A 
ATOM     21  C   UNL     1       3.163  14.216  18.237  0.00  0.00    +0.000 A 
ATOM     22  C   UNL     1       1.915  13.593  18.315  0.00  0.00    +0.000 A 
ENDBRANCH   3  17
BRANCH   4  23
ATOM     23  C   UNL     1       0.724   9.977  19.290  0.00  0.00    +0.000 A 
ATOM     24  C   UNL     1       1.007   9.071  20.313  0.00  0.00    +0.000 A 
ATOM     25  C   UNL     1       1.838   7.969  20.090  0.00  0.00    +0.000 A 
ATOM     26  C   UNL     1       2.362   7.686  18.818  0.00  0.00    +0.000 A 
ATOM     27  C   UNL     1       2.048   8.591  17.789  0.00  0.00    +0.000 A 
ATOM     28  C   UNL     1       1.260   9.727  18.022  0.00  0.00    +0.000 A 
BRANCH  26  29
ATOM     29  C   UNL     1       3.185   6.479  18.571  0.00  0.00    +0.000 A 
ATOM     30  C   UNL     1       3.120   5.361  19.425  0.00  0.00    +0.000 A 
ATOM     31  C   UNL     1       3.877   4.211  19.191  0.00  0.00    +0.000 A 
ATOM     32  C   UNL     1       4.714   4.145  18.081  0.00  0.00    +0.000 A 
ATOM     33  C   UNL     1       4.799   5.231  17.218  0.00  0.00    +0.000 A 
ATOM     34  C   UNL     1       4.053   6.387  17.467  0.00  0.00    +0.000 A 
ENDBRANCH  26  29
ENDBRANCH   4  23
TORSDOF 4
ENDMDL
MODEL 8
REMARK VINA RESULT:      -9.5      3.873      7.403
REMARK  Name = 
REMARK  5 active torsions:
REMARK  status: ('A' for Active; 'I' for Inactive)
REMARK    1  A    between atoms: C_1  and  N_2
REMARK    2  A    between atoms: C_4  and  C_5
REMARK    3  A    between atoms: C_7  and  C_8
REMARK    4  A    between atoms: C_14  and  C_15
REMARK    5  A    between atoms: C_18  and  C_19
REMARK                            x       y       z     vdW  Elec       q    Type
REMARK                         _______ _______ _______ _____ _____    ______ ____
ROOT
ATOM      1  C   UNL     1       1.200  13.457  19.133  0.00  0.00    +0.000 A 
ATOM      2  N   UNL     1      -0.019  13.267  18.682  0.00  0.00    +0.000 NA
ATOM      3  C   UNL     1      -0.234  11.901  18.730  0.00  0.00    +0.000 A 
ATOM      4  C   UNL     1       0.893  11.237  19.203  0.00  0.00    +0.000 A 
ATOM      5  N   UNL     1       1.778  12.262  19.454  0.00  0.00    +0.000 N 
ATOM      6  H   UNL     1       2.719  12.157  19.796  0.00  0.00    +0.000 HD
ENDROOT
BRANCH   1  10
ATOM      7  C   UNL     1       2.016  18.239  20.298  0.00  0.00    +0.000 C 
ATOM      8  N   UNL     1       2.235  16.904  19.787  0.00  0.00    +0.000 N 
ATOM      9  C   UNL     1       1.293  15.909  19.779  0.00  0.00    +0.000 A 
ATOM     10  C   UNL     1       1.887  14.771  19.273  0.00  0.00    +0.000 A 
ATOM     11  C   UNL     1       3.228  15.099  18.927  0.00  0.00    +0.000 A 
ATOM     12  C   UNL     1       4.306  14.383  18.360  0.00  0.00    +0.000 A 
ATOM     13  C   UNL     1       5.524  15.029  18.130  0.00  0.00    +0.000 A 
ATOM     14  C   UNL     1       5.687  16.372  18.460  0.00  0.00    +0.000 A 
ATOM     15  C   UNL     1       4.642  17.103  19.029  0.00  0.00    +0.000 A 
ATOM     16  C   UNL     1       3.420  16.447  19.250  0.00  0.00    +0.000 A 
ENDBRANCH   1  10
BRANCH   3  17
ATOM     17  C   UNL     1      -1.492  11.313  18.292  0.00  0.00    +0.000 A 
ATOM     18  C   UNL     1      -2.701  11.861  18.743  0.00  0.00    +0.000 A 
ATOM     19  C   UNL     1      -3.923  11.337  18.311  0.00  0.00    +0.000 A 
ATOM     20  C   UNL     1      -3.948  10.266  17.420  0.00  0.00    +0.000 A 
ATOM     21  C   UNL     1      -2.753   9.706  16.973  0.00  0.00    +0.000 A 
ATOM     22  C   UNL     1      -1.533  10.214  17.423  0.00  0.00    +0.000 A 
ENDBRANCH   3  17
BRANCH   4  23
ATOM     23  C   UNL     1       1.263   9.835  19.401  0.00  0.00    +0.000 A 
ATOM     24  C   UNL     1       0.926   9.157  20.574  0.00  0.00    +0.000 A 
ATOM     25  C   UNL     1       1.309   7.827  20.772  0.00  0.00    +0.000 A 
ATOM     26  C   UNL     1       1.978   7.096  19.778  0.00  0.00    +0.000 A 
ATOM     27  C   UNL     1       2.286   7.781  18.590  0.00  0.00    +0.000 A 
ATOM     28  C   UNL     1       1.954   9.130  18.409  0.00  0.00    +0.000 A 
BRANCH  26  29
ATOM     29  C   UNL     1       2.319   5.666  19.965  0.00  0.00    +0.000 A 
ATOM     30  C   UNL     1       1.482   4.805  20.702  0.00  0.00    +0.000 A 
ATOM     31  C   UNL     1       1.785   3.452  20.869  0.00  0.00    +0.000 A 
ATOM     32  C   UNL     1       2.931   2.919  20.287  0.00  0.00    +0.000 A 
ATOM     33  C   UNL     1       3.776   3.743  19.552  0.00  0.00    +0.000 A 
ATOM     34  C   UNL     1       3.478   5.101  19.403  0.00  0.00    +0.000 A 
ENDBRANCH  26  29
ENDBRANCH   4  23
TORSDOF 4
ENDMDL
MODEL 9
REMARK VINA RESULT:      -9.5      3.438      7.170
REMARK  Name = 
REMARK  5 active torsions:
REMARK  status: ('A' for Active; 'I' for Inactive)
REMARK    1  A    between atoms: C_1  and  N_2
REMARK    2  A    between atoms: C_4  and  C_5
REMARK    3  A    between atoms: C_7  and  C_8
REMARK    4  A    between atoms: C_14  and  C_15
REMARK    5  A    between atoms: C_18  and  C_19
REMARK                            x       y       z     vdW  Elec       q    Type
REMARK                         _______ _______ _______ _____ _____    ______ ____
ROOT
ATOM      1  C   UNL     1      -1.944  12.319  19.969  0.00  0.00    +0.000 A 
ATOM      2  N   UNL     1      -0.992  13.224  19.934  0.00  0.00    +0.000 NA
ATOM      3  C   UNL     1       0.173  12.540  19.637  0.00  0.00    +0.000 A 
ATOM      4  C   UNL     1      -0.071  11.177  19.506  0.00  0.00    +0.000 A 
ATOM      5  N   UNL     1      -1.428  11.079  19.718  0.00  0.00    +0.000 N 
ATOM      6  H   UNL     1      -1.965  10.227  19.717  0.00  0.00    +0.000 HD
ENDROOT
BRANCH   1  10
ATOM      7  C   UNL     1      -6.085  13.833  22.303  0.00  0.00    +0.000 C 
ATOM      8  N   UNL     1      -5.221  13.242  21.305  0.00  0.00    +0.000 N 
ATOM      9  C   UNL     1      -3.860  13.131  21.420  0.00  0.00    +0.000 A 
ATOM     10  C   UNL     1      -3.384  12.573  20.251  0.00  0.00    +0.000 A 
ATOM     11  C   UNL     1      -4.502  12.302  19.412  0.00  0.00    +0.000 A 
ATOM     12  C   UNL     1      -4.659  11.730  18.130  0.00  0.00    +0.000 A 
ATOM     13  C   UNL     1      -5.939  11.590  17.585  0.00  0.00    +0.000 A 
ATOM     14  C   UNL     1      -7.060  12.016  18.292  0.00  0.00    +0.000 A 
ATOM     15  C   UNL     1      -6.935  12.593  19.559  0.00  0.00    +0.000 A 
ATOM     16  C   UNL     1      -5.645  12.722  20.100  0.00  0.00    +0.000 A 
ENDBRANCH   1  10
BRANCH   3  17
ATOM     17  C   UNL     1       1.452  13.228  19.525  0.00  0.00    +0.000 A 
ATOM     18  C   UNL     1       2.114  13.643  20.688  0.00  0.00    +0.000 A 
ATOM     19  C   UNL     1       3.358  14.275  20.611  0.00  0.00    +0.000 A 
ATOM     20  C   UNL     1       3.954  14.493  19.370  0.00  0.00    +0.000 A 
ATOM     21  C   UNL     1       3.300  14.096  18.206  0.00  0.00    +0.000 A 
ATOM     22  C   UNL     1       2.046  13.485  18.283  0.00  0.00    +0.000 A 
ENDBRANCH   3  17
BRANCH   4  23
ATOM     23  C   UNL     1       0.758   9.994  19.270  0.00  0.00    +0.000 A 
ATOM     24  C   UNL     1       1.332   9.751  18.021  0.00  0.00    +0.000 A 
ATOM     25  C   UNL     1       2.098   8.604  17.790  0.00  0.00    +0.000 A 
ATOM     26  C   UNL     1       2.383   7.689  18.816  0.00  0.00    +0.000 A 
ATOM     27  C   UNL     1       1.823   7.959  20.077  0.00  0.00    +0.000 A 
ATOM     28  C   UNL     1       1.009   9.079  20.298  0.00  0.00    +0.000 A 
BRANCH  26  29
ATOM     29  C   UNL     1       3.253   6.512  18.585  0.00  0.00    +0.000 A 
ATOM     30  C   UNL     1       4.094   6.435  17.458  0.00  0.00    +0.000 A 
ATOM     31  C   UNL     1       4.931   5.338  17.240  0.00  0.00    +0.000 A 
ATOM     32  C   UNL     1       4.958   4.292  18.156  0.00  0.00    +0.000 A 
ATOM     33  C   UNL     1       4.140   4.339  19.280  0.00  0.00    +0.000 A 
ATOM     34  C   UNL     1       3.290   5.431  19.484  0.00  0.00    +0.000 A 
ENDBRANCH  26  29
ENDBRANCH   4  23
TORSDOF 4
ENDMDL
