MODEL 1
REMARK VINA RESULT:      -8.4      0.000      0.000
REMARK  Name = 
REMARK  8 active torsions:
REMARK  status: ('A' for Active; 'I' for Inactive)
REMARK    1  A    between atoms: C_1  and  C_2
REMARK    2  A    between atoms: C_2  and  C_3
REMARK    3  A    between atoms: C_2  and  C_4
REMARK    4  A    between atoms: C_2  and  C_5
REMARK    5  A    between atoms: C_8  and  N_9
REMARK    6  A    between atoms: C_17  and  N_18
REMARK    7  A    between atoms: C_19  and  C_21
REMARK    8  A    between atoms: C_21  and  C_22
REMARK                            x       y       z     vdW  Elec       q    Type
REMARK                         _______ _______ _______ _____ _____    ______ ____
ROOT
ATOM      1  N   UNL     1       0.649   9.860  19.717  0.00  0.00    +0.000 N 
ATOM      2  N   UNL     1       0.843  10.369  20.962  0.00  0.00    +0.000 NA
ATOM      3  C   UNL     1      -0.065  11.336  21.089  0.00  0.00    +0.000 A 
ATOM      4  C   UNL     1      -0.921  11.431  19.976  0.00  0.00    +0.000 A 
ATOM      5  C   UNL     1      -0.449  10.460  19.110  0.00  0.00    +0.000 A 
ATOM      6  C   UNL     1      -1.116   9.994  17.883  0.00  0.00    +0.000 C 
ATOM      7  C   UNL     1      -2.478  10.659  17.640  0.00  0.00    +0.000 C 
ATOM      8  C   UNL     1      -3.044  11.693  18.638  0.00  0.00    +0.000 C 
ATOM      9  C   UNL     1      -2.174  12.211  19.808  0.00  0.00    +0.000 C 
ENDROOT
BRANCH   1  13
ATOM     10  C   UNL     1       3.205   6.717  18.335  0.00  0.00    +0.000 A 
ATOM     11  C   UNL     1       2.563   6.659  19.585  0.00  0.00    +0.000 A 
ATOM     12  C   UNL     1       1.737   7.701  20.038  0.00  0.00    +0.000 A 
ATOM     13  C   UNL     1       1.491   8.816  19.233  0.00  0.00    +0.000 A 
ATOM     14  C   UNL     1       2.103   8.886  17.980  0.00  0.00    +0.000 A 
ATOM     15  C   UNL     1       2.951   7.852  17.545  0.00  0.00    +0.000 A 
BRANCH  10  17
ATOM     16  C   UNL     1       3.512   4.292  17.494  0.00  0.00    +0.000 C 
ATOM     17  C   UNL     1       4.191   5.634  17.851  0.00  0.00    +0.000 C 
ATOM     18  C   UNL     1       5.219   5.343  18.966  0.00  0.00    +0.000 C 
ATOM     19  C   UNL     1       4.951   6.106  16.591  0.00  0.00    +0.000 C 
ENDBRANCH  10  17
ENDBRANCH   1  13
BRANCH   9  20
ATOM     20  N   UNL     1      -1.871  13.633  19.655  0.00  0.00    +0.000 N 
ATOM     21  C   UNL     1      -1.958  14.510  20.729  0.00  0.00    +0.000 C 
ATOM     22  O   UNL     1      -2.118  14.138  21.885  0.00  0.00    +0.000 OA
ATOM     23  H   UNL     1      -1.817  13.995  18.712  0.00  0.00    +0.000 HD
BRANCH  21  24
ATOM     24  C   UNL     1      -1.834  16.001  20.376  0.00  0.00    +0.000 C 
BRANCH  24  25
ATOM     25  C   UNL     1      -0.644  16.324  19.535  0.00  0.00    +0.000 A 
ATOM     26  C   UNL     1      -0.834  17.231  18.358  0.00  0.00    +0.000 A 
ATOM     27  N   UNL     1       0.081  17.732  17.587  0.00  0.00    +0.000 NA
ATOM     28  C   UNL     1       1.355  17.308  17.831  0.00  0.00    +0.000 A 
ATOM     29  N   UNL     1       2.455  17.559  17.159  0.00  0.00    +0.000 NA
ATOM     30  C   UNL     1       3.374  16.746  17.742  0.00  0.00    +0.000 A 
ATOM     31  N   UNL     1       2.957  16.073  18.820  0.00  0.00    +0.000 NA
ATOM     32  N   UNL     1       1.643  16.400  18.863  0.00  0.00    +0.000 N 
ATOM     33  C   UNL     1       0.646  15.949  19.720  0.00  0.00    +0.000 A 
ENDBRANCH  24  25
ENDBRANCH  21  24
ENDBRANCH   9  20
TORSDOF 5
ENDMDL
MODEL 2
REMARK VINA RESULT:      -8.4      3.144      5.838
REMARK  Name = 
REMARK  8 active torsions:
REMARK  status: ('A' for Active; 'I' for Inactive)
REMARK    1  A    between atoms: C_1  and  C_2
REMARK    2  A    between atoms: C_2  and  C_3
REMARK    3  A    between atoms: C_2  and  C_4
REMARK    4  A    between atoms: C_2  and  C_5
REMARK    5  A    between atoms: C_8  and  N_9
REMARK    6  A    between atoms: C_17  and  N_18
REMARK    7  A    between atoms: C_19  and  C_21
REMARK    8  A    between atoms: C_21  and  C_22
REMARK                            x       y       z     vdW  Elec       q    Type
REMARK                         _______ _______ _______ _____ _____    ______ ____
ROOT
ATOM      1  N   UNL     1       0.714  10.119  19.724  0.00  0.00    +0.000 N 
ATOM      2  N   UNL     1       0.798  11.243  18.966  0.00  0.00    +0.000 NA
ATOM      3  C   UNL     1      -0.016  12.121  19.550  0.00  0.00    +0.000 A 
ATOM      4  C   UNL     1      -0.586  11.628  20.739  0.00  0.00    +0.000 A 
ATOM      5  C   UNL     1      -0.090  10.340  20.837  0.00  0.00    +0.000 A 
ATOM      6  C   UNL     1      -0.206   9.453  22.007  0.00  0.00    +0.000 C 
ATOM      7  C   UNL     1      -0.910  10.110  23.202  0.00  0.00    +0.000 C 
ATOM      8  C   UNL     1      -1.404  11.571  23.125  0.00  0.00    +0.000 C 
ATOM      9  C   UNL     1      -1.361  12.344  21.786  0.00  0.00    +0.000 C 
ENDROOT
BRANCH   1  13
ATOM     10  C   UNL     1       2.865   6.612  18.541  0.00  0.00    +0.000 A 
ATOM     11  C   UNL     1       2.632   7.677  17.654  0.00  0.00    +0.000 A 
ATOM     12  C   UNL     1       1.913   8.819  18.045  0.00  0.00    +0.000 A 
ATOM     13  C   UNL     1       1.442   8.950  19.354  0.00  0.00    +0.000 A 
ATOM     14  C   UNL     1       1.678   7.913  20.258  0.00  0.00    +0.000 A 
ATOM     15  C   UNL     1       2.375   6.761  19.852  0.00  0.00    +0.000 A 
BRANCH  10  17
ATOM     16  C   UNL     1       4.578   5.495  16.961  0.00  0.00    +0.000 C 
ATOM     17  C   UNL     1       3.569   5.307  18.116  0.00  0.00    +0.000 C 
ATOM     18  C   UNL     1       2.510   4.289  17.636  0.00  0.00    +0.000 C 
ATOM     19  C   UNL     1       4.345   4.689  19.299  0.00  0.00    +0.000 C 
ENDBRANCH  10  17
ENDBRANCH   1  13
BRANCH   9  20
ATOM     20  N   UNL     1      -2.708  12.646  21.303  0.00  0.00    +0.000 N 
ATOM     21  C   UNL     1      -3.041  13.912  20.837  0.00  0.00    +0.000 C 
ATOM     22  O   UNL     1      -2.211  14.791  20.636  0.00  0.00    +0.000 OA
ATOM     23  H   UNL     1      -3.438  11.984  21.527  0.00  0.00    +0.000 HD
BRANCH  21  24
ATOM     24  C   UNL     1      -4.537  14.147  20.578  0.00  0.00    +0.000 C 
BRANCH  24  25
ATOM     25  C   UNL     1      -5.304  12.897  20.299  0.00  0.00    +0.000 A 
ATOM     26  C   UNL     1      -5.107  12.227  18.975  0.00  0.00    +0.000 A 
ATOM     27  N   UNL     1      -5.574  11.079  18.590  0.00  0.00    +0.000 NA
ATOM     28  C   UNL     1      -6.411  10.458  19.470  0.00  0.00    +0.000 A 
ATOM     29  N   UNL     1      -7.104   9.353  19.314  0.00  0.00    +0.000 NA
ATOM     30  C   UNL     1      -7.883   9.310  20.427  0.00  0.00    +0.000 A 
ATOM     31  N   UNL     1      -7.649  10.259  21.340  0.00  0.00    +0.000 NA
ATOM     32  N   UNL     1      -6.726  11.028  20.713  0.00  0.00    +0.000 N 
ATOM     33  C   UNL     1      -6.142  12.221  21.123  0.00  0.00    +0.000 A 
ENDBRANCH  24  25
ENDBRANCH  21  24
ENDBRANCH   9  20
TORSDOF 5
ENDMDL
MODEL 3
REMARK VINA RESULT:      -8.3      0.292      1.183
REMARK  Name = 
REMARK  8 active torsions:
REMARK  status: ('A' for Active; 'I' for Inactive)
REMARK    1  A    between atoms: C_1  and  C_2
REMARK    2  A    between atoms: C_2  and  C_3
REMARK    3  A    between atoms: C_2  and  C_4
REMARK    4  A    between atoms: C_2  and  C_5
REMARK    5  A    between atoms: C_8  and  N_9
REMARK    6  A    between atoms: C_17  and  N_18
REMARK    7  A    between atoms: C_19  and  C_21
REMARK    8  A    between atoms: C_21  and  C_22
REMARK                            x       y       z     vdW  Elec       q    Type
REMARK                         _______ _______ _______ _____ _____    ______ ____
ROOT
ATOM      1  N   UNL     1       0.547  10.060  19.917  0.00  0.00    +0.000 N 
ATOM      2  N   UNL     1       0.750  10.621  21.137  0.00  0.00    +0.000 NA
ATOM      3  C   UNL     1      -0.152  11.598  21.227  0.00  0.00    +0.000 A 
ATOM      4  C   UNL     1      -1.014  11.648  20.114  0.00  0.00    +0.000 A 
ATOM      5  C   UNL     1      -0.551  10.639  19.289  0.00  0.00    +0.000 A 
ATOM      6  C   UNL     1      -1.226  10.124  18.086  0.00  0.00    +0.000 C 
ATOM      7  C   UNL     1      -2.586  10.785  17.821  0.00  0.00    +0.000 C 
ATOM      8  C   UNL     1      -3.142  11.864  18.777  0.00  0.00    +0.000 C 
ATOM      9  C   UNL     1      -2.264  12.427  19.919  0.00  0.00    +0.000 C 
ENDROOT
BRANCH   1  13
ATOM     10  C   UNL     1       3.022   6.861  18.514  0.00  0.00    +0.000 A 
ATOM     11  C   UNL     1       2.777   8.007  17.738  0.00  0.00    +0.000 A 
ATOM     12  C   UNL     1       1.953   9.047  18.199  0.00  0.00    +0.000 A 
ATOM     13  C   UNL     1       1.382   8.992  19.473  0.00  0.00    +0.000 A 
ATOM     14  C   UNL     1       1.626   7.871  20.269  0.00  0.00    +0.000 A 
ATOM     15  C   UNL     1       2.430   6.821  19.790  0.00  0.00    +0.000 A 
BRANCH  10  17
ATOM     16  C   UNL     1       4.684   5.982  16.741  0.00  0.00    +0.000 C 
ATOM     17  C   UNL     1       3.845   5.663  18.000  0.00  0.00    +0.000 C 
ATOM     18  C   UNL     1       2.888   4.507  17.629  0.00  0.00    +0.000 C 
ATOM     19  C   UNL     1       4.826   5.162  19.083  0.00  0.00    +0.000 C 
ENDBRANCH  10  17
ENDBRANCH   1  13
BRANCH   9  20
ATOM     20  N   UNL     1      -1.954  13.840  19.704  0.00  0.00    +0.000 N 
ATOM     21  C   UNL     1      -2.063  14.768  20.732  0.00  0.00    +0.000 C 
ATOM     22  O   UNL     1      -2.248  14.453  21.901  0.00  0.00    +0.000 OA
ATOM     23  H   UNL     1      -1.880  14.156  18.746  0.00  0.00    +0.000 HD
BRANCH  21  24
ATOM     24  C   UNL     1      -1.927  16.240  20.309  0.00  0.00    +0.000 C 
BRANCH  24  25
ATOM     25  C   UNL     1      -0.729  16.516  19.464  0.00  0.00    +0.000 A 
ATOM     26  C   UNL     1      -0.898  17.393  18.261  0.00  0.00    +0.000 A 
ATOM     27  N   UNL     1       0.029  17.854  17.479  0.00  0.00    +0.000 NA
ATOM     28  C   UNL     1       1.293  17.414  17.741  0.00  0.00    +0.000 A 
ATOM     29  N   UNL     1       2.401  17.626  17.066  0.00  0.00    +0.000 NA
ATOM     30  C   UNL     1       3.303  16.814  17.676  0.00  0.00    +0.000 A 
ATOM     31  N   UNL     1       2.870  16.181  18.771  0.00  0.00    +0.000 NA
ATOM     32  N   UNL     1       1.561  16.532  18.799  0.00  0.00    +0.000 N 
ATOM     33  C   UNL     1       0.553  16.124  19.664  0.00  0.00    +0.000 A 
ENDBRANCH  24  25
ENDBRANCH  21  24
ENDBRANCH   9  20
TORSDOF 5
ENDMDL
MODEL 4
REMARK VINA RESULT:      -8.1      3.158      5.527
REMARK  Name = 
REMARK  8 active torsions:
REMARK  status: ('A' for Active; 'I' for Inactive)
REMARK    1  A    between atoms: C_1  and  C_2
REMARK    2  A    between atoms: C_2  and  C_3
REMARK    3  A    between atoms: C_2  and  C_4
REMARK    4  A    between atoms: C_2  and  C_5
REMARK    5  A    between atoms: C_8  and  N_9
REMARK    6  A    between atoms: C_17  and  N_18
REMARK    7  A    between atoms: C_19  and  C_21
REMARK    8  A    between atoms: C_21  and  C_22
REMARK                            x       y       z     vdW  Elec       q    Type
REMARK                         _______ _______ _______ _____ _____    ______ ____
ROOT
ATOM      1  N   UNL     1       1.045   9.830  19.686  0.00  0.00    +0.000 N 
ATOM      2  N   UNL     1       1.284  10.981  19.005  0.00  0.00    +0.000 NA
ATOM      3  C   UNL     1       0.556  11.910  19.624  0.00  0.00    +0.000 A 
ATOM      4  C   UNL     1      -0.107  11.415  20.762  0.00  0.00    +0.000 A 
ATOM      5  C   UNL     1       0.234  10.074  20.788  0.00  0.00    +0.000 A 
ATOM      6  C   UNL     1      -0.024   9.135  21.894  0.00  0.00    +0.000 C 
ATOM      7  C   UNL     1      -0.689   9.794  23.110  0.00  0.00    +0.000 C 
ATOM      8  C   UNL     1      -1.009  11.305  23.116  0.00  0.00    +0.000 C 
ATOM      9  C   UNL     1      -0.831  12.150  21.832  0.00  0.00    +0.000 C 
ENDROOT
BRANCH   1  13
ATOM     10  C   UNL     1       2.889   6.162  18.473  0.00  0.00    +0.000 A 
ATOM     11  C   UNL     1       2.465   6.379  19.795  0.00  0.00    +0.000 A 
ATOM     12  C   UNL     1       1.873   7.591  20.189  0.00  0.00    +0.000 A 
ATOM     13  C   UNL     1       1.646   8.609  19.259  0.00  0.00    +0.000 A 
ATOM     14  C   UNL     1       2.043   8.407  17.936  0.00  0.00    +0.000 A 
ATOM     15  C   UNL     1       2.660   7.203  17.555  0.00  0.00    +0.000 A 
BRANCH  10  17
ATOM     16  C   UNL     1       4.412   4.194  19.171  0.00  0.00    +0.000 C 
ATOM     17  C   UNL     1       3.626   4.881  18.031  0.00  0.00    +0.000 C 
ATOM     18  C   UNL     1       4.644   5.233  16.923  0.00  0.00    +0.000 C 
ATOM     19  C   UNL     1       2.632   3.838  17.474  0.00  0.00    +0.000 C 
ENDBRANCH  10  17
ENDBRANCH   1  13
BRANCH   9  20
ATOM     20  N   UNL     1      -2.116  12.637  21.333  0.00  0.00    +0.000 N 
ATOM     21  C   UNL     1      -2.305  13.975  21.008  0.00  0.00    +0.000 C 
ATOM     22  O   UNL     1      -1.387  14.784  20.946  0.00  0.00    +0.000 OA
ATOM     23  H   UNL     1      -2.916  12.029  21.446  0.00  0.00    +0.000 HD
BRANCH  21  24
ATOM     24  C   UNL     1      -3.757  14.384  20.717  0.00  0.00    +0.000 C 
BRANCH  24  25
ATOM     25  C   UNL     1      -4.695  13.230  20.588  0.00  0.00    +0.000 A 
ATOM     26  C   UNL     1      -5.537  12.868  21.773  0.00  0.00    +0.000 A 
ATOM     27  N   UNL     1      -6.493  11.993  21.828  0.00  0.00    +0.000 NA
ATOM     28  C   UNL     1      -6.691  11.263  20.692  0.00  0.00    +0.000 A 
ATOM     29  N   UNL     1      -7.504  10.252  20.488  0.00  0.00    +0.000 NA
ATOM     30  C   UNL     1      -7.155   9.811  19.251  0.00  0.00    +0.000 A 
ATOM     31  N   UNL     1      -6.246  10.548  18.604  0.00  0.00    +0.000 NA
ATOM     32  N   UNL     1      -5.911  11.466  19.542  0.00  0.00    +0.000 N 
ATOM     33  C   UNL     1      -4.950  12.469  19.496  0.00  0.00    +0.000 A 
ENDBRANCH  24  25
ENDBRANCH  21  24
ENDBRANCH   9  20
TORSDOF 5
ENDMDL
MODEL 5
REMARK VINA RESULT:      -8.1      3.470      5.801
REMARK  Name = 
REMARK  8 active torsions:
REMARK  status: ('A' for Active; 'I' for Inactive)
REMARK    1  A    between atoms: C_1  and  C_2
REMARK    2  A    between atoms: C_2  and  C_3
REMARK    3  A    between atoms: C_2  and  C_4
REMARK    4  A    between atoms: C_2  and  C_5
REMARK    5  A    between atoms: C_8  and  N_9
REMARK    6  A    between atoms: C_17  and  N_18
REMARK    7  A    between atoms: C_19  and  C_21
REMARK    8  A    between atoms: C_21  and  C_22
REMARK                            x       y       z     vdW  Elec       q    Type
REMARK                         _______ _______ _______ _____ _____    ______ ____
ROOT
ATOM      1  N   UNL     1       1.443   9.117  19.165  0.00  0.00    +0.000 N 
ATOM      2  N   UNL     1       1.584  10.190  18.345  0.00  0.00    +0.000 NA
ATOM      3  C   UNL     1       0.710  11.091  18.793  0.00  0.00    +0.000 A 
ATOM      4  C   UNL     1       0.039  10.667  19.956  0.00  0.00    +0.000 A 
ATOM      5  C   UNL     1       0.538   9.397  20.184  0.00  0.00    +0.000 A 
ATOM      6  C   UNL     1       0.326   8.586  21.395  0.00  0.00    +0.000 C 
ATOM      7  C   UNL     1      -0.492   9.307  22.475  0.00  0.00    +0.000 C 
ATOM      8  C   UNL     1      -0.993  10.752  22.256  0.00  0.00    +0.000 C 
ATOM      9  C   UNL     1      -0.836  11.436  20.878  0.00  0.00    +0.000 C 
ENDROOT
BRANCH   1  13
ATOM     10  C   UNL     1       3.748   5.589  18.415  0.00  0.00    +0.000 A 
ATOM     11  C   UNL     1       3.817   6.715  17.577  0.00  0.00    +0.000 A 
ATOM     12  C   UNL     1       3.047   7.865  17.821  0.00  0.00    +0.000 A 
ATOM     13  C   UNL     1       2.215   7.939  18.941  0.00  0.00    +0.000 A 
ATOM     14  C   UNL     1       2.144   6.840  19.798  0.00  0.00    +0.000 A 
ATOM     15  C   UNL     1       2.897   5.682  19.531  0.00  0.00    +0.000 A 
BRANCH  10  17
ATOM     16  C   UNL     1       3.616   3.164  17.530  0.00  0.00    +0.000 C 
ATOM     17  C   UNL     1       4.508   4.280  18.121  0.00  0.00    +0.000 C 
ATOM     18  C   UNL     1       5.111   3.733  19.435  0.00  0.00    +0.000 C 
ATOM     19  C   UNL     1       5.655   4.522  17.116  0.00  0.00    +0.000 C 
ENDBRANCH  10  17
ENDBRANCH   1  13
BRANCH   9  20
ATOM     20  N   UNL     1      -2.136  11.684  20.256  0.00  0.00    +0.000 N 
ATOM     21  C   UNL     1      -2.705  12.952  20.251  0.00  0.00    +0.000 C 
ATOM     22  O   UNL     1      -2.099  13.958  20.598  0.00  0.00    +0.000 OA
ATOM     23  H   UNL     1      -2.704  10.876  20.035  0.00  0.00    +0.000 HD
BRANCH  21  24
ATOM     24  C   UNL     1      -4.163  13.018  19.769  0.00  0.00    +0.000 C 
BRANCH  24  25
ATOM     25  C   UNL     1      -5.165  12.997  20.875  0.00  0.00    +0.000 A 
ATOM     26  C   UNL     1      -6.189  11.904  20.881  0.00  0.00    +0.000 A 
ATOM     27  N   UNL     1      -7.056  11.635  21.808  0.00  0.00    +0.000 NA
ATOM     28  C   UNL     1      -7.088  12.507  22.857  0.00  0.00    +0.000 A 
ATOM     29  N   UNL     1      -7.916  12.548  23.875  0.00  0.00    +0.000 NA
ATOM     30  C   UNL     1      -7.593  13.712  24.498  0.00  0.00    +0.000 A 
ATOM     31  N   UNL     1      -6.533  14.362  24.006  0.00  0.00    +0.000 NA
ATOM     32  N   UNL     1      -6.223  13.611  22.922  0.00  0.00    +0.000 N 
ATOM     33  C   UNL     1      -5.253  13.820  21.948  0.00  0.00    +0.000 A 
ENDBRANCH  24  25
ENDBRANCH  21  24
ENDBRANCH   9  20
TORSDOF 5
ENDMDL
MODEL 6
REMARK VINA RESULT:      -8.0      3.352      5.791
REMARK  Name = 
REMARK  8 active torsions:
REMARK  status: ('A' for Active; 'I' for Inactive)
REMARK    1  A    between atoms: C_1  and  C_2
REMARK    2  A    between atoms: C_2  and  C_3
REMARK    3  A    between atoms: C_2  and  C_4
REMARK    4  A    between atoms: C_2  and  C_5
REMARK    5  A    between atoms: C_8  and  N_9
REMARK    6  A    between atoms: C_17  and  N_18
REMARK    7  A    between atoms: C_19  and  C_21
REMARK    8  A    between atoms: C_21  and  C_22
REMARK                            x       y       z     vdW  Elec       q    Type
REMARK                         _______ _______ _______ _____ _____    ______ ____
ROOT
ATOM      1  N   UNL     1       1.446   9.150  19.466  0.00  0.00    +0.000 N 
ATOM      2  N   UNL     1       1.715  10.233  18.693  0.00  0.00    +0.000 NA
ATOM      3  C   UNL     1       0.991  11.223  19.214  0.00  0.00    +0.000 A 
ATOM      4  C   UNL     1       0.299  10.838  20.378  0.00  0.00    +0.000 A 
ATOM      5  C   UNL     1       0.618   9.500  20.527  0.00  0.00    +0.000 A 
ATOM      6  C   UNL     1       0.326   8.665  21.705  0.00  0.00    +0.000 C 
ATOM      7  C   UNL     1      -0.350   9.437  22.846  0.00  0.00    +0.000 C 
ATOM      8  C   UNL     1      -0.647  10.947  22.714  0.00  0.00    +0.000 C 
ATOM      9  C   UNL     1      -0.432  11.673  21.366  0.00  0.00    +0.000 C 
ENDROOT
BRANCH   1  13
ATOM     10  C   UNL     1       3.200   5.375  18.467  0.00  0.00    +0.000 A 
ATOM     11  C   UNL     1       3.367   6.510  17.657  0.00  0.00    +0.000 A 
ATOM     12  C   UNL     1       2.777   7.743  17.983  0.00  0.00    +0.000 A 
ATOM     13  C   UNL     1       2.036   7.888  19.158  0.00  0.00    +0.000 A 
ATOM     14  C   UNL     1       1.872   6.778  19.989  0.00  0.00    +0.000 A 
ATOM     15  C   UNL     1       2.442   5.540  19.641  0.00  0.00    +0.000 A 
BRANCH  10  17
ATOM     16  C   UNL     1       4.562   3.311  19.222  0.00  0.00    +0.000 C 
ATOM     17  C   UNL     1       3.756   3.987  18.089  0.00  0.00    +0.000 C 
ATOM     18  C   UNL     1       4.705   4.130  16.877  0.00  0.00    +0.000 C 
ATOM     19  C   UNL     1       2.613   3.021  17.708  0.00  0.00    +0.000 C 
ENDBRANCH  10  17
ENDBRANCH   1  13
BRANCH   9  20
ATOM     20  N   UNL     1      -1.700  12.134  20.802  0.00  0.00    +0.000 N 
ATOM     21  C   UNL     1      -1.999  13.487  20.705  0.00  0.00    +0.000 C 
ATOM     22  O   UNL     1      -1.176  14.370  20.913  0.00  0.00    +0.000 OA
ATOM     23  H   UNL     1      -2.435  11.447  20.697  0.00  0.00    +0.000 HD
BRANCH  21  24
ATOM     24  C   UNL     1      -3.447  13.816  20.308  0.00  0.00    +0.000 C 
BRANCH  24  25
ATOM     25  C   UNL     1      -4.462  13.376  21.309  0.00  0.00    +0.000 A 
ATOM     26  C   UNL     1      -4.305  13.838  22.725  0.00  0.00    +0.000 A 
ATOM     27  N   UNL     1      -5.136  13.676  23.709  0.00  0.00    +0.000 NA
ATOM     28  C   UNL     1      -6.238  12.922  23.431  0.00  0.00    +0.000 A 
ATOM     29  N   UNL     1      -7.186  12.509  24.242  0.00  0.00    +0.000 NA
ATOM     30  C   UNL     1      -7.915  11.662  23.470  0.00  0.00    +0.000 A 
ATOM     31  N   UNL     1      -7.560  11.594  22.183  0.00  0.00    +0.000 NA
ATOM     32  N   UNL     1      -6.453  12.375  22.156  0.00  0.00    +0.000 N 
ATOM     33  C   UNL     1      -5.581  12.638  21.107  0.00  0.00    +0.000 A 
ENDBRANCH  24  25
ENDBRANCH  21  24
ENDBRANCH   9  20
TORSDOF 5
ENDMDL
MODEL 7
REMARK VINA RESULT:      -7.9      3.225      5.653
REMARK  Name = 
REMARK  8 active torsions:
REMARK  status: ('A' for Active; 'I' for Inactive)
REMARK    1  A    between atoms: C_1  and  C_2
REMARK    2  A    between atoms: C_2  and  C_3
REMARK    3  A    between atoms: C_2  and  C_4
REMARK    4  A    between atoms: C_2  and  C_5
REMARK    5  A    between atoms: C_8  and  N_9
REMARK    6  A    between atoms: C_17  and  N_18
REMARK    7  A    between atoms: C_19  and  C_21
REMARK    8  A    between atoms: C_21  and  C_22
REMARK                            x       y       z     vdW  Elec       q    Type
REMARK                         _______ _______ _______ _____ _____    ______ ____
ROOT
ATOM      1  N   UNL     1       0.869   9.748  19.808  0.00  0.00    +0.000 N 
ATOM      2  N   UNL     1       1.034  10.825  18.997  0.00  0.00    +0.000 NA
ATOM      3  C   UNL     1       0.261  11.777  19.518  0.00  0.00    +0.000 A 
ATOM      4  C   UNL     1      -0.361  11.378  20.717  0.00  0.00    +0.000 A 
ATOM      5  C   UNL     1       0.057  10.071  20.890  0.00  0.00    +0.000 A 
ATOM      6  C   UNL     1      -0.134   9.252  22.099  0.00  0.00    +0.000 C 
ATOM      7  C   UNL     1      -0.822  10.008  23.244  0.00  0.00    +0.000 C 
ATOM      8  C   UNL     1      -1.229  11.489  23.083  0.00  0.00    +0.000 C 
ATOM      9  C   UNL     1      -1.114  12.190  21.708  0.00  0.00    +0.000 C 
ENDROOT
BRANCH   1  13
ATOM     10  C   UNL     1       2.892   6.063  18.996  0.00  0.00    +0.000 A 
ATOM     11  C   UNL     1       2.196   6.281  20.198  0.00  0.00    +0.000 A 
ATOM     12  C   UNL     1       1.546   7.498  20.463  0.00  0.00    +0.000 A 
ATOM     13  C   UNL     1       1.535   8.522  19.512  0.00  0.00    +0.000 A 
ATOM     14  C   UNL     1       2.204   8.321  18.304  0.00  0.00    +0.000 A 
ATOM     15  C   UNL     1       2.876   7.110  18.056  0.00  0.00    +0.000 A 
BRANCH  10  17
ATOM     16  C   UNL     1       3.279   3.581  19.605  0.00  0.00    +0.000 C 
ATOM     17  C   UNL     1       3.693   4.776  18.715  0.00  0.00    +0.000 C 
ATOM     18  C   UNL     1       5.193   5.040  18.974  0.00  0.00    +0.000 C 
ATOM     19  C   UNL     1       3.518   4.328  17.247  0.00  0.00    +0.000 C 
ENDBRANCH  10  17
ENDBRANCH   1  13
BRANCH   9  20
ATOM     20  N   UNL     1      -2.430  12.544  21.180  0.00  0.00    +0.000 N 
ATOM     21  C   UNL     1      -2.677  13.799  20.636  0.00  0.00    +0.000 C 
ATOM     22  O   UNL     1      -1.792  14.613  20.404  0.00  0.00    +0.000 OA
ATOM     23  H   UNL     1      -3.204  11.940  21.424  0.00  0.00    +0.000 HD
BRANCH  21  24
ATOM     24  C   UNL     1      -4.151  14.108  20.332  0.00  0.00    +0.000 C 
BRANCH  24  25
ATOM     25  C   UNL     1      -4.985  12.893  20.092  0.00  0.00    +0.000 A 
ATOM     26  C   UNL     1      -4.832  12.177  18.785  0.00  0.00    +0.000 A 
ATOM     27  N   UNL     1      -5.361  11.045  18.434  0.00  0.00    +0.000 NA
ATOM     28  C   UNL     1      -6.223  10.493  19.336  0.00  0.00    +0.000 A 
ATOM     29  N   UNL     1      -6.975   9.422  19.215  0.00  0.00    +0.000 NA
ATOM     30  C   UNL     1      -7.746   9.450  20.333  0.00  0.00    +0.000 A 
ATOM     31  N   UNL     1      -7.456  10.410  21.218  0.00  0.00    +0.000 NA
ATOM     32  N   UNL     1      -6.499  11.113  20.565  0.00  0.00    +0.000 N 
ATOM     33  C   UNL     1      -5.851  12.284  20.939  0.00  0.00    +0.000 A 
ENDBRANCH  24  25
ENDBRANCH  21  24
ENDBRANCH   9  20
TORSDOF 5
ENDMDL
MODEL 8
REMARK VINA RESULT:      -7.9      1.491      2.148
REMARK  Name = 
REMARK  8 active torsions:
REMARK  status: ('A' for Active; 'I' for Inactive)
REMARK    1  A    between atoms: C_1  and  C_2
REMARK    2  A    between atoms: C_2  and  C_3
REMARK    3  A    between atoms: C_2  and  C_4
REMARK    4  A    between atoms: C_2  and  C_5
REMARK    5  A    between atoms: C_8  and  N_9
REMARK    6  A    between atoms: C_17  and  N_18
REMARK    7  A    between atoms: C_19  and  C_21
REMARK    8  A    between atoms: C_21  and  C_22
REMARK                            x       y       z     vdW  Elec       q    Type
REMARK                         _______ _______ _______ _____ _____    ______ ____
ROOT
ATOM      1  N   UNL     1       1.370   8.593  20.420  0.00  0.00    +0.000 N 
ATOM      2  N   UNL     1       1.493   8.799  21.756  0.00  0.00    +0.000 NA
ATOM      3  C   UNL     1       0.965  10.003  21.974  0.00  0.00    +0.000 A 
ATOM      4  C   UNL     1       0.415  10.575  20.811  0.00  0.00    +0.000 A 
ATOM      5  C   UNL     1       0.677   9.641  19.825  0.00  0.00    +0.000 A 
ATOM      6  C   UNL     1       0.131   9.648  18.457  0.00  0.00    +0.000 C 
ATOM      7  C   UNL     1      -0.850  10.799  18.199  0.00  0.00    +0.000 C 
ATOM      8  C   UNL     1      -1.202  11.806  19.316  0.00  0.00    +0.000 C 
ATOM      9  C   UNL     1      -0.441  11.781  20.662  0.00  0.00    +0.000 C 
ENDROOT
BRANCH   1  13
ATOM     10  C   UNL     1       2.912   4.976  18.726  0.00  0.00    +0.000 A 
ATOM     11  C   UNL     1       2.208   4.987  19.943  0.00  0.00    +0.000 A 
ATOM     12  C   UNL     1       1.717   6.179  20.500  0.00  0.00    +0.000 A 
ATOM     13  C   UNL     1       1.877   7.396  19.832  0.00  0.00    +0.000 A 
ATOM     14  C   UNL     1       2.557   7.407  18.612  0.00  0.00    +0.000 A 
ATOM     15  C   UNL     1       3.070   6.213  18.075  0.00  0.00    +0.000 A 
BRANCH  10  17
ATOM     16  C   UNL     1       4.538   3.974  16.985  0.00  0.00    +0.000 C 
ATOM     17  C   UNL     1       3.544   3.699  18.137  0.00  0.00    +0.000 C 
ATOM     18  C   UNL     1       2.429   2.791  17.570  0.00  0.00    +0.000 C 
ATOM     19  C   UNL     1       4.314   2.914  19.221  0.00  0.00    +0.000 C 
ENDBRANCH  10  17
ENDBRANCH   1  13
BRANCH   9  20
ATOM     20  N   UNL     1       0.355  12.994  20.845  0.00  0.00    +0.000 N 
ATOM     21  C   UNL     1       0.048  13.917  21.838  0.00  0.00    +0.000 C 
ATOM     22  O   UNL     1      -0.775  13.702  22.719  0.00  0.00    +0.000 OA
ATOM     23  H   UNL     1       0.985  13.251  20.097  0.00  0.00    +0.000 HD
BRANCH  21  24
ATOM     24  C   UNL     1       0.822  15.243  21.769  0.00  0.00    +0.000 C 
BRANCH  24  25
ATOM     25  C   UNL     1       0.616  15.995  20.496  0.00  0.00    +0.000 A 
ATOM     26  C   UNL     1      -0.789  16.232  20.034  0.00  0.00    +0.000 A 
ATOM     27  N   UNL     1      -1.183  16.964  19.038  0.00  0.00    +0.000 NA
ATOM     28  C   UNL     1      -0.190  17.507  18.276  0.00  0.00    +0.000 A 
ATOM     29  N   UNL     1      -0.284  18.196  17.161  0.00  0.00    +0.000 NA
ATOM     30  C   UNL     1       1.008  18.323  16.759  0.00  0.00    +0.000 A 
ATOM     31  N   UNL     1       1.931  17.856  17.607  0.00  0.00    +0.000 NA
ATOM     32  N   UNL     1       1.165  17.292  18.572  0.00  0.00    +0.000 N 
ATOM     33  C   UNL     1       1.547  16.569  19.696  0.00  0.00    +0.000 A 
ENDBRANCH  24  25
ENDBRANCH  21  24
ENDBRANCH   9  20
TORSDOF 5
ENDMDL
MODEL 9
REMARK VINA RESULT:      -7.9      3.290      5.705
REMARK  Name = 
REMARK  8 active torsions:
REMARK  status: ('A' for Active; 'I' for Inactive)
REMARK    1  A    between atoms: C_1  and  C_2
REMARK    2  A    between atoms: C_2  and  C_3
REMARK    3  A    between atoms: C_2  and  C_4
REMARK    4  A    between atoms: C_2  and  C_5
REMARK    5  A    between atoms: C_8  and  N_9
REMARK    6  A    between atoms: C_17  and  N_18
REMARK    7  A    between atoms: C_19  and  C_21
REMARK    8  A    between atoms: C_21  and  C_22
REMARK                            x       y       z     vdW  Elec       q    Type
REMARK                         _______ _______ _______ _____ _____    ______ ____
ROOT
ATOM      1  N   UNL     1       1.167   9.541  19.809  0.00  0.00    +0.000 N 
ATOM      2  N   UNL     1       1.581  10.622  19.101  0.00  0.00    +0.000 NA
ATOM      3  C   UNL     1       0.899  11.651  19.602  0.00  0.00    +0.000 A 
ATOM      4  C   UNL     1       0.088  11.287  20.694  0.00  0.00    +0.000 A 
ATOM      5  C   UNL     1       0.288   9.924  20.817  0.00  0.00    +0.000 A 
ATOM      6  C   UNL     1      -0.162   9.079  21.936  0.00  0.00    +0.000 C 
ATOM      7  C   UNL     1      -0.863   9.867  23.050  0.00  0.00    +0.000 C 
ATOM      8  C   UNL     1      -1.028  11.400  22.953  0.00  0.00    +0.000 C 
ATOM      9  C   UNL     1      -0.650  12.148  21.654  0.00  0.00    +0.000 C 
ENDROOT
BRANCH   1  13
ATOM     10  C   UNL     1       2.729   5.647  18.956  0.00  0.00    +0.000 A 
ATOM     11  C   UNL     1       2.156   5.963  20.200  0.00  0.00    +0.000 A 
ATOM     12  C   UNL     1       1.658   7.247  20.478  0.00  0.00    +0.000 A 
ATOM     13  C   UNL     1       1.678   8.245  19.500  0.00  0.00    +0.000 A 
ATOM     14  C   UNL     1       2.224   7.949  18.251  0.00  0.00    +0.000 A 
ATOM     15  C   UNL     1       2.746   6.670  17.989  0.00  0.00    +0.000 A 
BRANCH  10  17
ATOM     16  C   UNL     1       3.536   3.992  17.142  0.00  0.00    +0.000 C 
ATOM     17  C   UNL     1       3.368   4.277  18.652  0.00  0.00    +0.000 C 
ATOM     18  C   UNL     1       2.475   3.157  19.231  0.00  0.00    +0.000 C 
ATOM     19  C   UNL     1       4.770   4.169  19.292  0.00  0.00    +0.000 C 
ENDBRANCH  10  17
ENDBRANCH   1  13
BRANCH   9  20
ATOM     20  N   UNL     1      -1.830  12.728  21.012  0.00  0.00    +0.000 N 
ATOM     21  C   UNL     1      -2.270  14.007  21.331  0.00  0.00    +0.000 C 
ATOM     22  O   UNL     1      -1.621  14.786  22.018  0.00  0.00    +0.000 OA
ATOM     23  H   UNL     1      -2.438  12.098  20.507  0.00  0.00    +0.000 HD
BRANCH  21  24
ATOM     24  C   UNL     1      -3.640  14.396  20.753  0.00  0.00    +0.000 C 
BRANCH  24  25
ATOM     25  C   UNL     1      -4.717  13.400  21.033  0.00  0.00    +0.000 A 
ATOM     26  C   UNL     1      -5.189  13.247  22.446  0.00  0.00    +0.000 A 
ATOM     27  N   UNL     1      -6.189  12.541  22.876  0.00  0.00    +0.000 NA
ATOM     28  C   UNL     1      -6.825  11.786  21.934  0.00  0.00    +0.000 A 
ATOM     29  N   UNL     1      -7.790  10.907  22.090  0.00  0.00    +0.000 NA
ATOM     30  C   UNL     1      -7.905  10.344  20.859  0.00  0.00    +0.000 A 
ATOM     31  N   UNL     1      -7.152  10.887  19.896  0.00  0.00    +0.000 NA
ATOM     32  N   UNL     1      -6.422  11.794  20.589  0.00  0.00    +0.000 N 
ATOM     33  C   UNL     1      -5.398  12.626  20.153  0.00  0.00    +0.000 A 
ENDBRANCH  24  25
ENDBRANCH  21  24
ENDBRANCH   9  20
TORSDOF 5
ENDMDL
