MODEL 1
REMARK VINA RESULT:      -8.4      0.000      0.000
REMARK  Name = 
REMARK  8 active torsions:
REMARK  status: ('A' for Active; 'I' for Inactive)
REMARK    1  A    between atoms: C_2  and  O_3
REMARK    2  A    between atoms: C_2  and  C_4
REMARK    3  A    between atoms: C_7  and  C_8
REMARK    4  A    between atoms: C_8  and  N_9
REMARK    5  A    between atoms: C_15  and  N_16
REMARK    6  A    between atoms: N_16  and  C_17
REMARK    7  A    between atoms: C_20  and  C_21
REMARK    8  A    between atoms: C_21  and  C_22
REMARK                            x       y       z     vdW  Elec       q    Type
REMARK                         _______ _______ _______ _____ _____    ______ ____
ROOT
ATOM      1  N   UNL     1      -1.305  12.928  20.462  0.00  0.00    +0.000 NA
ATOM      2  C   UNL     1      -1.731  11.664  19.861  0.00  0.00    +0.000 C 
ATOM      3  C   UNL     1      -1.580  11.986  18.369  0.00  0.00    +0.000 C 
ATOM      4  C   UNL     1      -0.482  13.052  18.319  0.00  0.00    +0.000 C 
ATOM      5  C   UNL     1      -0.041  13.215  19.780  0.00  0.00    +0.000 C 
ATOM      6  C   UNL     1       1.082  12.222  20.116  0.00  0.00    +0.000 C 
ATOM      7  C   UNL     1       0.677  10.734  20.006  0.00  0.00    +0.000 C 
ATOM      8  C   UNL     1      -0.825  10.504  20.277  0.00  0.00    +0.000 C 
ENDROOT
BRANCH   7   9
ATOM      9  N   UNL     1       1.066  10.167  18.692  0.00  0.00    +0.000 N 
ATOM     10  H   UNL     1       1.560  10.833  18.100  0.00  0.00    +0.000 HD
BRANCH   9  11
ATOM     11  C   UNL     1       1.751   8.934  18.697  0.00  0.00    +0.000 A 
ATOM     12  C   UNL     1       2.553   8.499  17.635  0.00  0.00    +0.000 A 
ATOM     13  C   UNL     1       3.178   7.254  17.648  0.00  0.00    +0.000 A 
ATOM     14  C   UNL     1       3.029   6.402  18.740  0.00  0.00    +0.000 A 
ATOM     15  C   UNL     1       2.344   6.872  19.866  0.00  0.00    +0.000 A 
ATOM     16  C   UNL     1       1.724   8.131  19.846  0.00  0.00    +0.000 A 
BRANCH  14  17
ATOM     17  C   UNL     1       3.579   5.000  18.672  0.00  0.00    +0.000 C 
BRANCH  17  18
ATOM     18  C   UNL     1       4.988   4.914  18.153  0.00  0.00    +0.000 A 
ATOM     19  C   UNL     1       6.053   5.399  18.915  0.00  0.00    +0.000 A 
ATOM     20  C   UNL     1       7.334   5.312  18.394  0.00  0.00    +0.000 A 
ATOM     21  N   UNL     1       7.622   4.789  17.184  0.00  0.00    +0.000 NA
ATOM     22  C   UNL     1       6.579   4.334  16.462  0.00  0.00    +0.000 A 
ATOM     23  C   UNL     1       5.263   4.369  16.894  0.00  0.00    +0.000 A 
ENDBRANCH  17  18
ENDBRANCH  14  17
ENDBRANCH   9  11
ENDBRANCH   7   9
BRANCH   1  24
ATOM     24  C   UNL     1      -1.361  13.028  21.924  0.00  0.00    +0.000 C 
BRANCH  24  28
ATOM     25  C   UNL     1      -5.413  12.737  23.493  0.00  0.00    +0.000 A 
ATOM     26  C   UNL     1      -5.213  13.176  22.180  0.00  0.00    +0.000 A 
ATOM     27  C   UNL     1      -3.908  13.284  21.671  0.00  0.00    +0.000 A 
ATOM     28  C   UNL     1      -2.794  12.959  22.468  0.00  0.00    +0.000 A 
ATOM     29  C   UNL     1      -3.031  12.468  23.762  0.00  0.00    +0.000 A 
ATOM     30  C   UNL     1      -4.323  12.363  24.276  0.00  0.00    +0.000 A 
BRANCH  25  32
ATOM     31  O   UNL     1      -7.488  11.640  23.913  0.00  0.00    +0.000 OA
ATOM     32  C   UNL     1      -6.790  12.631  24.031  0.00  0.00    +0.000 C 
BRANCH  32  33
ATOM     33  O   UNL     1      -7.197  13.767  24.639  0.00  0.00    +0.000 OA
ATOM     34  H   UNL     1      -7.360  13.678  25.596  0.00  0.00    +0.000 HD
ENDBRANCH  32  33
ENDBRANCH  25  32
ENDBRANCH  24  28
ENDBRANCH   1  24
TORSDOF 8
ENDMDL
MODEL 2
REMARK VINA RESULT:      -8.3      0.198      1.032
REMARK  Name = 
REMARK  8 active torsions:
REMARK  status: ('A' for Active; 'I' for Inactive)
REMARK    1  A    between atoms: C_2  and  O_3
REMARK    2  A    between atoms: C_2  and  C_4
REMARK    3  A    between atoms: C_7  and  C_8
REMARK    4  A    between atoms: C_8  and  N_9
REMARK    5  A    between atoms: C_15  and  N_16
REMARK    6  A    between atoms: N_16  and  C_17
REMARK    7  A    between atoms: C_20  and  C_21
REMARK    8  A    between atoms: C_21  and  C_22
REMARK                            x       y       z     vdW  Elec       q    Type
REMARK                         _______ _______ _______ _____ _____    ______ ____
ROOT
ATOM      1  N   UNL     1      -1.437  12.948  20.383  0.00  0.00    +0.000 NA
ATOM      2  C   UNL     1      -1.856  11.653  19.848  0.00  0.00    +0.000 C 
ATOM      3  C   UNL     1      -1.717  11.903  18.341  0.00  0.00    +0.000 C 
ATOM      4  C   UNL     1      -0.628  12.974  18.232  0.00  0.00    +0.000 C 
ATOM      5  C   UNL     1      -0.179  13.211  19.680  0.00  0.00    +0.000 C 
ATOM      6  C   UNL     1       0.954  12.244  20.056  0.00  0.00    +0.000 C 
ATOM      7  C   UNL     1       0.561  10.750  20.021  0.00  0.00    +0.000 C 
ATOM      8  C   UNL     1      -0.938  10.522  20.314  0.00  0.00    +0.000 C 
ENDROOT
BRANCH   7   9
ATOM      9  N   UNL     1       0.946  10.122  18.735  0.00  0.00    +0.000 N 
ATOM     10  H   UNL     1       1.411  10.768  18.099  0.00  0.00    +0.000 HD
BRANCH   9  11
ATOM     11  C   UNL     1       1.666   8.911  18.796  0.00  0.00    +0.000 A 
ATOM     12  C   UNL     1       2.514   8.472  17.771  0.00  0.00    +0.000 A 
ATOM     13  C   UNL     1       3.174   7.247  17.838  0.00  0.00    +0.000 A 
ATOM     14  C   UNL     1       3.017   6.422  18.950  0.00  0.00    +0.000 A 
ATOM     15  C   UNL     1       2.283   6.902  20.040  0.00  0.00    +0.000 A 
ATOM     16  C   UNL     1       1.628   8.141  19.966  0.00  0.00    +0.000 A 
BRANCH  14  17
ATOM     17  C   UNL     1       3.610   5.036  18.939  0.00  0.00    +0.000 C 
BRANCH  17  18
ATOM     18  C   UNL     1       4.968   4.951  18.297  0.00  0.00    +0.000 A 
ATOM     19  C   UNL     1       6.098   5.415  18.972  0.00  0.00    +0.000 A 
ATOM     20  C   UNL     1       7.329   5.330  18.339  0.00  0.00    +0.000 A 
ATOM     21  N   UNL     1       7.506   4.826  17.100  0.00  0.00    +0.000 NA
ATOM     22  C   UNL     1       6.401   4.391  16.464  0.00  0.00    +0.000 A 
ATOM     23  C   UNL     1       5.128   4.426  17.010  0.00  0.00    +0.000 A 
ENDBRANCH  17  18
ENDBRANCH  14  17
ENDBRANCH   9  11
ENDBRANCH   7   9
BRANCH   1  24
ATOM     24  C   UNL     1      -1.484  13.119  21.839  0.00  0.00    +0.000 C 
BRANCH  24  28
ATOM     25  C   UNL     1      -5.531  12.873  23.428  0.00  0.00    +0.000 A 
ATOM     26  C   UNL     1      -4.471  12.322  24.156  0.00  0.00    +0.000 A 
ATOM     27  C   UNL     1      -3.164  12.387  23.643  0.00  0.00    +0.000 A 
ATOM     28  C   UNL     1      -2.906  12.998  22.403  0.00  0.00    +0.000 A 
ATOM     29  C   UNL     1      -3.983  13.591  21.724  0.00  0.00    +0.000 A 
ATOM     30  C   UNL     1      -5.283  13.527  22.223  0.00  0.00    +0.000 A 
BRANCH  25  32
ATOM     31  O   UNL     1      -7.542  13.766  24.347  0.00  0.00    +0.000 OA
ATOM     32  C   UNL     1      -6.910  12.798  23.967  0.00  0.00    +0.000 C 
BRANCH  32  33
ATOM     33  O   UNL     1      -7.376  11.530  24.018  0.00  0.00    +0.000 OA
ATOM     34  H   UNL     1      -6.692  10.854  24.179  0.00  0.00    +0.000 HD
ENDBRANCH  32  33
ENDBRANCH  25  32
ENDBRANCH  24  28
ENDBRANCH   1  24
TORSDOF 8
ENDMDL
MODEL 3
REMARK VINA RESULT:      -8.1      5.495     11.844
REMARK  Name = 
REMARK  8 active torsions:
REMARK  status: ('A' for Active; 'I' for Inactive)
REMARK    1  A    between atoms: C_2  and  O_3
REMARK    2  A    between atoms: C_2  and  C_4
REMARK    3  A    between atoms: C_7  and  C_8
REMARK    4  A    between atoms: C_8  and  N_9
REMARK    5  A    between atoms: C_15  and  N_16
REMARK    6  A    between atoms: N_16  and  C_17
REMARK    7  A    between atoms: C_20  and  C_21
REMARK    8  A    between atoms: C_21  and  C_22
REMARK                            x       y       z     vdW  Elec       q    Type
REMARK                         _______ _______ _______ _____ _____    ______ ____
ROOT
ATOM      1  N   UNL     1       3.626   4.045  18.297  0.00  0.00    +0.000 NA
ATOM      2  C   UNL     1       2.938   5.208  17.736  0.00  0.00    +0.000 C 
ATOM      3  C   UNL     1       1.484   4.720  17.749  0.00  0.00    +0.000 C 
ATOM      4  C   UNL     1       1.434   3.708  18.897  0.00  0.00    +0.000 C 
ATOM      5  C   UNL     1       2.846   3.740  19.497  0.00  0.00    +0.000 C 
ATOM      6  C   UNL     1       2.942   4.817  20.589  0.00  0.00    +0.000 C 
ATOM      7  C   UNL     1       2.710   6.261  20.086  0.00  0.00    +0.000 C 
ATOM      8  C   UNL     1       3.119   6.451  18.610  0.00  0.00    +0.000 C 
ENDROOT
BRANCH   7   9
ATOM      9  N   UNL     1       1.306   6.687  20.302  0.00  0.00    +0.000 N 
ATOM     10  H   UNL     1       0.801   6.084  20.950  0.00  0.00    +0.000 HD
BRANCH   9  11
ATOM     11  C   UNL     1       1.085   8.039  20.636  0.00  0.00    +0.000 A 
ATOM     12  C   UNL     1       0.983   8.495  21.956  0.00  0.00    +0.000 A 
ATOM     13  C   UNL     1       0.714   9.829  22.255  0.00  0.00    +0.000 A 
ATOM     14  C   UNL     1       0.551  10.760  21.232  0.00  0.00    +0.000 A 
ATOM     15  C   UNL     1       0.782  10.353  19.913  0.00  0.00    +0.000 A 
ATOM     16  C   UNL     1       1.059   9.008  19.624  0.00  0.00    +0.000 A 
BRANCH  14  17
ATOM     17  C   UNL     1       0.107  12.162  21.565  0.00  0.00    +0.000 C 
BRANCH  17  18
ATOM     18  C   UNL     1      -1.362  12.289  21.864  0.00  0.00    +0.000 A 
ATOM     19  C   UNL     1      -1.828  12.181  23.176  0.00  0.00    +0.000 A 
ATOM     20  C   UNL     1      -3.190  12.292  23.406  0.00  0.00    +0.000 A 
ATOM     21  N   UNL     1      -4.105  12.494  22.435  0.00  0.00    +0.000 NA
ATOM     22  C   UNL     1      -3.634  12.588  21.176  0.00  0.00    +0.000 A 
ATOM     23  C   UNL     1      -2.293  12.497  20.841  0.00  0.00    +0.000 A 
ENDBRANCH  17  18
ENDBRANCH  14  17
ENDBRANCH   9  11
ENDBRANCH   7   9
BRANCH   1  24
ATOM     24  C   UNL     1       5.088   4.116  18.400  0.00  0.00    +0.000 C 
BRANCH  24  28
ATOM     25  C   UNL     1       7.000   4.799  14.548  0.00  0.00    +0.000 A 
ATOM     26  C   UNL     1       5.968   3.860  14.647  0.00  0.00    +0.000 A 
ATOM     27  C   UNL     1       5.355   3.625  15.889  0.00  0.00    +0.000 A 
ATOM     28  C   UNL     1       5.767   4.323  17.040  0.00  0.00    +0.000 A 
ATOM     29  C   UNL     1       6.767   5.299  16.896  0.00  0.00    +0.000 A 
ATOM     30  C   UNL     1       7.383   5.534  15.668  0.00  0.00    +0.000 A 
BRANCH  25  32
ATOM     31  O   UNL     1       7.330   4.477  12.209  0.00  0.00    +0.000 OA
ATOM     32  C   UNL     1       7.651   5.041  13.238  0.00  0.00    +0.000 C 
BRANCH  32  33
ATOM     33  O   UNL     1       8.663   5.933  13.320  0.00  0.00    +0.000 OA
ATOM     34  H   UNL     1       9.547   5.561  13.142  0.00  0.00    +0.000 HD
ENDBRANCH  32  33
ENDBRANCH  25  32
ENDBRANCH  24  28
ENDBRANCH   1  24
TORSDOF 8
ENDMDL
MODEL 4
REMARK VINA RESULT:      -7.9      0.528      1.307
REMARK  Name = 
REMARK  8 active torsions:
REMARK  status: ('A' for Active; 'I' for Inactive)
REMARK    1  A    between atoms: C_2  and  O_3
REMARK    2  A    between atoms: C_2  and  C_4
REMARK    3  A    between atoms: C_7  and  C_8
REMARK    4  A    between atoms: C_8  and  N_9
REMARK    5  A    between atoms: C_15  and  N_16
REMARK    6  A    between atoms: N_16  and  C_17
REMARK    7  A    between atoms: C_20  and  C_21
REMARK    8  A    between atoms: C_21  and  C_22
REMARK                            x       y       z     vdW  Elec       q    Type
REMARK                         _______ _______ _______ _____ _____    ______ ____
ROOT
ATOM      1  N   UNL     1      -1.049  12.709  20.725  0.00  0.00    +0.000 NA
ATOM      2  C   UNL     1      -1.470  11.523  19.978  0.00  0.00    +0.000 C 
ATOM      3  C   UNL     1      -1.107  11.939  18.546  0.00  0.00    +0.000 C 
ATOM      4  C   UNL     1       0.050  12.926  18.719  0.00  0.00    +0.000 C 
ATOM      5  C   UNL     1       0.307  12.954  20.231  0.00  0.00    +0.000 C 
ATOM      6  C   UNL     1       1.315  11.863  20.625  0.00  0.00    +0.000 C 
ATOM      7  C   UNL     1       0.839  10.419  20.347  0.00  0.00    +0.000 C 
ATOM      8  C   UNL     1      -0.697  10.276  20.410  0.00  0.00    +0.000 C 
ENDROOT
BRANCH   7   9
ATOM      9  N   UNL     1       1.360   9.920  19.052  0.00  0.00    +0.000 N 
ATOM     10  H   UNL     1       2.006  10.569  18.605  0.00  0.00    +0.000 HD
BRANCH   9  11
ATOM     11  C   UNL     1       1.899   8.617  19.030  0.00  0.00    +0.000 A 
ATOM     12  C   UNL     1       1.701   7.689  20.060  0.00  0.00    +0.000 A 
ATOM     13  C   UNL     1       2.288   6.426  20.034  0.00  0.00    +0.000 A 
ATOM     14  C   UNL     1       3.088   6.043  18.960  0.00  0.00    +0.000 A 
ATOM     15  C   UNL     1       3.188   6.903  17.861  0.00  0.00    +0.000 A 
ATOM     16  C   UNL     1       2.587   8.171  17.894  0.00  0.00    +0.000 A 
BRANCH  14  17
ATOM     17  C   UNL     1       3.841   4.738  19.019  0.00  0.00    +0.000 C 
BRANCH  17  18
ATOM     18  C   UNL     1       5.169   4.759  18.313  0.00  0.00    +0.000 A 
ATOM     19  C   UNL     1       6.301   5.267  18.953  0.00  0.00    +0.000 A 
ATOM     20  C   UNL     1       7.503   5.279  18.262  0.00  0.00    +0.000 A 
ATOM     21  N   UNL     1       7.650   4.833  16.997  0.00  0.00    +0.000 NA
ATOM     22  C   UNL     1       6.543   4.355  16.396  0.00  0.00    +0.000 A 
ATOM     23  C   UNL     1       5.298   4.293  17.000  0.00  0.00    +0.000 A 
ENDBRANCH  17  18
ENDBRANCH  14  17
ENDBRANCH   9  11
ENDBRANCH   7   9
BRANCH   1  24
ATOM     24  C   UNL     1      -1.289  12.709  22.172  0.00  0.00    +0.000 C 
BRANCH  24  28
ATOM     25  C   UNL     1      -5.521  13.036  23.140  0.00  0.00    +0.000 A 
ATOM     26  C   UNL     1      -4.618  12.636  24.131  0.00  0.00    +0.000 A 
ATOM     27  C   UNL     1      -3.252  12.517  23.822  0.00  0.00    +0.000 A 
ATOM     28  C   UNL     1      -2.779  12.792  22.526  0.00  0.00    +0.000 A 
ATOM     29  C   UNL     1      -3.703  13.244  21.569  0.00  0.00    +0.000 A 
ATOM     30  C   UNL     1      -5.060  13.361  21.866  0.00  0.00    +0.000 A 
BRANCH  25  32
ATOM     31  O   UNL     1      -7.857  12.885  22.684  0.00  0.00    +0.000 OA
ATOM     32  C   UNL     1      -6.963  13.155  23.465  0.00  0.00    +0.000 C 
BRANCH  32  33
ATOM     33  O   UNL     1      -7.175  13.626  24.713  0.00  0.00    +0.000 OA
ATOM     34  H   UNL     1      -6.757  13.101  25.421  0.00  0.00    +0.000 HD
ENDBRANCH  32  33
ENDBRANCH  25  32
ENDBRANCH  24  28
ENDBRANCH   1  24
TORSDOF 8
ENDMDL
MODEL 5
REMARK VINA RESULT:      -7.8      5.390     11.797
REMARK  Name = 
REMARK  8 active torsions:
REMARK  status: ('A' for Active; 'I' for Inactive)
REMARK    1  A    between atoms: C_2  and  O_3
REMARK    2  A    between atoms: C_2  and  C_4
REMARK    3  A    between atoms: C_7  and  C_8
REMARK    4  A    between atoms: C_8  and  N_9
REMARK    5  A    between atoms: C_15  and  N_16
REMARK    6  A    between atoms: N_16  and  C_17
REMARK    7  A    between atoms: C_20  and  C_21
REMARK    8  A    between atoms: C_21  and  C_22
REMARK                            x       y       z     vdW  Elec       q    Type
REMARK                         _______ _______ _______ _____ _____    ______ ____
ROOT
ATOM      1  N   UNL     1       3.391   4.051  18.861  0.00  0.00    +0.000 NA
ATOM      2  C   UNL     1       2.648   5.072  18.122  0.00  0.00    +0.000 C 
ATOM      3  C   UNL     1       1.224   4.504  18.195  0.00  0.00    +0.000 C 
ATOM      4  C   UNL     1       1.210   3.677  19.483  0.00  0.00    +0.000 C 
ATOM      5  C   UNL     1       2.606   3.884  20.086  0.00  0.00    +0.000 C 
ATOM      6  C   UNL     1       2.618   5.119  21.001  0.00  0.00    +0.000 C 
ATOM      7  C   UNL     1       2.312   6.453  20.282  0.00  0.00    +0.000 C 
ATOM      8  C   UNL     1       2.738   6.441  18.798  0.00  0.00    +0.000 C 
ENDROOT
BRANCH   7   9
ATOM      9  N   UNL     1       0.883   6.821  20.415  0.00  0.00    +0.000 N 
ATOM     10  H   UNL     1       0.334   6.120  20.912  0.00  0.00    +0.000 HD
BRANCH   9  11
ATOM     11  C   UNL     1       0.589   8.104  20.922  0.00  0.00    +0.000 A 
ATOM     12  C   UNL     1      -0.074   8.313  22.137  0.00  0.00    +0.000 A 
ATOM     13  C   UNL     1      -0.394   9.592  22.589  0.00  0.00    +0.000 A 
ATOM     14  C   UNL     1      -0.045  10.712  21.838  0.00  0.00    +0.000 A 
ATOM     15  C   UNL     1       0.734  10.531  20.691  0.00  0.00    +0.000 A 
ATOM     16  C   UNL     1       1.058   9.239  20.248  0.00  0.00    +0.000 A 
BRANCH  14  17
ATOM     17  C   UNL     1      -0.535  12.074  22.260  0.00  0.00    +0.000 C 
BRANCH  17  18
ATOM     18  C   UNL     1      -1.980  12.338  21.937  0.00  0.00    +0.000 A 
ATOM     19  C   UNL     1      -2.396  12.462  20.610  0.00  0.00    +0.000 A 
ATOM     20  C   UNL     1      -3.735  12.718  20.357  0.00  0.00    +0.000 A 
ATOM     21  N   UNL     1      -4.670  12.861  21.319  0.00  0.00    +0.000 NA
ATOM     22  C   UNL     1      -4.245  12.744  22.592  0.00  0.00    +0.000 A 
ATOM     23  C   UNL     1      -2.933  12.484  22.951  0.00  0.00    +0.000 A 
ENDBRANCH  17  18
ENDBRANCH  14  17
ENDBRANCH   9  11
ENDBRANCH   7   9
BRANCH   1  24
ATOM     24  C   UNL     1       4.844   4.225  18.967  0.00  0.00    +0.000 C 
BRANCH  24  28
ATOM     25  C   UNL     1       6.763   4.783  15.099  0.00  0.00    +0.000 A 
ATOM     26  C   UNL     1       7.171   5.560  16.188  0.00  0.00    +0.000 A 
ATOM     27  C   UNL     1       6.548   5.394  17.436  0.00  0.00    +0.000 A 
ATOM     28  C   UNL     1       5.513   4.455  17.606  0.00  0.00    +0.000 A 
ATOM     29  C   UNL     1       5.165   3.652  16.508  0.00  0.00    +0.000 A 
ATOM     30  C   UNL     1       5.775   3.814  15.265  0.00  0.00    +0.000 A 
BRANCH  25  32
ATOM     31  O   UNL     1       8.294   5.779  13.567  0.00  0.00    +0.000 OA
ATOM     32  C   UNL     1       7.416   4.964  13.780  0.00  0.00    +0.000 C 
BRANCH  32  33
ATOM     33  O   UNL     1       6.905   4.146  12.833  0.00  0.00    +0.000 OA
ATOM     34  H   UNL     1       7.224   3.225  12.879  0.00  0.00    +0.000 HD
ENDBRANCH  32  33
ENDBRANCH  25  32
ENDBRANCH  24  28
ENDBRANCH   1  24
TORSDOF 8
ENDMDL
MODEL 6
REMARK VINA RESULT:      -7.8      6.043     11.473
REMARK  Name = 
REMARK  8 active torsions:
REMARK  status: ('A' for Active; 'I' for Inactive)
REMARK    1  A    between atoms: C_2  and  O_3
REMARK    2  A    between atoms: C_2  and  C_4
REMARK    3  A    between atoms: C_7  and  C_8
REMARK    4  A    between atoms: C_8  and  N_9
REMARK    5  A    between atoms: C_15  and  N_16
REMARK    6  A    between atoms: N_16  and  C_17
REMARK    7  A    between atoms: C_20  and  C_21
REMARK    8  A    between atoms: C_21  and  C_22
REMARK                            x       y       z     vdW  Elec       q    Type
REMARK                         _______ _______ _______ _____ _____    ______ ____
ROOT
ATOM      1  N   UNL     1       3.621   3.987  18.245  0.00  0.00    +0.000 NA
ATOM      2  C   UNL     1       2.961   5.171  17.696  0.00  0.00    +0.000 C 
ATOM      3  C   UNL     1       1.492   4.728  17.732  0.00  0.00    +0.000 C 
ATOM      4  C   UNL     1       1.428   3.716  18.879  0.00  0.00    +0.000 C 
ATOM      5  C   UNL     1       2.850   3.703  19.457  0.00  0.00    +0.000 C 
ATOM      6  C   UNL     1       2.996   4.775  20.549  0.00  0.00    +0.000 C 
ATOM      7  C   UNL     1       2.801   6.226  20.052  0.00  0.00    +0.000 C 
ATOM      8  C   UNL     1       3.193   6.406  18.569  0.00  0.00    +0.000 C 
ENDROOT
BRANCH   7   9
ATOM      9  N   UNL     1       1.415   6.695  20.289  0.00  0.00    +0.000 N 
ATOM     10  H   UNL     1       0.932   6.163  21.012  0.00  0.00    +0.000 HD
BRANCH   9  11
ATOM     11  C   UNL     1       1.227   8.076  20.508  0.00  0.00    +0.000 A 
ATOM     12  C   UNL     1       1.155   8.646  21.784  0.00  0.00    +0.000 A 
ATOM     13  C   UNL     1       0.919  10.006  21.969  0.00  0.00    +0.000 A 
ATOM     14  C   UNL     1       0.761  10.849  20.872  0.00  0.00    +0.000 A 
ATOM     15  C   UNL     1       0.962  10.324  19.591  0.00  0.00    +0.000 A 
ATOM     16  C   UNL     1       1.207   8.953  19.415  0.00  0.00    +0.000 A 
BRANCH  14  17
ATOM     17  C   UNL     1       0.351  12.284  21.087  0.00  0.00    +0.000 C 
BRANCH  17  18
ATOM     18  C   UNL     1       1.227  13.288  20.388  0.00  0.00    +0.000 A 
ATOM     19  C   UNL     1       0.711  14.085  19.365  0.00  0.00    +0.000 A 
ATOM     20  C   UNL     1       1.556  14.988  18.739  0.00  0.00    +0.000 A 
ATOM     21  N   UNL     1       2.859  15.145  19.053  0.00  0.00    +0.000 NA
ATOM     22  C   UNL     1       3.338  14.360  20.038  0.00  0.00    +0.000 A 
ATOM     23  C   UNL     1       2.576  13.432  20.730  0.00  0.00    +0.000 A 
ENDBRANCH  17  18
ENDBRANCH  14  17
ENDBRANCH   9  11
ENDBRANCH   7   9
BRANCH   1  24
ATOM     24  C   UNL     1       5.086   4.012  18.326  0.00  0.00    +0.000 C 
BRANCH  24  28
ATOM     25  C   UNL     1       6.980   4.772  14.480  0.00  0.00    +0.000 A 
ATOM     26  C   UNL     1       7.418   5.467  15.611  0.00  0.00    +0.000 A 
ATOM     27  C   UNL     1       6.803   5.236  16.853  0.00  0.00    +0.000 A 
ATOM     28  C   UNL     1       5.747   4.314  16.975  0.00  0.00    +0.000 A 
ATOM     29  C   UNL     1       5.368   3.592  15.831  0.00  0.00    +0.000 A 
ATOM     30  C   UNL     1       5.970   3.819  14.594  0.00  0.00    +0.000 A 
BRANCH  25  32
ATOM     31  O   UNL     1       7.301   4.462  12.137  0.00  0.00    +0.000 OA
ATOM     32  C   UNL     1       7.625   5.022  13.168  0.00  0.00    +0.000 C 
BRANCH  32  33
ATOM     33  O   UNL     1       8.634   5.917  13.250  0.00  0.00    +0.000 OA
ATOM     34  H   UNL     1       8.406   6.814  12.942  0.00  0.00    +0.000 HD
ENDBRANCH  32  33
ENDBRANCH  25  32
ENDBRANCH  24  28
ENDBRANCH   1  24
TORSDOF 8
ENDMDL
MODEL 7
REMARK VINA RESULT:      -7.8      1.909      2.660
REMARK  Name = 
REMARK  8 active torsions:
REMARK  status: ('A' for Active; 'I' for Inactive)
REMARK    1  A    between atoms: C_2  and  O_3
REMARK    2  A    between atoms: C_2  and  C_4
REMARK    3  A    between atoms: C_7  and  C_8
REMARK    4  A    between atoms: C_8  and  N_9
REMARK    5  A    between atoms: C_15  and  N_16
REMARK    6  A    between atoms: N_16  and  C_17
REMARK    7  A    between atoms: C_20  and  C_21
REMARK    8  A    between atoms: C_21  and  C_22
REMARK                            x       y       z     vdW  Elec       q    Type
REMARK                         _______ _______ _______ _____ _____    ______ ____
ROOT
ATOM      1  N   UNL     1      -1.857  12.412  19.650  0.00  0.00    +0.000 NA
ATOM      2  C   UNL     1      -1.648  10.964  19.638  0.00  0.00    +0.000 C 
ATOM      3  C   UNL     1      -1.863  10.654  18.151  0.00  0.00    +0.000 C 
ATOM      4  C   UNL     1      -1.477  11.949  17.432  0.00  0.00    +0.000 C 
ATOM      5  C   UNL     1      -1.008  12.884  18.554  0.00  0.00    +0.000 C 
ATOM      6  C   UNL     1       0.495  12.702  18.813  0.00  0.00    +0.000 C 
ATOM      7  C   UNL     1       0.895  11.291  19.303  0.00  0.00    +0.000 C 
ATOM      8  C   UNL     1      -0.235  10.591  20.088  0.00  0.00    +0.000 C 
ENDROOT
BRANCH   7   9
ATOM      9  N   UNL     1       1.357  10.442  18.179  0.00  0.00    +0.000 N 
ATOM     10  H   UNL     1       1.999  10.925  17.551  0.00  0.00    +0.000 HD
BRANCH   9  11
ATOM     11  C   UNL     1       1.871   9.168  18.499  0.00  0.00    +0.000 A 
ATOM     12  C   UNL     1       1.637   8.534  19.725  0.00  0.00    +0.000 A 
ATOM     13  C   UNL     1       2.199   7.297  20.032  0.00  0.00    +0.000 A 
ATOM     14  C   UNL     1       3.009   6.643  19.107  0.00  0.00    +0.000 A 
ATOM     15  C   UNL     1       3.146   7.195  17.829  0.00  0.00    +0.000 A 
ATOM     16  C   UNL     1       2.569   8.439  17.527  0.00  0.00    +0.000 A 
BRANCH  14  17
ATOM     17  C   UNL     1       3.735   5.384  19.510  0.00  0.00    +0.000 C 
BRANCH  17  18
ATOM     18  C   UNL     1       2.897   4.137  19.435  0.00  0.00    +0.000 A 
ATOM     19  C   UNL     1       2.302   3.615  20.585  0.00  0.00    +0.000 A 
ATOM     20  C   UNL     1       1.549   2.457  20.474  0.00  0.00    +0.000 A 
ATOM     21  N   UNL     1       1.355   1.792  19.315  0.00  0.00    +0.000 NA
ATOM     22  C   UNL     1       1.944   2.310  18.220  0.00  0.00    +0.000 A 
ATOM     23  C   UNL     1       2.711   3.463  18.223  0.00  0.00    +0.000 A 
ENDBRANCH  17  18
ENDBRANCH  14  17
ENDBRANCH   9  11
ENDBRANCH   7   9
BRANCH   1  24
ATOM     24  C   UNL     1      -1.780  13.089  20.950  0.00  0.00    +0.000 C 
BRANCH  24  28
ATOM     25  C   UNL     1      -5.479  12.791  23.226  0.00  0.00    +0.000 A 
ATOM     26  C   UNL     1      -4.253  12.671  23.888  0.00  0.00    +0.000 A 
ATOM     27  C   UNL     1      -3.055  12.753  23.157  0.00  0.00    +0.000 A 
ATOM     28  C   UNL     1      -3.072  12.954  21.765  0.00  0.00    +0.000 A 
ATOM     29  C   UNL     1      -4.318  13.127  21.139  0.00  0.00    +0.000 A 
ATOM     30  C   UNL     1      -5.511  13.041  21.856  0.00  0.00    +0.000 A 
BRANCH  25  32
ATOM     31  O   UNL     1      -7.391  11.672  24.108  0.00  0.00    +0.000 OA
ATOM     32  C   UNL     1      -6.743  12.696  23.997  0.00  0.00    +0.000 C 
BRANCH  32  33
ATOM     33  O   UNL     1      -7.110  13.880  24.534  0.00  0.00    +0.000 OA
ATOM     34  H   UNL     1      -6.641  14.115  25.356  0.00  0.00    +0.000 HD
ENDBRANCH  32  33
ENDBRANCH  25  32
ENDBRANCH  24  28
ENDBRANCH   1  24
TORSDOF 8
ENDMDL
MODEL 8
REMARK VINA RESULT:      -7.7      6.190     11.363
REMARK  Name = 
REMARK  8 active torsions:
REMARK  status: ('A' for Active; 'I' for Inactive)
REMARK    1  A    between atoms: C_2  and  O_3
REMARK    2  A    between atoms: C_2  and  C_4
REMARK    3  A    between atoms: C_7  and  C_8
REMARK    4  A    between atoms: C_8  and  N_9
REMARK    5  A    between atoms: C_15  and  N_16
REMARK    6  A    between atoms: N_16  and  C_17
REMARK    7  A    between atoms: C_20  and  C_21
REMARK    8  A    between atoms: C_21  and  C_22
REMARK                            x       y       z     vdW  Elec       q    Type
REMARK                         _______ _______ _______ _____ _____    ______ ____
ROOT
ATOM      1  N   UNL     1       3.541   3.834  18.227  0.00  0.00    +0.000 NA
ATOM      2  C   UNL     1       2.967   5.083  17.727  0.00  0.00    +0.000 C 
ATOM      3  C   UNL     1       1.473   4.737  17.730  0.00  0.00    +0.000 C 
ATOM      4  C   UNL     1       1.329   3.681  18.829  0.00  0.00    +0.000 C 
ATOM      5  C   UNL     1       2.740   3.548  19.418  0.00  0.00    +0.000 C 
ATOM      6  C   UNL     1       2.943   4.558  20.558  0.00  0.00    +0.000 C 
ATOM      7  C   UNL     1       2.850   6.040  20.126  0.00  0.00    +0.000 C 
ATOM      8  C   UNL     1       3.270   6.259  18.657  0.00  0.00    +0.000 C 
ENDROOT
BRANCH   7   9
ATOM      9  N   UNL     1       1.495   6.588  20.373  0.00  0.00    +0.000 N 
ATOM     10  H   UNL     1       1.069   6.230  21.226  0.00  0.00    +0.000 HD
BRANCH   9  11
ATOM     11  C   UNL     1       1.344   7.990  20.316  0.00  0.00    +0.000 A 
ATOM     12  C   UNL     1       1.191   8.790  21.455  0.00  0.00    +0.000 A 
ATOM     13  C   UNL     1       0.993  10.166  21.365  0.00  0.00    +0.000 A 
ATOM     14  C   UNL     1       0.958  10.792  20.121  0.00  0.00    +0.000 A 
ATOM     15  C   UNL     1       1.243  10.033  18.981  0.00  0.00    +0.000 A 
ATOM     16  C   UNL     1       1.448   8.648  19.083  0.00  0.00    +0.000 A 
BRANCH  14  17
ATOM     17  C   UNL     1       0.589  12.251  20.032  0.00  0.00    +0.000 C 
BRANCH  17  18
ATOM     18  C   UNL     1       1.749  13.166  19.745  0.00  0.00    +0.000 A 
ATOM     19  C   UNL     1       2.485  13.722  20.792  0.00  0.00    +0.000 A 
ATOM     20  C   UNL     1       3.538  14.569  20.485  0.00  0.00    +0.000 A 
ATOM     21  N   UNL     1       3.898  14.899  19.227  0.00  0.00    +0.000 NA
ATOM     22  C   UNL     1       3.169  14.356  18.232  0.00  0.00    +0.000 A 
ATOM     23  C   UNL     1       2.103  13.494  18.432  0.00  0.00    +0.000 A 
ENDBRANCH  17  18
ENDBRANCH  14  17
ENDBRANCH   9  11
ENDBRANCH   7   9
BRANCH   1  24
ATOM     24  C   UNL     1       5.004   3.758  18.321  0.00  0.00    +0.000 C 
BRANCH  24  28
ATOM     25  C   UNL     1       6.994   4.757  14.580  0.00  0.00    +0.000 A 
ATOM     26  C   UNL     1       7.466   5.304  15.777  0.00  0.00    +0.000 A 
ATOM     27  C   UNL     1       6.821   4.996  16.987  0.00  0.00    +0.000 A 
ATOM     28  C   UNL     1       5.701   4.144  17.010  0.00  0.00    +0.000 A 
ATOM     29  C   UNL     1       5.287   3.567  15.798  0.00  0.00    +0.000 A 
ATOM     30  C   UNL     1       5.919   3.871  14.594  0.00  0.00    +0.000 A 
BRANCH  25  32
ATOM     31  O   UNL     1       8.517   5.957  13.191  0.00  0.00    +0.000 OA
ATOM     32  C   UNL     1       7.671   5.089  13.302  0.00  0.00    +0.000 C 
BRANCH  32  33
ATOM     33  O   UNL     1       7.221   4.342  12.270  0.00  0.00    +0.000 OA
ATOM     34  H   UNL     1       6.774   3.516  12.532  0.00  0.00    +0.000 HD
ENDBRANCH  32  33
ENDBRANCH  25  32
ENDBRANCH  24  28
ENDBRANCH   1  24
TORSDOF 8
ENDMDL
MODEL 9
REMARK VINA RESULT:      -7.7      5.558     11.767
REMARK  Name = 
REMARK  8 active torsions:
REMARK  status: ('A' for Active; 'I' for Inactive)
REMARK    1  A    between atoms: C_2  and  O_3
REMARK    2  A    between atoms: C_2  and  C_4
REMARK    3  A    between atoms: C_7  and  C_8
REMARK    4  A    between atoms: C_8  and  N_9
REMARK    5  A    between atoms: C_15  and  N_16
REMARK    6  A    between atoms: N_16  and  C_17
REMARK    7  A    between atoms: C_20  and  C_21
REMARK    8  A    between atoms: C_21  and  C_22
REMARK                            x       y       z     vdW  Elec       q    Type
REMARK                         _______ _______ _______ _____ _____    ______ ____
ROOT
ATOM      1  N   UNL     1       3.660   4.037  18.295  0.00  0.00    +0.000 NA
ATOM      2  C   UNL     1       2.924   5.209  17.820  0.00  0.00    +0.000 C 
ATOM      3  C   UNL     1       1.486   4.674  17.836  0.00  0.00    +0.000 C 
ATOM      4  C   UNL     1       1.493   3.595  18.921  0.00  0.00    +0.000 C 
ATOM      5  C   UNL     1       2.917   3.635  19.492  0.00  0.00    +0.000 C 
ATOM      6  C   UNL     1       3.006   4.649  20.644  0.00  0.00    +0.000 C 
ATOM      7  C   UNL     1       2.719   6.111  20.234  0.00  0.00    +0.000 C 
ATOM      8  C   UNL     1       3.087   6.402  18.763  0.00  0.00    +0.000 C 
ENDROOT
BRANCH   7   9
ATOM      9  N   UNL     1       1.309   6.479  20.505  0.00  0.00    +0.000 N 
ATOM     10  H   UNL     1       0.932   6.030  21.338  0.00  0.00    +0.000 HD
BRANCH   9  11
ATOM     11  C   UNL     1       0.989   7.853  20.517  0.00  0.00    +0.000 A 
ATOM     12  C   UNL     1       0.290   8.467  21.563  0.00  0.00    +0.000 A 
ATOM     13  C   UNL     1      -0.055   9.816  21.524  0.00  0.00    +0.000 A 
ATOM     14  C   UNL     1       0.305  10.604  20.433  0.00  0.00    +0.000 A 
ATOM     15  C   UNL     1       1.118  10.043  19.442  0.00  0.00    +0.000 A 
ATOM     16  C   UNL     1       1.466   8.684  19.494  0.00  0.00    +0.000 A 
BRANCH  14  17
ATOM     17  C   UNL     1      -0.210  12.018  20.333  0.00  0.00    +0.000 C 
BRANCH  17  18
ATOM     18  C   UNL     1      -1.676  12.120  20.013  0.00  0.00    +0.000 A 
ATOM     19  C   UNL     1      -2.180  11.582  18.828  0.00  0.00    +0.000 A 
ATOM     20  C   UNL     1      -3.535  11.709  18.565  0.00  0.00    +0.000 A 
ATOM     21  N   UNL     1      -4.407  12.330  19.387  0.00  0.00    +0.000 NA
ATOM     22  C   UNL     1      -3.898  12.848  20.522  0.00  0.00    +0.000 A 
ATOM     23  C   UNL     1      -2.562  12.770  20.879  0.00  0.00    +0.000 A 
ENDBRANCH  17  18
ENDBRANCH  14  17
ENDBRANCH   9  11
ENDBRANCH   7   9
BRANCH   1  24
ATOM     24  C   UNL     1       5.121   4.147  18.370  0.00  0.00    +0.000 C 
BRANCH  24  28
ATOM     25  C   UNL     1       6.961   4.782  14.476  0.00  0.00    +0.000 A 
ATOM     26  C   UNL     1       5.847   3.944  14.581  0.00  0.00    +0.000 A 
ATOM     27  C   UNL     1       5.255   3.725  15.837  0.00  0.00    +0.000 A 
ATOM     28  C   UNL     1       5.772   4.337  16.994  0.00  0.00    +0.000 A 
ATOM     29  C   UNL     1       6.857   5.216  16.846  0.00  0.00    +0.000 A 
ATOM     30  C   UNL     1       7.452   5.435  15.605  0.00  0.00    +0.000 A 
BRANCH  25  32
ATOM     31  O   UNL     1       7.257   4.421  12.137  0.00  0.00    +0.000 OA
ATOM     32  C   UNL     1       7.589   5.007  13.151  0.00  0.00    +0.000 C 
BRANCH  32  33
ATOM     33  O   UNL     1       8.594   5.910  13.202  0.00  0.00    +0.000 OA
ATOM     34  H   UNL     1       8.514   6.640  12.561  0.00  0.00    +0.000 HD
ENDBRANCH  32  33
ENDBRANCH  25  32
ENDBRANCH  24  28
ENDBRANCH   1  24
TORSDOF 8
ENDMDL
