MODEL 1
REMARK VINA RESULT:      -6.9      0.000      0.000
REMARK  Name = 
REMARK  5 active torsions:
REMARK  status: ('A' for Active; 'I' for Inactive)
REMARK    1  A    between atoms: C_1  and  O_2
REMARK    2  A    between atoms: O_2  and  C_3
REMARK    3  A    between atoms: C_10  and  C_11
REMARK    4  A    between atoms: C_13  and  C_14
REMARK    5  A    between atoms: C_14  and  N_15
REMARK                            x       y       z     vdW  Elec       q    Type
REMARK                         _______ _______ _______ _____ _____    ______ ____
ROOT
ATOM      1  C   UNL     1       2.079   6.262  19.888  0.00  0.00    +0.000 A 
ATOM      2  C   UNL     1       1.111   5.427  20.473  0.00  0.00    +0.000 A 
ATOM      3  C   UNL     1       1.083   4.068  20.192  0.00  0.00    +0.000 A 
ATOM      4  C   UNL     1       2.013   3.498  19.319  0.00  0.00    +0.000 A 
ATOM      5 CL   UNL     1       1.867   1.763  19.038  0.00  0.00    +0.000 Cl
ATOM      6  C   UNL     1       2.994   4.311  18.697  0.00  0.00    +0.000 A 
ATOM      7  C   UNL     1       3.031   5.707  19.000  0.00  0.00    +0.000 A 
ATOM      8  C   UNL     1       4.113   6.612  18.406  0.00  0.00    +0.000 C 
ATOM      9  C   UNL     1       3.520   7.529  17.317  0.00  0.00    +0.000 C 
ATOM     10  C   UNL     1       5.331   5.802  17.894  0.00  0.00    +0.000 C 
ATOM     11  C   UNL     1       4.859   4.711  16.938  0.00  0.00    +0.000 C 
ATOM     12  C   UNL     1       4.004   3.753  17.739  0.00  0.00    +0.000 C 
ATOM     13  O   UNL     1       4.172   2.548  17.632  0.00  0.00    +0.000 OA
ENDROOT
BRANCH   1  15
ATOM     14  C   UNL     1       1.434   8.241  21.170  0.00  0.00    +0.000 C 
ATOM     15  O   UNL     1       2.139   7.592  20.174  0.00  0.00    +0.000 OA
ENDBRANCH   1  15
BRANCH  11  16
ATOM     16  C   UNL     1       6.034   4.044  16.182  0.00  0.00    +0.000 C 
BRANCH  16  17
ATOM     17  N   UNL     1       6.098   4.416  14.744  0.00  0.00    +0.000 NA
ATOM     18  C   UNL     1       7.451   4.870  14.330  0.00  0.00    +0.000 C 
ATOM     19  C   UNL     1       7.456   5.281  12.853  0.00  0.00    +0.000 C 
ATOM     20  C   UNL     1       7.024   4.105  11.983  0.00  0.00    +0.000 C 
ATOM     21  C   UNL     1       5.646   3.620  12.438  0.00  0.00    +0.000 C 
ATOM     22  C   UNL     1       5.691   3.248  13.925  0.00  0.00    +0.000 C 
ENDBRANCH  16  17
ENDBRANCH  11  16
TORSDOF 3
ENDMDL
MODEL 2
REMARK VINA RESULT:      -6.6      2.872      6.745
REMARK  Name = 
REMARK  5 active torsions:
REMARK  status: ('A' for Active; 'I' for Inactive)
REMARK    1  A    between atoms: C_1  and  O_2
REMARK    2  A    between atoms: O_2  and  C_3
REMARK    3  A    between atoms: C_10  and  C_11
REMARK    4  A    between atoms: C_13  and  C_14
REMARK    5  A    between atoms: C_14  and  N_15
REMARK                            x       y       z     vdW  Elec       q    Type
REMARK                         _______ _______ _______ _____ _____    ______ ____
ROOT
ATOM      1  C   UNL     1       3.789   3.993  17.331  0.00  0.00    +0.000 A 
ATOM      2  C   UNL     1       3.652   2.677  17.804  0.00  0.00    +0.000 A 
ATOM      3  C   UNL     1       2.969   2.415  18.984  0.00  0.00    +0.000 A 
ATOM      4  C   UNL     1       2.406   3.452  19.731  0.00  0.00    +0.000 A 
ATOM      5 CL   UNL     1       1.572   2.990  21.214  0.00  0.00    +0.000 Cl
ATOM      6  C   UNL     1       2.538   4.795  19.294  0.00  0.00    +0.000 A 
ATOM      7  C   UNL     1       3.227   5.061  18.071  0.00  0.00    +0.000 A 
ATOM      8  C   UNL     1       3.337   6.486  17.525  0.00  0.00    +0.000 C 
ATOM      9  C   UNL     1       4.772   7.026  17.691  0.00  0.00    +0.000 C 
ATOM     10  C   UNL     1       2.277   7.430  18.147  0.00  0.00    +0.000 C 
ATOM     11  C   UNL     1       2.352   7.356  19.668  0.00  0.00    +0.000 C 
ATOM     12  C   UNL     1       1.969   5.947  20.067  0.00  0.00    +0.000 C 
ATOM     13  O   UNL     1       1.173   5.763  20.976  0.00  0.00    +0.000 OA
ENDROOT
BRANCH   1  15
ATOM     14  C   UNL     1       5.730   3.916  15.847  0.00  0.00    +0.000 C 
ATOM     15  O   UNL     1       4.431   4.267  16.161  0.00  0.00    +0.000 OA
ENDBRANCH   1  15
BRANCH  11  16
ATOM     16  C   UNL     1       1.517   8.465  20.353  0.00  0.00    +0.000 C 
BRANCH  16  17
ATOM     17  N   UNL     1       0.976   9.470  19.401  0.00  0.00    +0.000 NA
ATOM     18  C   UNL     1      -0.507   9.558  19.441  0.00  0.00    +0.000 C 
ATOM     19  C   UNL     1      -1.017  10.575  18.415  0.00  0.00    +0.000 C 
ATOM     20  C   UNL     1      -0.417  11.948  18.698  0.00  0.00    +0.000 C 
ATOM     21  C   UNL     1       1.109  11.843  18.689  0.00  0.00    +0.000 C 
ATOM     22  C   UNL     1       1.563  10.796  19.714  0.00  0.00    +0.000 C 
ENDBRANCH  16  17
ENDBRANCH  11  16
TORSDOF 3
ENDMDL
MODEL 3
REMARK VINA RESULT:      -6.6      4.526      6.928
REMARK  Name = 
REMARK  5 active torsions:
REMARK  status: ('A' for Active; 'I' for Inactive)
REMARK    1  A    between atoms: C_1  and  O_2
REMARK    2  A    between atoms: O_2  and  C_3
REMARK    3  A    between atoms: C_10  and  C_11
REMARK    4  A    between atoms: C_13  and  C_14
REMARK    5  A    between atoms: C_14  and  N_15
REMARK                            x       y       z     vdW  Elec       q    Type
REMARK                         _______ _______ _______ _____ _____    ______ ____
ROOT
ATOM      1  C   UNL     1      -0.800  11.923  20.002  0.00  0.00    +0.000 A 
ATOM      2  C   UNL     1      -1.268  12.290  21.275  0.00  0.00    +0.000 A 
ATOM      3  C   UNL     1      -0.965  11.523  22.392  0.00  0.00    +0.000 A 
ATOM      4  C   UNL     1      -0.192  10.365  22.276  0.00  0.00    +0.000 A 
ATOM      5 CL   UNL     1       0.117   9.473  23.765  0.00  0.00    +0.000 Cl
ATOM      6  C   UNL     1       0.285   9.953  21.005  0.00  0.00    +0.000 A 
ATOM      7  C   UNL     1      -0.015  10.753  19.860  0.00  0.00    +0.000 A 
ATOM      8  C   UNL     1       0.534  10.386  18.479  0.00  0.00    +0.000 C 
ATOM      9  C   UNL     1      -0.588   9.834  17.576  0.00  0.00    +0.000 C 
ATOM     10  C   UNL     1       1.744   9.422  18.572  0.00  0.00    +0.000 C 
ATOM     11  C   UNL     1       1.372   8.210  19.420  0.00  0.00    +0.000 C 
ATOM     12  C   UNL     1       1.104   8.710  20.823  0.00  0.00    +0.000 C 
ATOM     13  O   UNL     1       1.588   8.129  21.783  0.00  0.00    +0.000 OA
ENDROOT
BRANCH   1  15
ATOM     14  C   UNL     1      -0.418  13.847  18.544  0.00  0.00    +0.000 C 
ATOM     15  O   UNL     1      -1.064  12.679  18.900  0.00  0.00    +0.000 OA
ENDBRANCH   1  15
BRANCH  11  16
ATOM     16  C   UNL     1       2.430   7.084  19.332  0.00  0.00    +0.000 C 
BRANCH  16  17
ATOM     17  N   UNL     1       1.843   5.737  19.102  0.00  0.00    +0.000 NA
ATOM     18  C   UNL     1       2.602   4.944  18.101  0.00  0.00    +0.000 C 
ATOM     19  C   UNL     1       1.936   3.584  17.870  0.00  0.00    +0.000 C 
ATOM     20  C   UNL     1       1.859   2.811  19.182  0.00  0.00    +0.000 C 
ATOM     21  C   UNL     1       1.106   3.648  20.218  0.00  0.00    +0.000 C 
ATOM     22  C   UNL     1       1.799   5.005  20.391  0.00  0.00    +0.000 C 
ENDBRANCH  16  17
ENDBRANCH  11  16
TORSDOF 3
ENDMDL
MODEL 4
REMARK VINA RESULT:      -6.1      3.348      7.074
REMARK  Name = 
REMARK  5 active torsions:
REMARK  status: ('A' for Active; 'I' for Inactive)
REMARK    1  A    between atoms: C_1  and  O_2
REMARK    2  A    between atoms: O_2  and  C_3
REMARK    3  A    between atoms: C_10  and  C_11
REMARK    4  A    between atoms: C_13  and  C_14
REMARK    5  A    between atoms: C_14  and  N_15
REMARK                            x       y       z     vdW  Elec       q    Type
REMARK                         _______ _______ _______ _____ _____    ______ ____
ROOT
ATOM      1  C   UNL     1       3.755   3.513  18.569  0.00  0.00    +0.000 A 
ATOM      2  C   UNL     1       4.534   3.279  17.422  0.00  0.00    +0.000 A 
ATOM      3  C   UNL     1       4.854   4.317  16.558  0.00  0.00    +0.000 A 
ATOM      4  C   UNL     1       4.406   5.617  16.804  0.00  0.00    +0.000 A 
ATOM      5 CL   UNL     1       4.871   6.846  15.628  0.00  0.00    +0.000 Cl
ATOM      6  C   UNL     1       3.604   5.889  17.942  0.00  0.00    +0.000 A 
ATOM      7  C   UNL     1       3.289   4.822  18.839  0.00  0.00    +0.000 A 
ATOM      8  C   UNL     1       2.485   5.079  20.115  0.00  0.00    +0.000 C 
ATOM      9  C   UNL     1       1.054   4.516  19.981  0.00  0.00    +0.000 C 
ATOM     10  C   UNL     1       2.493   6.576  20.516  0.00  0.00    +0.000 C 
ATOM     11  C   UNL     1       2.045   7.428  19.333  0.00  0.00    +0.000 C 
ATOM     12  C   UNL     1       3.082   7.262  18.243  0.00  0.00    +0.000 C 
ATOM     13  O   UNL     1       3.513   8.243  17.655  0.00  0.00    +0.000 OA
ENDROOT
BRANCH   1  15
ATOM     14  C   UNL     1       4.306   1.987  20.398  0.00  0.00    +0.000 C 
ATOM     15  O   UNL     1       3.456   2.512  19.443  0.00  0.00    +0.000 OA
ENDBRANCH   1  15
BRANCH  11  16
ATOM     16  C   UNL     1       1.769   8.896  19.738  0.00  0.00    +0.000 C 
BRANCH  16  17
ATOM     17  N   UNL     1       0.393   9.352  19.405  0.00  0.00    +0.000 NA
ATOM     18  C   UNL     1      -0.014  10.555  20.177  0.00  0.00    +0.000 C 
ATOM     19  C   UNL     1      -1.451  10.960  19.829  0.00  0.00    +0.000 C 
ATOM     20  C   UNL     1      -1.565  11.249  18.336  0.00  0.00    +0.000 C 
ATOM     21  C   UNL     1      -1.111  10.019  17.548  0.00  0.00    +0.000 C 
ATOM     22  C   UNL     1       0.320   9.643  17.952  0.00  0.00    +0.000 C 
ENDBRANCH  16  17
ENDBRANCH  11  16
TORSDOF 3
ENDMDL
MODEL 5
REMARK VINA RESULT:      -6.0      3.652      7.033
REMARK  Name = 
REMARK  5 active torsions:
REMARK  status: ('A' for Active; 'I' for Inactive)
REMARK    1  A    between atoms: C_1  and  O_2
REMARK    2  A    between atoms: O_2  and  C_3
REMARK    3  A    between atoms: C_10  and  C_11
REMARK    4  A    between atoms: C_13  and  C_14
REMARK    5  A    between atoms: C_14  and  N_15
REMARK                            x       y       z     vdW  Elec       q    Type
REMARK                         _______ _______ _______ _____ _____    ______ ____
ROOT
ATOM      1  C   UNL     1       3.420   3.846  19.927  0.00  0.00    +0.000 A 
ATOM      2  C   UNL     1       4.328   3.134  19.125  0.00  0.00    +0.000 A 
ATOM      3  C   UNL     1       4.845   3.698  17.966  0.00  0.00    +0.000 A 
ATOM      4  C   UNL     1       4.472   4.984  17.567  0.00  0.00    +0.000 A 
ATOM      5 CL   UNL     1       5.191   5.583  16.073  0.00  0.00    +0.000 Cl
ATOM      6  C   UNL     1       3.545   5.727  18.342  0.00  0.00    +0.000 A 
ATOM      7  C   UNL     1       3.027   5.151  19.542  0.00  0.00    +0.000 A 
ATOM      8  C   UNL     1       2.077   5.940  20.446  0.00  0.00    +0.000 C 
ATOM      9  C   UNL     1       0.639   5.393  20.337  0.00  0.00    +0.000 C 
ATOM     10  C   UNL     1       2.149   7.464  20.175  0.00  0.00    +0.000 C 
ATOM     11  C   UNL     1       1.936   7.733  18.689  0.00  0.00    +0.000 C 
ATOM     12  C   UNL     1       3.097   7.103  17.950  0.00  0.00    +0.000 C 
ATOM     13  O   UNL     1       3.682   7.731  17.080  0.00  0.00    +0.000 OA
ENDROOT
BRANCH   1  15
ATOM     14  C   UNL     1       2.006   2.292  21.177  0.00  0.00    +0.000 C 
ATOM     15  O   UNL     1       2.924   3.321  21.082  0.00  0.00    +0.000 OA
ENDBRANCH   1  15
BRANCH  11  16
ATOM     16  C   UNL     1       1.724   9.237  18.388  0.00  0.00    +0.000 C 
BRANCH  16  17
ATOM     17  N   UNL     1       0.480   9.789  18.984  0.00  0.00    +0.000 NA
ATOM     18  C   UNL     1       0.721  11.028  19.769  0.00  0.00    +0.000 C 
ATOM     19  C   UNL     1      -0.582  11.535  20.396  0.00  0.00    +0.000 C 
ATOM     20  C   UNL     1      -1.612  11.813  19.306  0.00  0.00    +0.000 C 
ATOM     21  C   UNL     1      -1.830  10.543  18.482  0.00  0.00    +0.000 C 
ATOM     22  C   UNL     1      -0.493  10.067  17.900  0.00  0.00    +0.000 C 
ENDBRANCH  16  17
ENDBRANCH  11  16
TORSDOF 3
ENDMDL
MODEL 6
REMARK VINA RESULT:      -6.0      4.682      6.737
REMARK  Name = 
REMARK  5 active torsions:
REMARK  status: ('A' for Active; 'I' for Inactive)
REMARK    1  A    between atoms: C_1  and  O_2
REMARK    2  A    between atoms: O_2  and  C_3
REMARK    3  A    between atoms: C_10  and  C_11
REMARK    4  A    between atoms: C_13  and  C_14
REMARK    5  A    between atoms: C_14  and  N_15
REMARK                            x       y       z     vdW  Elec       q    Type
REMARK                         _______ _______ _______ _____ _____    ______ ____
ROOT
ATOM      1  C   UNL     1      -0.816  11.283  19.315  0.00  0.00    +0.000 A 
ATOM      2  C   UNL     1      -1.418  11.771  20.488  0.00  0.00    +0.000 A 
ATOM      3  C   UNL     1      -1.114  11.218  21.724  0.00  0.00    +0.000 A 
ATOM      4  C   UNL     1      -0.207  10.161  21.832  0.00  0.00    +0.000 A 
ATOM      5 CL   UNL     1       0.088   9.540  23.456  0.00  0.00    +0.000 Cl
ATOM      6  C   UNL     1       0.408   9.631  20.669  0.00  0.00    +0.000 A 
ATOM      7  C   UNL     1       0.106  10.212  19.400  0.00  0.00    +0.000 A 
ATOM      8  C   UNL     1       0.796   9.720  18.125  0.00  0.00    +0.000 C 
ATOM      9  C   UNL     1      -0.184   8.907  17.254  0.00  0.00    +0.000 C 
ATOM     10  C   UNL     1       2.097   8.937  18.434  0.00  0.00    +0.000 C 
ATOM     11  C   UNL     1       1.803   7.825  19.435  0.00  0.00    +0.000 C 
ATOM     12  C   UNL     1       1.375   8.486  20.727  0.00  0.00    +0.000 C 
ATOM     13  O   UNL     1       1.849   8.116  21.790  0.00  0.00    +0.000 OA
ENDROOT
BRANCH   1  15
ATOM     14  C   UNL     1      -2.270  11.727  17.400  0.00  0.00    +0.000 C 
ATOM     15  O   UNL     1      -1.081  11.832  18.097  0.00  0.00    +0.000 OA
ENDBRANCH   1  15
BRANCH  11  16
ATOM     16  C   UNL     1       2.987   6.838  19.581  0.00  0.00    +0.000 C 
BRANCH  16  17
ATOM     17  N   UNL     1       2.586   5.412  19.463  0.00  0.00    +0.000 NA
ATOM     18  C   UNL     1       1.624   4.998  20.517  0.00  0.00    +0.000 C 
ATOM     19  C   UNL     1       1.274   3.512  20.377  0.00  0.00    +0.000 C 
ATOM     20  C   UNL     1       0.671   3.245  19.002  0.00  0.00    +0.000 C 
ATOM     21  C   UNL     1       1.653   3.705  17.923  0.00  0.00    +0.000 C 
ATOM     22  C   UNL     1       1.988   5.189  18.124  0.00  0.00    +0.000 C 
ENDBRANCH  16  17
ENDBRANCH  11  16
TORSDOF 3
ENDMDL
MODEL 7
REMARK VINA RESULT:      -5.9      1.393      1.470
REMARK  Name = 
REMARK  5 active torsions:
REMARK  status: ('A' for Active; 'I' for Inactive)
REMARK    1  A    between atoms: C_1  and  O_2
REMARK    2  A    between atoms: O_2  and  C_3
REMARK    3  A    between atoms: C_10  and  C_11
REMARK    4  A    between atoms: C_13  and  C_14
REMARK    5  A    between atoms: C_14  and  N_15
REMARK                            x       y       z     vdW  Elec       q    Type
REMARK                         _______ _______ _______ _____ _____    ______ ____
ROOT
ATOM      1  C   UNL     1       1.934   5.347  20.402  0.00  0.00    +0.000 A 
ATOM      2  C   UNL     1       1.756   4.191  21.182  0.00  0.00    +0.000 A 
ATOM      3  C   UNL     1       2.637   3.123  21.079  0.00  0.00    +0.000 A 
ATOM      4  C   UNL     1       3.718   3.170  20.195  0.00  0.00    +0.000 A 
ATOM      5 CL   UNL     1       4.759   1.748  20.150  0.00  0.00    +0.000 Cl
ATOM      6  C   UNL     1       3.920   4.313  19.380  0.00  0.00    +0.000 A 
ATOM      7  C   UNL     1       3.022   5.417  19.499  0.00  0.00    +0.000 A 
ATOM      8  C   UNL     1       3.239   6.698  18.691  0.00  0.00    +0.000 C 
ATOM      9  C   UNL     1       2.195   6.813  17.560  0.00  0.00    +0.000 C 
ATOM     10  C   UNL     1       4.692   6.814  18.165  0.00  0.00    +0.000 C 
ATOM     11  C   UNL     1       5.067   5.546  17.406  0.00  0.00    +0.000 C 
ATOM     12  C   UNL     1       5.054   4.407  18.403  0.00  0.00    +0.000 C 
ATOM     13  O   UNL     1       5.979   3.609  18.432  0.00  0.00    +0.000 OA
ENDROOT
BRANCH   1  15
ATOM     14  C   UNL     1       1.341   7.569  21.232  0.00  0.00    +0.000 C 
ATOM     15  O   UNL     1       1.096   6.416  20.511  0.00  0.00    +0.000 OA
ENDBRANCH   1  15
BRANCH  11  16
ATOM     16  C   UNL     1       6.395   5.699  16.625  0.00  0.00    +0.000 C 
BRANCH  16  17
ATOM     17  N   UNL     1       6.262   5.417  15.172  0.00  0.00    +0.000 NA
ATOM     18  C   UNL     1       7.575   5.229  14.502  0.00  0.00    +0.000 C 
ATOM     19  C   UNL     1       7.388   4.982  13.001  0.00  0.00    +0.000 C 
ATOM     20  C   UNL     1       6.520   3.748  12.780  0.00  0.00    +0.000 C 
ATOM     21  C   UNL     1       5.184   3.934  13.501  0.00  0.00    +0.000 C 
ATOM     22  C   UNL     1       5.431   4.202  14.991  0.00  0.00    +0.000 C 
ENDBRANCH  16  17
ENDBRANCH  11  16
TORSDOF 3
ENDMDL
MODEL 8
REMARK VINA RESULT:      -5.9      3.458      7.630
REMARK  Name = 
REMARK  5 active torsions:
REMARK  status: ('A' for Active; 'I' for Inactive)
REMARK    1  A    between atoms: C_1  and  O_2
REMARK    2  A    between atoms: O_2  and  C_3
REMARK    3  A    between atoms: C_10  and  C_11
REMARK    4  A    between atoms: C_13  and  C_14
REMARK    5  A    between atoms: C_14  and  N_15
REMARK                            x       y       z     vdW  Elec       q    Type
REMARK                         _______ _______ _______ _____ _____    ______ ____
ROOT
ATOM      1  C   UNL     1       3.487   3.582  18.914  0.00  0.00    +0.000 A 
ATOM      2  C   UNL     1       4.313   3.242  17.828  0.00  0.00    +0.000 A 
ATOM      3  C   UNL     1       4.714   4.205  16.913  0.00  0.00    +0.000 A 
ATOM      4  C   UNL     1       4.303   5.534  17.045  0.00  0.00    +0.000 A 
ATOM      5 CL   UNL     1       4.873   6.660  15.813  0.00  0.00    +0.000 Cl
ATOM      6  C   UNL     1       3.457   5.912  18.118  0.00  0.00    +0.000 A 
ATOM      7  C   UNL     1       3.058   4.923  19.068  0.00  0.00    +0.000 A 
ATOM      8  C   UNL     1       2.202   5.296  20.280  0.00  0.00    +0.000 C 
ATOM      9  C   UNL     1       0.760   4.774  20.111  0.00  0.00    +0.000 C 
ATOM     10  C   UNL     1       2.247   6.816  20.578  0.00  0.00    +0.000 C 
ATOM     11  C   UNL     1       1.890   7.597  19.318  0.00  0.00    +0.000 C 
ATOM     12  C   UNL     1       2.973   7.320  18.297  0.00  0.00    +0.000 C 
ATOM     13  O   UNL     1       3.470   8.242  17.666  0.00  0.00    +0.000 OA
ENDROOT
BRANCH   1  15
ATOM     14  C   UNL     1       2.187   1.644  19.641  0.00  0.00    +0.000 C 
ATOM     15  O   UNL     1       3.107   2.656  19.838  0.00  0.00    +0.000 OA
ENDBRANCH   1  15
BRANCH  11  16
ATOM     16  C   UNL     1       1.650   9.100  19.605  0.00  0.00    +0.000 C 
BRANCH  16  17
ATOM     17  N   UNL     1       0.589   9.345  20.617  0.00  0.00    +0.000 NA
ATOM     18  C   UNL     1       1.095   9.254  22.012  0.00  0.00    +0.000 C 
ATOM     19  C   UNL     1      -0.042   9.474  23.016  0.00  0.00    +0.000 C 
ATOM     20  C   UNL     1      -0.680  10.841  22.791  0.00  0.00    +0.000 C 
ATOM     21  C   UNL     1      -1.167  10.939  21.345  0.00  0.00    +0.000 C 
ATOM     22  C   UNL     1       0.003  10.687  20.385  0.00  0.00    +0.000 C 
ENDBRANCH  16  17
ENDBRANCH  11  16
TORSDOF 3
ENDMDL
MODEL 9
REMARK VINA RESULT:      -5.8      3.479      7.566
REMARK  Name = 
REMARK  5 active torsions:
REMARK  status: ('A' for Active; 'I' for Inactive)
REMARK    1  A    between atoms: C_1  and  O_2
REMARK    2  A    between atoms: O_2  and  C_3
REMARK    3  A    between atoms: C_10  and  C_11
REMARK    4  A    between atoms: C_13  and  C_14
REMARK    5  A    between atoms: C_14  and  N_15
REMARK                            x       y       z     vdW  Elec       q    Type
REMARK                         _______ _______ _______ _____ _____    ______ ____
ROOT
ATOM      1  C   UNL     1       3.840   3.916  19.120  0.00  0.00    +0.000 A 
ATOM      2  C   UNL     1       4.708   3.559  18.074  0.00  0.00    +0.000 A 
ATOM      3  C   UNL     1       4.983   4.449  17.045  0.00  0.00    +0.000 A 
ATOM      4  C   UNL     1       4.401   5.718  17.021  0.00  0.00    +0.000 A 
ATOM      5 CL   UNL     1       4.823   6.752  15.657  0.00  0.00    +0.000 Cl
ATOM      6  C   UNL     1       3.507   6.109  18.051  0.00  0.00    +0.000 A 
ATOM      7  C   UNL     1       3.238   5.198  19.118  0.00  0.00    +0.000 A 
ATOM      8  C   UNL     1       2.333   5.599  20.285  0.00  0.00    +0.000 C 
ATOM      9  C   UNL     1       0.973   4.876  20.196  0.00  0.00    +0.000 C 
ATOM     10  C   UNL     1       2.177   7.137  20.397  0.00  0.00    +0.000 C 
ATOM     11  C   UNL     1       1.727   7.707  19.056  0.00  0.00    +0.000 C 
ATOM     12  C   UNL     1       2.841   7.453  18.065  0.00  0.00    +0.000 C 
ATOM     13  O   UNL     1       3.216   8.348  17.322  0.00  0.00    +0.000 OA
ENDROOT
BRANCH   1  15
ATOM     14  C   UNL     1       4.442   2.109  20.652  0.00  0.00    +0.000 C 
ATOM     15  O   UNL     1       3.580   3.067  20.153  0.00  0.00    +0.000 OA
ENDBRANCH   1  15
BRANCH  11  16
ATOM     16  C   UNL     1       1.290   9.188  19.164  0.00  0.00    +0.000 C 
BRANCH  16  17
ATOM     17  N   UNL     1       0.937   9.601  20.548  0.00  0.00    +0.000 NA
ATOM     18  C   UNL     1       0.591  11.042  20.645  0.00  0.00    +0.000 C 
ATOM     19  C   UNL     1       0.275  11.427  22.095  0.00  0.00    +0.000 C 
ATOM     20  C   UNL     1      -0.886  10.587  22.616  0.00  0.00    +0.000 C 
ATOM     21  C   UNL     1      -0.536   9.104  22.481  0.00  0.00    +0.000 C 
ATOM     22  C   UNL     1      -0.205   8.780  21.019  0.00  0.00    +0.000 C 
ENDBRANCH  16  17
ENDBRANCH  11  16
TORSDOF 3
ENDMDL
