MODEL 1
REMARK VINA RESULT:      -6.9      0.000      0.000
REMARK  Name = 
REMARK  3 active torsions:
REMARK  status: ('A' for Active; 'I' for Inactive)
REMARK    1  A    between atoms: C_1  and  N_2
REMARK    2  A    between atoms: C_6  and  S_7
REMARK    3  A    between atoms: S_7  and  C_8
REMARK                            x       y       z     vdW  Elec       q    Type
REMARK                         _______ _______ _______ _____ _____    ______ ____
ROOT
ATOM      1  C   UNL     1       1.630   2.614  21.560  0.00  0.00    +0.000 C 
ATOM      2  N   UNL     1       2.712   2.821  20.635  0.00  0.00    +0.000 N 
ATOM      3  C   UNL     1       3.964   2.277  20.711  0.00  0.00    +0.000 A 
ATOM      4  N   UNL     1       4.728   2.669  19.710  0.00  0.00    +0.000 NA
ATOM      5  C   UNL     1       3.924   3.495  18.945  0.00  0.00    +0.000 A 
ATOM      6  C   UNL     1       4.118   4.212  17.759  0.00  0.00    +0.000 A 
ATOM      7  N   UNL     1       3.094   4.941  17.242  0.00  0.00    +0.000 NA
ATOM      8  C   UNL     1       1.923   4.944  17.911  0.00  0.00    +0.000 A 
ATOM      9  N   UNL     1       1.615   4.305  19.056  0.00  0.00    +0.000 NA
ATOM     10  C   UNL     1       2.663   3.600  19.513  0.00  0.00    +0.000 A 
ENDROOT
BRANCH   6  11
ATOM     11  S   UNL     1       5.635   4.085  16.866  0.00  0.00    +0.000 S 
BRANCH  11  12
ATOM     12  C   UNL     1       6.581   5.444  17.526  0.00  0.00    +0.000 A 
ATOM     13  C   UNL     1       7.383   5.283  18.663  0.00  0.00    +0.000 A 
ATOM     14  C   UNL     1       8.173   6.339  19.126  0.00  0.00    +0.000 A 
ATOM     15  C   UNL     1       8.168   7.551  18.444  0.00  0.00    +0.000 A 
ATOM     16  F   UNL     1       8.932   8.559  18.882  0.00  0.00    +0.000 F 
ATOM     17  C   UNL     1       7.387   7.726  17.308  0.00  0.00    +0.000 A 
ATOM     18  C   UNL     1       6.593   6.671  16.848  0.00  0.00    +0.000 A 
ENDBRANCH  11  12
ENDBRANCH   6  11
TORSDOF 2
ENDMDL
MODEL 2
REMARK VINA RESULT:      -6.7      1.236      2.084
REMARK  Name = 
REMARK  3 active torsions:
REMARK  status: ('A' for Active; 'I' for Inactive)
REMARK    1  A    between atoms: C_1  and  N_2
REMARK    2  A    between atoms: C_6  and  S_7
REMARK    3  A    between atoms: S_7  and  C_8
REMARK                            x       y       z     vdW  Elec       q    Type
REMARK                         _______ _______ _______ _____ _____    ______ ____
ROOT
ATOM      1  C   UNL     1       0.962   4.400  20.630  0.00  0.00    +0.000 C 
ATOM      2  N   UNL     1       1.881   4.590  19.539  0.00  0.00    +0.000 N 
ATOM      3  C   UNL     1       2.196   5.775  18.936  0.00  0.00    +0.000 A 
ATOM      4  N   UNL     1       3.070   5.609  17.962  0.00  0.00    +0.000 NA
ATOM      5  C   UNL     1       3.341   4.253  17.947  0.00  0.00    +0.000 A 
ATOM      6  C   UNL     1       4.180   3.439  17.178  0.00  0.00    +0.000 A 
ATOM      7  N   UNL     1       4.229   2.103  17.428  0.00  0.00    +0.000 NA
ATOM      8  C   UNL     1       3.451   1.618  18.417  0.00  0.00    +0.000 A 
ATOM      9  N   UNL     1       2.605   2.293  19.218  0.00  0.00    +0.000 NA
ATOM     10  C   UNL     1       2.603   3.604  18.926  0.00  0.00    +0.000 A 
ENDROOT
BRANCH   6  11
ATOM     11  S   UNL     1       5.258   4.139  15.970  0.00  0.00    +0.000 S 
BRANCH  11  12
ATOM     12  C   UNL     1       6.270   5.231  16.950  0.00  0.00    +0.000 A 
ATOM     13  C   UNL     1       7.064   4.741  17.995  0.00  0.00    +0.000 A 
ATOM     14  C   UNL     1       7.905   5.601  18.707  0.00  0.00    +0.000 A 
ATOM     15  C   UNL     1       7.959   6.948  18.365  0.00  0.00    +0.000 A 
ATOM     16  F   UNL     1       8.772   7.769  19.042  0.00  0.00    +0.000 F 
ATOM     17  C   UNL     1       7.187   7.450  17.325  0.00  0.00    +0.000 A 
ATOM     18  C   UNL     1       6.343   6.591  16.615  0.00  0.00    +0.000 A 
ENDBRANCH  11  12
ENDBRANCH   6  11
TORSDOF 2
ENDMDL
MODEL 3
REMARK VINA RESULT:      -6.6      3.577      6.369
REMARK  Name = 
REMARK  3 active torsions:
REMARK  status: ('A' for Active; 'I' for Inactive)
REMARK    1  A    between atoms: C_1  and  N_2
REMARK    2  A    between atoms: C_6  and  S_7
REMARK    3  A    between atoms: S_7  and  C_8
REMARK                            x       y       z     vdW  Elec       q    Type
REMARK                         _______ _______ _______ _____ _____    ______ ____
ROOT
ATOM      1  C   UNL     1       7.394   4.785  13.944  0.00  0.00    +0.000 C 
ATOM      2  N   UNL     1       6.527   5.161  15.030  0.00  0.00    +0.000 N 
ATOM      3  C   UNL     1       5.283   5.717  14.924  0.00  0.00    +0.000 A 
ATOM      4  N   UNL     1       4.750   5.949  16.107  0.00  0.00    +0.000 NA
ATOM      5  C   UNL     1       5.691   5.508  17.020  0.00  0.00    +0.000 A 
ATOM      6  C   UNL     1       5.738   5.456  18.417  0.00  0.00    +0.000 A 
ATOM      7  N   UNL     1       6.834   4.937  19.031  0.00  0.00    +0.000 NA
ATOM      8  C   UNL     1       7.842   4.495  18.251  0.00  0.00    +0.000 A 
ATOM      9  N   UNL     1       7.918   4.496  16.907  0.00  0.00    +0.000 NA
ATOM     10  C   UNL     1       6.807   5.015  16.360  0.00  0.00    +0.000 A 
ENDROOT
BRANCH   6  11
ATOM     11  S   UNL     1       4.347   5.945  19.386  0.00  0.00    +0.000 S 
BRANCH  11  12
ATOM     12  C   UNL     1       3.194   4.617  19.097  0.00  0.00    +0.000 A 
ATOM     13  C   UNL     1       3.258   3.428  19.836  0.00  0.00    +0.000 A 
ATOM     14  C   UNL     1       2.303   2.426  19.645  0.00  0.00    +0.000 A 
ATOM     15  C   UNL     1       1.279   2.618  18.724  0.00  0.00    +0.000 A 
ATOM     16  F   UNL     1       0.359   1.662  18.549  0.00  0.00    +0.000 F 
ATOM     17  C   UNL     1       1.193   3.795  17.990  0.00  0.00    +0.000 A 
ATOM     18  C   UNL     1       2.151   4.796  18.178  0.00  0.00    +0.000 A 
ENDBRANCH  11  12
ENDBRANCH   6  11
TORSDOF 2
ENDMDL
MODEL 4
REMARK VINA RESULT:      -6.6      1.922      3.086
REMARK  Name = 
REMARK  3 active torsions:
REMARK  status: ('A' for Active; 'I' for Inactive)
REMARK    1  A    between atoms: C_1  and  N_2
REMARK    2  A    between atoms: C_6  and  S_7
REMARK    3  A    between atoms: S_7  and  C_8
REMARK                            x       y       z     vdW  Elec       q    Type
REMARK                         _______ _______ _______ _____ _____    ______ ____
ROOT
ATOM      1  C   UNL     1       0.939   7.827  21.168  0.00  0.00    +0.000 C 
ATOM      2  N   UNL     1       1.751   7.254  20.127  0.00  0.00    +0.000 N 
ATOM      3  C   UNL     1       2.249   7.904  19.032  0.00  0.00    +0.000 A 
ATOM      4  N   UNL     1       2.951   7.095  18.263  0.00  0.00    +0.000 NA
ATOM      5  C   UNL     1       2.914   5.868  18.900  0.00  0.00    +0.000 A 
ATOM      6  C   UNL     1       3.463   4.612  18.621  0.00  0.00    +0.000 A 
ATOM      7  N   UNL     1       3.246   3.580  19.479  0.00  0.00    +0.000 NA
ATOM      8  C   UNL     1       2.496   3.819  20.574  0.00  0.00    +0.000 A 
ATOM      9  N   UNL     1       1.912   4.974  20.949  0.00  0.00    +0.000 NA
ATOM     10  C   UNL     1       2.166   5.953  20.065  0.00  0.00    +0.000 A 
ENDROOT
BRANCH   6  11
ATOM     11  S   UNL     1       4.528   4.380  17.233  0.00  0.00    +0.000 S 
BRANCH  11  12
ATOM     12  C   UNL     1       5.905   5.439  17.628  0.00  0.00    +0.000 A 
ATOM     13  C   UNL     1       6.158   6.604  16.893  0.00  0.00    +0.000 A 
ATOM     14  C   UNL     1       7.200   7.460  17.260  0.00  0.00    +0.000 A 
ATOM     15  C   UNL     1       7.981   7.155  18.369  0.00  0.00    +0.000 A 
ATOM     16  F   UNL     1       8.973   7.980  18.726  0.00  0.00    +0.000 F 
ATOM     17  C   UNL     1       7.739   6.009  19.117  0.00  0.00    +0.000 A 
ATOM     18  C   UNL     1       6.699   5.151  18.747  0.00  0.00    +0.000 A 
ENDBRANCH  11  12
ENDBRANCH   6  11
TORSDOF 2
ENDMDL
MODEL 5
REMARK VINA RESULT:      -6.5      3.166      6.025
REMARK  Name = 
REMARK  3 active torsions:
REMARK  status: ('A' for Active; 'I' for Inactive)
REMARK    1  A    between atoms: C_1  and  N_2
REMARK    2  A    between atoms: C_6  and  S_7
REMARK    3  A    between atoms: S_7  and  C_8
REMARK                            x       y       z     vdW  Elec       q    Type
REMARK                         _______ _______ _______ _____ _____    ______ ____
ROOT
ATOM      1  C   UNL     1       8.055   7.689  18.070  0.00  0.00    +0.000 C 
ATOM      2  N   UNL     1       7.313   6.459  17.978  0.00  0.00    +0.000 N 
ATOM      3  C   UNL     1       7.809   5.196  18.134  0.00  0.00    +0.000 A 
ATOM      4  N   UNL     1       6.871   4.281  17.983  0.00  0.00    +0.000 NA
ATOM      5  C   UNL     1       5.711   4.992  17.731  0.00  0.00    +0.000 A 
ATOM      6  C   UNL     1       4.380   4.628  17.498  0.00  0.00    +0.000 A 
ATOM      7  N   UNL     1       3.449   5.596  17.290  0.00  0.00    +0.000 NA
ATOM      8  C   UNL     1       3.858   6.881  17.313  0.00  0.00    +0.000 A 
ATOM      9  N   UNL     1       5.101   7.355  17.520  0.00  0.00    +0.000 NA
ATOM     10  C   UNL     1       5.974   6.354  17.723  0.00  0.00    +0.000 A 
ENDROOT
BRANCH   6  11
ATOM     11  S   UNL     1       3.877   2.940  17.588  0.00  0.00    +0.000 S 
BRANCH  11  12
ATOM     12  C   UNL     1       2.921   2.906  19.091  0.00  0.00    +0.000 A 
ATOM     13  C   UNL     1       1.529   3.066  19.069  0.00  0.00    +0.000 A 
ATOM     14  C   UNL     1       0.787   2.966  20.249  0.00  0.00    +0.000 A 
ATOM     15  C   UNL     1       1.437   2.694  21.448  0.00  0.00    +0.000 A 
ATOM     16  F   UNL     1       0.724   2.590  22.576  0.00  0.00    +0.000 F 
ATOM     17  C   UNL     1       2.815   2.522  21.489  0.00  0.00    +0.000 A 
ATOM     18  C   UNL     1       3.558   2.626  20.308  0.00  0.00    +0.000 A 
ENDBRANCH  11  12
ENDBRANCH   6  11
TORSDOF 2
ENDMDL
MODEL 6
REMARK VINA RESULT:      -6.4      1.283      2.242
REMARK  Name = 
REMARK  3 active torsions:
REMARK  status: ('A' for Active; 'I' for Inactive)
REMARK    1  A    between atoms: C_1  and  N_2
REMARK    2  A    between atoms: C_6  and  S_7
REMARK    3  A    between atoms: S_7  and  C_8
REMARK                            x       y       z     vdW  Elec       q    Type
REMARK                         _______ _______ _______ _____ _____    ______ ____
ROOT
ATOM      1  C   UNL     1       1.712   3.809  21.546  0.00  0.00    +0.000 C 
ATOM      2  N   UNL     1       2.335   4.195  20.308  0.00  0.00    +0.000 N 
ATOM      3  C   UNL     1       2.483   5.468  19.833  0.00  0.00    +0.000 A 
ATOM      4  N   UNL     1       3.092   5.484  18.663  0.00  0.00    +0.000 NA
ATOM      5  C   UNL     1       3.362   4.157  18.378  0.00  0.00    +0.000 A 
ATOM      6  C   UNL     1       3.992   3.501  17.315  0.00  0.00    +0.000 A 
ATOM      7  N   UNL     1       4.111   2.147  17.340  0.00  0.00    +0.000 NA
ATOM      8  C   UNL     1       3.603   1.490  18.403  0.00  0.00    +0.000 A 
ATOM      9  N   UNL     1       2.974   2.003  19.477  0.00  0.00    +0.000 NA
ATOM     10  C   UNL     1       2.891   3.341  19.396  0.00  0.00    +0.000 A 
ENDROOT
BRANCH   6  11
ATOM     11  S   UNL     1       4.736   4.417  16.003  0.00  0.00    +0.000 S 
BRANCH  11  12
ATOM     12  C   UNL     1       5.986   5.357  16.855  0.00  0.00    +0.000 A 
ATOM     13  C   UNL     1       6.085   6.746  16.695  0.00  0.00    +0.000 A 
ATOM     14  C   UNL     1       7.025   7.477  17.425  0.00  0.00    +0.000 A 
ATOM     15  C   UNL     1       7.859   6.821  18.323  0.00  0.00    +0.000 A 
ATOM     16  F   UNL     1       8.754   7.523  19.029  0.00  0.00    +0.000 F 
ATOM     17  C   UNL     1       7.770   5.446  18.504  0.00  0.00    +0.000 A 
ATOM     18  C   UNL     1       6.831   4.714  17.770  0.00  0.00    +0.000 A 
ENDBRANCH  11  12
ENDBRANCH   6  11
TORSDOF 2
ENDMDL
MODEL 7
REMARK VINA RESULT:      -6.4      2.876      3.462
REMARK  Name = 
REMARK  3 active torsions:
REMARK  status: ('A' for Active; 'I' for Inactive)
REMARK    1  A    between atoms: C_1  and  N_2
REMARK    2  A    between atoms: C_6  and  S_7
REMARK    3  A    between atoms: S_7  and  C_8
REMARK                            x       y       z     vdW  Elec       q    Type
REMARK                         _______ _______ _______ _____ _____    ______ ____
ROOT
ATOM      1  C   UNL     1       1.487   2.579  20.610  0.00  0.00    +0.000 C 
ATOM      2  N   UNL     1       2.776   2.970  20.105  0.00  0.00    +0.000 N 
ATOM      3  C   UNL     1       3.958   2.309  20.289  0.00  0.00    +0.000 A 
ATOM      4  N   UNL     1       4.962   2.930  19.702  0.00  0.00    +0.000 NA
ATOM      5  C   UNL     1       4.396   4.040  19.098  0.00  0.00    +0.000 A 
ATOM      6  C   UNL     1       4.902   5.084  18.318  0.00  0.00    +0.000 A 
ATOM      7  N   UNL     1       4.058   6.043  17.853  0.00  0.00    +0.000 NA
ATOM      8  C   UNL     1       2.752   5.942  18.177  0.00  0.00    +0.000 A 
ATOM      9  N   UNL     1       2.148   4.996  18.919  0.00  0.00    +0.000 NA
ATOM     10  C   UNL     1       3.032   4.077  19.344  0.00  0.00    +0.000 A 
ENDROOT
BRANCH   6  11
ATOM     11  S   UNL     1       6.598   5.108  17.832  0.00  0.00    +0.000 S 
BRANCH  11  12
ATOM     12  C   UNL     1       6.501   4.755  16.088  0.00  0.00    +0.000 A 
ATOM     13  C   UNL     1       7.405   5.323  15.181  0.00  0.00    +0.000 A 
ATOM     14  C   UNL     1       7.359   4.980  13.827  0.00  0.00    +0.000 A 
ATOM     15  C   UNL     1       6.415   4.060  13.383  0.00  0.00    +0.000 A 
ATOM     16  F   UNL     1       6.377   3.725  12.088  0.00  0.00    +0.000 F 
ATOM     17  C   UNL     1       5.516   3.479  14.269  0.00  0.00    +0.000 A 
ATOM     18  C   UNL     1       5.560   3.825  15.623  0.00  0.00    +0.000 A 
ENDBRANCH  11  12
ENDBRANCH   6  11
TORSDOF 2
ENDMDL
MODEL 8
REMARK VINA RESULT:      -6.3      3.558      6.422
REMARK  Name = 
REMARK  3 active torsions:
REMARK  status: ('A' for Active; 'I' for Inactive)
REMARK    1  A    between atoms: C_1  and  N_2
REMARK    2  A    between atoms: C_6  and  S_7
REMARK    3  A    between atoms: S_7  and  C_8
REMARK                            x       y       z     vdW  Elec       q    Type
REMARK                         _______ _______ _______ _____ _____    ______ ____
ROOT
ATOM      1  C   UNL     1       7.346   4.848  14.009  0.00  0.00    +0.000 C 
ATOM      2  N   UNL     1       6.492   5.246  15.096  0.00  0.00    +0.000 N 
ATOM      3  C   UNL     1       5.270   5.851  14.992  0.00  0.00    +0.000 A 
ATOM      4  N   UNL     1       4.743   6.092  16.177  0.00  0.00    +0.000 NA
ATOM      5  C   UNL     1       5.665   5.607  17.088  0.00  0.00    +0.000 A 
ATOM      6  C   UNL     1       5.707   5.540  18.484  0.00  0.00    +0.000 A 
ATOM      7  N   UNL     1       6.782   4.975  19.095  0.00  0.00    +0.000 NA
ATOM      8  C   UNL     1       7.774   4.502  18.314  0.00  0.00    +0.000 A 
ATOM      9  N   UNL     1       7.853   4.512  16.969  0.00  0.00    +0.000 NA
ATOM     10  C   UNL     1       6.763   5.078  16.425  0.00  0.00    +0.000 A 
ENDROOT
BRANCH   6  11
ATOM     11  S   UNL     1       4.334   6.073  19.455  0.00  0.00    +0.000 S 
BRANCH  11  12
ATOM     12  C   UNL     1       3.149   4.770  19.188  0.00  0.00    +0.000 A 
ATOM     13  C   UNL     1       2.175   4.870  18.186  0.00  0.00    +0.000 A 
ATOM     14  C   UNL     1       1.298   3.809  17.942  0.00  0.00    +0.000 A 
ATOM     15  C   UNL     1       1.404   2.644  18.695  0.00  0.00    +0.000 A 
ATOM     16  F   UNL     1       0.570   1.625  18.455  0.00  0.00    +0.000 F 
ATOM     17  C   UNL     1       2.370   2.522  19.686  0.00  0.00    +0.000 A 
ATOM     18  C   UNL     1       3.244   3.585  19.932  0.00  0.00    +0.000 A 
ENDBRANCH  11  12
ENDBRANCH   6  11
TORSDOF 2
ENDMDL
MODEL 9
REMARK VINA RESULT:      -6.2      3.312      5.981
REMARK  Name = 
REMARK  3 active torsions:
REMARK  status: ('A' for Active; 'I' for Inactive)
REMARK    1  A    between atoms: C_1  and  N_2
REMARK    2  A    between atoms: C_6  and  S_7
REMARK    3  A    between atoms: S_7  and  C_8
REMARK                            x       y       z     vdW  Elec       q    Type
REMARK                         _______ _______ _______ _____ _____    ______ ____
ROOT
ATOM      1  C   UNL     1       7.823   5.167  13.582  0.00  0.00    +0.000 C 
ATOM      2  N   UNL     1       6.742   4.700  14.409  0.00  0.00    +0.000 N 
ATOM      3  C   UNL     1       5.525   4.248  13.982  0.00  0.00    +0.000 A 
ATOM      4  N   UNL     1       4.753   3.897  14.991  0.00  0.00    +0.000 NA
ATOM      5  C   UNL     1       5.514   4.122  16.124  0.00  0.00    +0.000 A 
ATOM      6  C   UNL     1       5.293   3.946  17.494  0.00  0.00    +0.000 A 
ATOM      7  N   UNL     1       6.277   4.261  18.377  0.00  0.00    +0.000 NA
ATOM      8  C   UNL     1       7.437   4.741  17.883  0.00  0.00    +0.000 A 
ATOM      9  N   UNL     1       7.767   4.959  16.597  0.00  0.00    +0.000 NA
ATOM     10  C   UNL     1       6.759   4.626  15.774  0.00  0.00    +0.000 A 
ENDROOT
BRANCH   6  11
ATOM     11  S   UNL     1       3.799   3.212  18.080  0.00  0.00    +0.000 S 
BRANCH  11  12
ATOM     12  C   UNL     1       3.067   4.535  19.022  0.00  0.00    +0.000 A 
ATOM     13  C   UNL     1       3.150   5.865  18.590  0.00  0.00    +0.000 A 
ATOM     14  C   UNL     1       2.510   6.882  19.304  0.00  0.00    +0.000 A 
ATOM     15  C   UNL     1       1.779   6.566  20.444  0.00  0.00    +0.000 A 
ATOM     16  F   UNL     1       1.159   7.539  21.122  0.00  0.00    +0.000 F 
ATOM     17  C   UNL     1       1.676   5.251  20.882  0.00  0.00    +0.000 A 
ATOM     18  C   UNL     1       2.320   4.234  20.170  0.00  0.00    +0.000 A 
ENDBRANCH  11  12
ENDBRANCH   6  11
TORSDOF 2
ENDMDL
