MODEL 1
REMARK VINA RESULT:      -7.1      0.000      0.000
REMARK  Name = 
REMARK  2 active torsions:
REMARK  status: ('A' for Active; 'I' for Inactive)
REMARK    1  A    between atoms: C_1  and  C_2
REMARK    2  A    between atoms: N_16  and  C_17
REMARK                            x       y       z     vdW  Elec       q    Type
REMARK                         _______ _______ _______ _____ _____    ______ ____
ROOT
ATOM      1  C   UNL     1       4.476   2.909  11.987  0.00  0.00    +0.000 C 
ATOM      2  C   UNL     1       5.727   3.615  12.328  0.00  0.00    +0.000 A 
ATOM      3  N   UNL     1       6.728   3.866  11.505  0.00  0.00    +0.000 NA
ATOM      4  N   UNL     1       7.693   4.547  12.203  0.00  0.00    +0.000 NA
ATOM      5  C   UNL     1       7.259   4.698  13.433  0.00  0.00    +0.000 A 
ATOM      6  C   UNL     1       7.815   5.326  14.555  0.00  0.00    +0.000 A 
ATOM      7  C   UNL     1       7.129   5.306  15.703  0.00  0.00    +0.000 A 
ATOM      8  C   UNL     1       5.793   4.605  15.775  0.00  0.00    +0.000 A 
ATOM      9  N   UNL     1       5.135   4.572  17.000  0.00  0.00    +0.000 N 
ATOM     10  C   UNL     1       5.843   4.588  18.276  0.00  0.00    +0.000 C 
ATOM     11  C   UNL     1       4.782   4.460  19.361  0.00  0.00    +0.000 C 
ATOM     12  C   UNL     1       3.424   4.365  18.634  0.00  0.00    +0.000 C 
ATOM     13  C   UNL     1       2.688   5.725  18.642  0.00  0.00    +0.000 C 
ATOM     14  C   UNL     1       2.170   6.084  20.036  0.00  0.00    +0.000 C 
ATOM     15  C   UNL     1       1.351   4.946  20.641  0.00  0.00    +0.000 C 
ATOM     16  N   UNL     1       2.103   3.683  20.645  0.00  0.00    +0.000 NA
ATOM     17  C   UNL     1       1.294   2.623  21.252  0.00  0.00    +0.000 C 
ATOM     18  C   UNL     1       2.514   3.301  19.283  0.00  0.00    +0.000 C 
ATOM     19  C   UNL     1       3.819   3.965  17.194  0.00  0.00    +0.000 C 
ATOM     20  N   UNL     1       5.247   4.049  14.719  0.00  0.00    +0.000 NA
ATOM     21  N   UNL     1       6.014   4.121  13.581  0.00  0.00    +0.000 N 
ENDROOT
TORSDOF 0
ENDMDL
MODEL 2
REMARK VINA RESULT:      -7.1      4.877      7.431
REMARK  Name = 
REMARK  2 active torsions:
REMARK  status: ('A' for Active; 'I' for Inactive)
REMARK    1  A    between atoms: C_1  and  C_2
REMARK    2  A    between atoms: N_16  and  C_17
REMARK                            x       y       z     vdW  Elec       q    Type
REMARK                         _______ _______ _______ _____ _____    ______ ____
ROOT
ATOM      1  C   UNL     1       2.214   4.259  21.209  0.00  0.00    +0.000 C 
ATOM      2  C   UNL     1       3.071   4.568  20.048  0.00  0.00    +0.000 A 
ATOM      3  N   UNL     1       4.007   3.786  19.541  0.00  0.00    +0.000 NA
ATOM      4  N   UNL     1       4.565   4.429  18.466  0.00  0.00    +0.000 NA
ATOM      5  C   UNL     1       3.957   5.586  18.339  0.00  0.00    +0.000 A 
ATOM      6  C   UNL     1       4.105   6.628  17.414  0.00  0.00    +0.000 A 
ATOM      7  C   UNL     1       3.337   7.715  17.549  0.00  0.00    +0.000 A 
ATOM      8  C   UNL     1       2.348   7.807  18.687  0.00  0.00    +0.000 A 
ATOM      9  N   UNL     1       1.601   8.973  18.814  0.00  0.00    +0.000 N 
ATOM     10  C   UNL     1       2.092  10.275  18.375  0.00  0.00    +0.000 C 
ATOM     11  C   UNL     1       1.024  11.291  18.758  0.00  0.00    +0.000 C 
ATOM     12  C   UNL     1      -0.106  10.499  19.448  0.00  0.00    +0.000 C 
ATOM     13  C   UNL     1      -1.280  10.237  18.476  0.00  0.00    +0.000 C 
ATOM     14  C   UNL     1      -2.060  11.516  18.168  0.00  0.00    +0.000 C 
ATOM     15  C   UNL     1      -2.480  12.239  19.447  0.00  0.00    +0.000 C 
ATOM     16  N   UNL     1      -1.327  12.498  20.323  0.00  0.00    +0.000 NA
ATOM     17  C   UNL     1      -1.765  13.210  21.526  0.00  0.00    +0.000 C 
ATOM     18  C   UNL     1      -0.640  11.246  20.687  0.00  0.00    +0.000 C 
ATOM     19  C   UNL     1       0.582   9.171  19.843  0.00  0.00    +0.000 C 
ATOM     20  N   UNL     1       2.176   6.819  19.534  0.00  0.00    +0.000 NA
ATOM     21  N   UNL     1       2.998   5.739  19.320  0.00  0.00    +0.000 N 
ENDROOT
TORSDOF 0
ENDMDL
MODEL 3
REMARK VINA RESULT:      -6.7      4.435      8.423
REMARK  Name = 
REMARK  2 active torsions:
REMARK  status: ('A' for Active; 'I' for Inactive)
REMARK    1  A    between atoms: C_1  and  C_2
REMARK    2  A    between atoms: N_16  and  C_17
REMARK                            x       y       z     vdW  Elec       q    Type
REMARK                         _______ _______ _______ _____ _____    ______ ____
ROOT
ATOM      1  C   UNL     1      -0.390   9.638  23.440  0.00  0.00    +0.000 C 
ATOM      2  C   UNL     1      -0.130  10.551  22.310  0.00  0.00    +0.000 A 
ATOM      3  N   UNL     1      -0.484  11.822  22.238  0.00  0.00    +0.000 NA
ATOM      4  N   UNL     1      -0.050  12.319  21.036  0.00  0.00    +0.000 NA
ATOM      5  C   UNL     1       0.560  11.343  20.403  0.00  0.00    +0.000 A 
ATOM      6  C   UNL     1       1.206  11.289  19.160  0.00  0.00    +0.000 A 
ATOM      7  C   UNL     1       1.734  10.125  18.766  0.00  0.00    +0.000 A 
ATOM      8  C   UNL     1       1.616   8.903  19.645  0.00  0.00    +0.000 A 
ATOM      9  N   UNL     1       2.142   7.704  19.176  0.00  0.00    +0.000 N 
ATOM     10  C   UNL     1       2.224   7.382  17.755  0.00  0.00    +0.000 C 
ATOM     11  C   UNL     1       2.777   5.966  17.664  0.00  0.00    +0.000 C 
ATOM     12  C   UNL     1       3.003   5.491  19.115  0.00  0.00    +0.000 C 
ATOM     13  C   UNL     1       4.491   5.612  19.518  0.00  0.00    +0.000 C 
ATOM     14  C   UNL     1       5.360   4.574  18.806  0.00  0.00    +0.000 C 
ATOM     15  C   UNL     1       4.799   3.163  18.971  0.00  0.00    +0.000 C 
ATOM     16  N   UNL     1       3.394   3.088  18.543  0.00  0.00    +0.000 NA
ATOM     17  C   UNL     1       2.898   1.718  18.695  0.00  0.00    +0.000 C 
ATOM     18  C   UNL     1       2.552   4.028  19.303  0.00  0.00    +0.000 C 
ATOM     19  C   UNL     1       2.131   6.462  19.946  0.00  0.00    +0.000 C 
ATOM     20  N   UNL     1       1.047   8.955  20.827  0.00  0.00    +0.000 NA
ATOM     21  N   UNL     1       0.539  10.188  21.158  0.00  0.00    +0.000 N 
ENDROOT
TORSDOF 0
ENDMDL
MODEL 4
REMARK VINA RESULT:      -6.6      6.101      8.352
REMARK  Name = 
REMARK  2 active torsions:
REMARK  status: ('A' for Active; 'I' for Inactive)
REMARK    1  A    between atoms: C_1  and  C_2
REMARK    2  A    between atoms: N_16  and  C_17
REMARK                            x       y       z     vdW  Elec       q    Type
REMARK                         _______ _______ _______ _____ _____    ______ ____
ROOT
ATOM      1  C   UNL     1       5.230   6.745  15.182  0.00  0.00    +0.000 C 
ATOM      2  C   UNL     1       5.835   5.979  16.289  0.00  0.00    +0.000 A 
ATOM      3  N   UNL     1       5.609   4.709  16.572  0.00  0.00    +0.000 NA
ATOM      4  N   UNL     1       6.368   4.373  17.664  0.00  0.00    +0.000 NA
ATOM      5  C   UNL     1       7.040   5.443  18.021  0.00  0.00    +0.000 A 
ATOM      6  C   UNL     1       7.971   5.669  19.044  0.00  0.00    +0.000 A 
ATOM      7  C   UNL     1       8.491   6.895  19.175  0.00  0.00    +0.000 A 
ATOM      8  C   UNL     1       8.061   8.003  18.242  0.00  0.00    +0.000 A 
ATOM      9  N   UNL     1       8.595   9.272  18.441  0.00  0.00    +0.000 N 
ATOM     10  C   UNL     1       9.006   9.756  19.755  0.00  0.00    +0.000 C 
ATOM     11  C   UNL     1       9.453  11.199  19.563  0.00  0.00    +0.000 C 
ATOM     12  C   UNL     1       9.271  11.517  18.064  0.00  0.00    +0.000 C 
ATOM     13  C   UNL     1      10.614  11.425  17.305  0.00  0.00    +0.000 C 
ATOM     14  C   UNL     1      11.552  12.579  17.665  0.00  0.00    +0.000 C 
ATOM     15  C   UNL     1      10.860  13.933  17.515  0.00  0.00    +0.000 C 
ATOM     16  N   UNL     1       9.606  13.986  18.282  0.00  0.00    +0.000 NA
ATOM     17  C   UNL     1       8.985  15.304  18.131  0.00  0.00    +0.000 C 
ATOM     18  C   UNL     1       8.675  12.926  17.858  0.00  0.00    +0.000 C 
ATOM     19  C   UNL     1       8.295  10.417  17.584  0.00  0.00    +0.000 C 
ATOM     20  N   UNL     1       7.220   7.789  17.257  0.00  0.00    +0.000 NA
ATOM     21  N   UNL     1       6.741   6.503  17.190  0.00  0.00    +0.000 N 
ENDROOT
TORSDOF 0
ENDMDL
MODEL 5
REMARK VINA RESULT:      -6.6      4.616      8.654
REMARK  Name = 
REMARK  2 active torsions:
REMARK  status: ('A' for Active; 'I' for Inactive)
REMARK    1  A    between atoms: C_1  and  C_2
REMARK    2  A    between atoms: N_16  and  C_17
REMARK                            x       y       z     vdW  Elec       q    Type
REMARK                         _______ _______ _______ _____ _____    ______ ____
ROOT
ATOM      1  C   UNL     1       1.012  12.559  18.667  0.00  0.00    +0.000 C 
ATOM      2  C   UNL     1       0.391  12.080  19.917  0.00  0.00    +0.000 A 
ATOM      3  N   UNL     1      -0.326  12.804  20.757  0.00  0.00    +0.000 NA
ATOM      4  N   UNL     1      -0.728  11.990  21.786  0.00  0.00    +0.000 NA
ATOM      5  C   UNL     1      -0.251  10.790  21.549  0.00  0.00    +0.000 A 
ATOM      6  C   UNL     1      -0.365   9.580  22.247  0.00  0.00    +0.000 A 
ATOM      7  C   UNL     1       0.257   8.501  21.759  0.00  0.00    +0.000 A 
ATOM      8  C   UNL     1       1.072   8.605  20.491  0.00  0.00    +0.000 A 
ATOM      9  N   UNL     1       1.737   7.469  20.043  0.00  0.00    +0.000 N 
ATOM     10  C   UNL     1       2.214   6.428  20.947  0.00  0.00    +0.000 C 
ATOM     11  C   UNL     1       2.949   5.410  20.085  0.00  0.00    +0.000 C 
ATOM     12  C   UNL     1       2.870   5.929  18.634  0.00  0.00    +0.000 C 
ATOM     13  C   UNL     1       1.762   5.200  17.838  0.00  0.00    +0.000 C 
ATOM     14  C   UNL     1       2.140   3.749  17.536  0.00  0.00    +0.000 C 
ATOM     15  C   UNL     1       3.519   3.651  16.886  0.00  0.00    +0.000 C 
ATOM     16  N   UNL     1       4.545   4.327  17.695  0.00  0.00    +0.000 NA
ATOM     17  C   UNL     1       5.855   4.193  17.052  0.00  0.00    +0.000 C 
ATOM     18  C   UNL     1       4.214   5.748  17.899  0.00  0.00    +0.000 C 
ATOM     19  C   UNL     1       2.521   7.425  18.810  0.00  0.00    +0.000 C 
ATOM     20  N   UNL     1       1.150   9.726  19.811  0.00  0.00    +0.000 NA
ATOM     21  N   UNL     1       0.477  10.781  20.377  0.00  0.00    +0.000 N 
ENDROOT
TORSDOF 0
ENDMDL
MODEL 6
REMARK VINA RESULT:      -6.2      5.204      8.531
REMARK  Name = 
REMARK  2 active torsions:
REMARK  status: ('A' for Active; 'I' for Inactive)
REMARK    1  A    between atoms: C_1  and  C_2
REMARK    2  A    between atoms: N_16  and  C_17
REMARK                            x       y       z     vdW  Elec       q    Type
REMARK                         _______ _______ _______ _____ _____    ______ ____
ROOT
ATOM      1  C   UNL     1       2.205  13.100  17.822  0.00  0.00    +0.000 C 
ATOM      2  C   UNL     1       1.168  12.899  18.853  0.00  0.00    +0.000 A 
ATOM      3  N   UNL     1       0.396  13.836  19.374  0.00  0.00    +0.000 NA
ATOM      4  N   UNL     1      -0.438  13.242  20.287  0.00  0.00    +0.000 NA
ATOM      5  C   UNL     1      -0.159  11.959  20.301  0.00  0.00    +0.000 A 
ATOM      6  C   UNL     1      -0.705  10.887  21.019  0.00  0.00    +0.000 A 
ATOM      7  C   UNL     1      -0.194   9.666  20.829  0.00  0.00    +0.000 A 
ATOM      8  C   UNL     1       0.955   9.466  19.871  0.00  0.00    +0.000 A 
ATOM      9  N   UNL     1       1.484   8.186  19.737  0.00  0.00    +0.000 N 
ATOM     10  C   UNL     1       1.465   7.210  20.821  0.00  0.00    +0.000 C 
ATOM     11  C   UNL     1       2.202   5.979  20.306  0.00  0.00    +0.000 C 
ATOM     12  C   UNL     1       2.648   6.308  18.866  0.00  0.00    +0.000 C 
ATOM     13  C   UNL     1       1.696   5.674  17.826  0.00  0.00    +0.000 C 
ATOM     14  C   UNL     1       1.852   4.153  17.766  0.00  0.00    +0.000 C 
ATOM     15  C   UNL     1       3.312   3.744  17.582  0.00  0.00    +0.000 C 
ATOM     16  N   UNL     1       4.173   4.342  18.614  0.00  0.00    +0.000 NA
ATOM     17  C   UNL     1       5.559   3.910  18.418  0.00  0.00    +0.000 C 
ATOM     18  C   UNL     1       4.084   5.813  18.597  0.00  0.00    +0.000 C 
ATOM     19  C   UNL     1       2.565   7.852  18.813  0.00  0.00    +0.000 C 
ATOM     20  N   UNL     1       1.446  10.458  19.164  0.00  0.00    +0.000 NA
ATOM     21  N   UNL     1       0.860  11.675  19.414  0.00  0.00    +0.000 N 
ENDROOT
TORSDOF 0
ENDMDL
MODEL 7
REMARK VINA RESULT:      -6.1     10.175     11.376
REMARK  Name = 
REMARK  2 active torsions:
REMARK  status: ('A' for Active; 'I' for Inactive)
REMARK    1  A    between atoms: C_1  and  C_2
REMARK    2  A    between atoms: N_16  and  C_17
REMARK                            x       y       z     vdW  Elec       q    Type
REMARK                         _______ _______ _______ _____ _____    ______ ____
ROOT
ATOM      1  C   UNL     1       9.212  10.567  18.578  0.00  0.00    +0.000 C 
ATOM      2  C   UNL     1      10.071  11.701  18.187  0.00  0.00    +0.000 A 
ATOM      3  N   UNL     1      11.354  11.636  17.881  0.00  0.00    +0.000 NA
ATOM      4  N   UNL     1      11.781  12.901  17.564  0.00  0.00    +0.000 NA
ATOM      5  C   UNL     1      10.751  13.706  17.681  0.00  0.00    +0.000 A 
ATOM      6  C   UNL     1      10.607  15.083  17.465  0.00  0.00    +0.000 A 
ATOM      7  C   UNL     1       9.411  15.642  17.685  0.00  0.00    +0.000 A 
ATOM      8  C   UNL     1       8.258  14.796  18.169  0.00  0.00    +0.000 A 
ATOM      9  N   UNL     1       7.044  15.426  18.426  0.00  0.00    +0.000 N 
ATOM     10  C   UNL     1       6.955  16.817  18.857  0.00  0.00    +0.000 C 
ATOM     11  C   UNL     1       5.479  17.099  19.106  0.00  0.00    +0.000 C 
ATOM     12  C   UNL     1       4.727  15.787  18.799  0.00  0.00    +0.000 C 
ATOM     13  C   UNL     1       4.081  15.828  17.394  0.00  0.00    +0.000 C 
ATOM     14  C   UNL     1       2.889  16.787  17.344  0.00  0.00    +0.000 C 
ATOM     15  C   UNL     1       1.891  16.500  18.463  0.00  0.00    +0.000 C 
ATOM     16  N   UNL     1       2.543  16.506  19.782  0.00  0.00    +0.000 NA
ATOM     17  C   UNL     1       1.551  16.250  20.829  0.00  0.00    +0.000 C 
ATOM     18  C   UNL     1       3.628  15.512  19.846  0.00  0.00    +0.000 C 
ATOM     19  C   UNL     1       5.841  14.717  18.856  0.00  0.00    +0.000 C 
ATOM     20  N   UNL     1       8.374  13.499  18.336  0.00  0.00    +0.000 NA
ATOM     21  N   UNL     1       9.631  13.006  18.081  0.00  0.00    +0.000 N 
ENDROOT
TORSDOF 0
ENDMDL
MODEL 8
REMARK VINA RESULT:      -6.0      5.795      8.438
REMARK  Name = 
REMARK  2 active torsions:
REMARK  status: ('A' for Active; 'I' for Inactive)
REMARK    1  A    between atoms: C_1  and  C_2
REMARK    2  A    between atoms: N_16  and  C_17
REMARK                            x       y       z     vdW  Elec       q    Type
REMARK                         _______ _______ _______ _____ _____    ______ ____
ROOT
ATOM      1  C   UNL     1       1.835   5.173  21.064  0.00  0.00    +0.000 C 
ATOM      2  C   UNL     1       2.434   5.666  19.809  0.00  0.00    +0.000 A 
ATOM      3  N   UNL     1       3.198   4.971  18.985  0.00  0.00    +0.000 NA
ATOM      4  N   UNL     1       3.541   5.783  17.935  0.00  0.00    +0.000 NA
ATOM      5  C   UNL     1       2.979   6.952  18.139  0.00  0.00    +0.000 A 
ATOM      6  C   UNL     1       2.975   8.136  17.389  0.00  0.00    +0.000 A 
ATOM      7  C   UNL     1       2.310   9.192  17.869  0.00  0.00    +0.000 A 
ATOM      8  C   UNL     1       1.597   9.100  19.197  0.00  0.00    +0.000 A 
ATOM      9  N   UNL     1       0.955  10.236  19.678  0.00  0.00    +0.000 N 
ATOM     10  C   UNL     1       1.404  11.588  19.362  0.00  0.00    +0.000 C 
ATOM     11  C   UNL     1       0.497  12.536  20.135  0.00  0.00    +0.000 C 
ATOM     12  C   UNL     1      -0.495  11.650  20.918  0.00  0.00    +0.000 C 
ATOM     13  C   UNL     1      -1.864  11.575  20.201  0.00  0.00    +0.000 C 
ATOM     14  C   UNL     1      -2.627  12.898  20.290  0.00  0.00    +0.000 C 
ATOM     15  C   UNL     1      -2.722  13.394  21.732  0.00  0.00    +0.000 C 
ATOM     16  N   UNL     1      -1.396  13.484  22.360  0.00  0.00    +0.000 NA
ATOM     17  C   UNL     1      -1.526  13.984  23.731  0.00  0.00    +0.000 C 
ATOM     18  C   UNL     1      -0.710  12.180  22.351  0.00  0.00    +0.000 C 
ATOM     19  C   UNL     1       0.195  10.266  20.926  0.00  0.00    +0.000 C 
ATOM     20  N   UNL     1       1.563   7.983  19.886  0.00  0.00    +0.000 NA
ATOM     21  N   UNL     1       2.264   6.946  19.319  0.00  0.00    +0.000 N 
ENDROOT
TORSDOF 0
ENDMDL
MODEL 9
REMARK VINA RESULT:      -6.0      9.608     14.038
REMARK  Name = 
REMARK  2 active torsions:
REMARK  status: ('A' for Active; 'I' for Inactive)
REMARK    1  A    between atoms: C_1  and  C_2
REMARK    2  A    between atoms: N_16  and  C_17
REMARK                            x       y       z     vdW  Elec       q    Type
REMARK                         _______ _______ _______ _____ _____    ______ ____
ROOT
ATOM      1  C   UNL     1      -7.135  14.151  20.663  0.00  0.00    +0.000 C 
ATOM      2  C   UNL     1      -6.904  13.765  22.069  0.00  0.00    +0.000 A 
ATOM      3  N   UNL     1      -7.782  13.845  23.052  0.00  0.00    +0.000 NA
ATOM      4  N   UNL     1      -7.184  13.381  24.196  0.00  0.00    +0.000 NA
ATOM      5  C   UNL     1      -5.958  13.028  23.886  0.00  0.00    +0.000 A 
ATOM      6  C   UNL     1      -4.918  12.477  24.647  0.00  0.00    +0.000 A 
ATOM      7  C   UNL     1      -3.749  12.229  24.046  0.00  0.00    +0.000 A 
ATOM      8  C   UNL     1      -3.566  12.556  22.583  0.00  0.00    +0.000 A 
ATOM      9  N   UNL     1      -2.320  12.323  22.009  0.00  0.00    +0.000 N 
ATOM     10  C   UNL     1      -1.078  12.389  22.771  0.00  0.00    +0.000 C 
ATOM     11  C   UNL     1       0.052  12.154  21.776  0.00  0.00    +0.000 C 
ATOM     12  C   UNL     1      -0.614  11.955  20.398  0.00  0.00    +0.000 C 
ATOM     13  C   UNL     1      -0.704  10.456  20.031  0.00  0.00    +0.000 C 
ATOM     14  C   UNL     1       0.669   9.867  19.703  0.00  0.00    +0.000 C 
ATOM     15  C   UNL     1       1.404  10.705  18.658  0.00  0.00    +0.000 C 
ATOM     16  N   UNL     1       1.497  12.115  19.066  0.00  0.00    +0.000 NA
ATOM     17  C   UNL     1       2.226  12.881  18.052  0.00  0.00    +0.000 C 
ATOM     18  C   UNL     1       0.161  12.696  19.289  0.00  0.00    +0.000 C 
ATOM     19  C   UNL     1      -2.026  12.555  20.596  0.00  0.00    +0.000 C 
ATOM     20  N   UNL     1      -4.547  13.036  21.854  0.00  0.00    +0.000 NA
ATOM     21  N   UNL     1      -5.714  13.252  22.546  0.00  0.00    +0.000 N 
ENDROOT
TORSDOF 0
ENDMDL
