MODEL 1
REMARK VINA RESULT:      -6.9      0.000      0.000
REMARK  Name = 
REMARK  7 active torsions:
REMARK  status: ('A' for Active; 'I' for Inactive)
REMARK    1  A    between atoms: C_1  and  N_2
REMARK    2  A    between atoms: N_2  and  C_3
REMARK    3  A    between atoms: N_2  and  C_4
REMARK    4  A    between atoms: C_4  and  C_5
REMARK    5  A    between atoms: C_5  and  N_6
REMARK    6  A    between atoms: C_12  and  N_13
REMARK    7  A    between atoms: C_14  and  C_16
REMARK                            x       y       z     vdW  Elec       q    Type
REMARK                         _______ _______ _______ _____ _____    ______ ____
ROOT
ATOM      1  N   UNL     1       3.787   4.353  18.568  0.00  0.00    +0.000 N 
ATOM      2  C   UNL     1       4.265   3.318  19.489  0.00  0.00    +0.000 C 
ATOM      3  C   UNL     1       3.112   2.587  20.162  0.00  0.00    +0.000 C 
ATOM      4  S   UNL     1       2.178   3.697  21.251  0.00  0.00    +0.000 S 
ATOM      5  C   UNL     1       2.273   5.229  20.308  0.00  0.00    +0.000 A 
ATOM      6  C   UNL     1       1.548   6.312  20.845  0.00  0.00    +0.000 A 
ATOM      7  C   UNL     1       1.465   7.542  20.192  0.00  0.00    +0.000 A 
ATOM      8  C   UNL     1       2.200   7.693  19.018  0.00  0.00    +0.000 A 
ATOM      9  C   UNL     1       2.951   6.633  18.486  0.00  0.00    +0.000 A 
ATOM     10  C   UNL     1       2.996   5.370  19.100  0.00  0.00    +0.000 A 
ENDROOT
BRANCH   7  11
ATOM     11  N   UNL     1       0.767   8.666  20.674  0.00  0.00    +0.000 NA
ATOM     12  C   UNL     1       1.085   9.321  21.753  0.00  0.00    +0.000 C 
ATOM     13  N   UNL     1       2.120   9.008  22.605  0.00  0.00    +0.000 N 
ATOM     14  H   UNL     1       2.222   8.015  22.765  0.00  0.00    +0.000 HD
ATOM     15  H   UNL     1       2.089   9.540  23.473  0.00  0.00    +0.000 HD
BRANCH  12  16
ATOM     16  C   UNL     1       0.226  10.451  22.093  0.00  0.00    +0.000 A 
ATOM     17  C   UNL     1      -0.854  10.598  22.938  0.00  0.00    +0.000 A 
ATOM     18  C   UNL     1      -1.221  11.966  22.900  0.00  0.00    +0.000 A 
ATOM     19  C   UNL     1      -0.350  12.571  22.024  0.00  0.00    +0.000 A 
ATOM     20  O   UNL     1       0.531  11.664  21.530  0.00  0.00    +0.000 OA
ENDBRANCH  12  16
ENDBRANCH   7  11
BRANCH   1  21
ATOM     21  C   UNL     1       3.844   4.090  17.117  0.00  0.00    +0.000 C 
BRANCH  21  22
ATOM     22  C   UNL     1       5.300   4.011  16.592  0.00  0.00    +0.000 C 
BRANCH  22  24
ATOM     23  C   UNL     1       5.212   6.243  15.687  0.00  0.00    +0.000 C 
ATOM     24  N   UNL     1       5.600   4.854  15.412  0.00  0.00    +0.000 NA
ATOM     25  C   UNL     1       7.017   4.807  15.051  0.00  0.00    +0.000 C 
ENDBRANCH  22  24
ENDBRANCH  21  22
ENDBRANCH   1  21
TORSDOF 5
ENDMDL
MODEL 2
REMARK VINA RESULT:      -6.7      1.125      1.349
REMARK  Name = 
REMARK  7 active torsions:
REMARK  status: ('A' for Active; 'I' for Inactive)
REMARK    1  A    between atoms: C_1  and  N_2
REMARK    2  A    between atoms: N_2  and  C_3
REMARK    3  A    between atoms: N_2  and  C_4
REMARK    4  A    between atoms: C_4  and  C_5
REMARK    5  A    between atoms: C_5  and  N_6
REMARK    6  A    between atoms: C_12  and  N_13
REMARK    7  A    between atoms: C_14  and  C_16
REMARK                            x       y       z     vdW  Elec       q    Type
REMARK                         _______ _______ _______ _____ _____    ______ ____
ROOT
ATOM      1  N   UNL     1       4.112   4.407  18.609  0.00  0.00    +0.000 N 
ATOM      2  C   UNL     1       4.499   3.381  19.580  0.00  0.00    +0.000 C 
ATOM      3  C   UNL     1       3.289   2.632  20.121  0.00  0.00    +0.000 C 
ATOM      4  S   UNL     1       2.220   3.729  21.094  0.00  0.00    +0.000 S 
ATOM      5  C   UNL     1       2.397   5.261  20.164  0.00  0.00    +0.000 A 
ATOM      6  C   UNL     1       1.600   6.333  20.614  0.00  0.00    +0.000 A 
ATOM      7  C   UNL     1       1.573   7.562  19.952  0.00  0.00    +0.000 A 
ATOM      8  C   UNL     1       2.433   7.722  18.868  0.00  0.00    +0.000 A 
ATOM      9  C   UNL     1       3.256   6.674  18.427  0.00  0.00    +0.000 A 
ATOM     10  C   UNL     1       3.250   5.412  19.045  0.00  0.00    +0.000 A 
ENDROOT
BRANCH   7  11
ATOM     11  N   UNL     1       0.808   8.674  20.349  0.00  0.00    +0.000 NA
ATOM     12  C   UNL     1       0.960   9.306  21.477  0.00  0.00    +0.000 C 
ATOM     13  N   UNL     1       1.859   8.975  22.466  0.00  0.00    +0.000 N 
ATOM     14  H   UNL     1       1.939   7.979  22.618  0.00  0.00    +0.000 HD
ATOM     15  H   UNL     1       1.699   9.489  23.331  0.00  0.00    +0.000 HD
BRANCH  12  16
ATOM     16  C   UNL     1       0.057  10.429  21.710  0.00  0.00    +0.000 A 
ATOM     17  C   UNL     1      -0.665  11.252  20.872  0.00  0.00    +0.000 A 
ATOM     18  C   UNL     1      -1.424  12.116  21.700  0.00  0.00    +0.000 A 
ATOM     19  C   UNL     1      -1.109  11.777  22.995  0.00  0.00    +0.000 A 
ATOM     20  O   UNL     1      -0.215  10.757  23.014  0.00  0.00    +0.000 OA
ENDBRANCH  12  16
ENDBRANCH   7  11
BRANCH   1  21
ATOM     21  C   UNL     1       4.336   4.144  17.174  0.00  0.00    +0.000 C 
BRANCH  21  22
ATOM     22  C   UNL     1       5.505   4.985  16.599  0.00  0.00    +0.000 C 
BRANCH  22  24
ATOM     23  C   UNL     1       7.655   4.555  17.601  0.00  0.00    +0.000 C 
ATOM     24  N   UNL     1       6.497   5.458  17.591  0.00  0.00    +0.000 NA
ATOM     25  C   UNL     1       6.946   6.822  17.308  0.00  0.00    +0.000 C 
ENDBRANCH  22  24
ENDBRANCH  21  22
ENDBRANCH   1  21
TORSDOF 5
ENDMDL
MODEL 3
REMARK VINA RESULT:      -6.6      0.773      1.093
REMARK  Name = 
REMARK  7 active torsions:
REMARK  status: ('A' for Active; 'I' for Inactive)
REMARK    1  A    between atoms: C_1  and  N_2
REMARK    2  A    between atoms: N_2  and  C_3
REMARK    3  A    between atoms: N_2  and  C_4
REMARK    4  A    between atoms: C_4  and  C_5
REMARK    5  A    between atoms: C_5  and  N_6
REMARK    6  A    between atoms: C_12  and  N_13
REMARK    7  A    between atoms: C_14  and  C_16
REMARK                            x       y       z     vdW  Elec       q    Type
REMARK                         _______ _______ _______ _____ _____    ______ ____
ROOT
ATOM      1  N   UNL     1       4.280   4.286  18.801  0.00  0.00    +0.000 N 
ATOM      2  C   UNL     1       4.620   3.238  19.767  0.00  0.00    +0.000 C 
ATOM      3  C   UNL     1       3.387   2.469  20.221  0.00  0.00    +0.000 C 
ATOM      4  S   UNL     1       2.259   3.536  21.160  0.00  0.00    +0.000 S 
ATOM      5  C   UNL     1       2.477   5.091  20.279  0.00  0.00    +0.000 A 
ATOM      6  C   UNL     1       1.648   6.147  20.710  0.00  0.00    +0.000 A 
ATOM      7  C   UNL     1       1.649   7.392  20.078  0.00  0.00    +0.000 A 
ATOM      8  C   UNL     1       2.567   7.584  19.047  0.00  0.00    +0.000 A 
ATOM      9  C   UNL     1       3.420   6.551  18.627  0.00  0.00    +0.000 A 
ATOM     10  C   UNL     1       3.389   5.275  19.213  0.00  0.00    +0.000 A 
ENDROOT
BRANCH   7  11
ATOM     11  N   UNL     1       0.855   8.490  20.459  0.00  0.00    +0.000 NA
ATOM     12  C   UNL     1       1.021   9.170  21.557  0.00  0.00    +0.000 C 
ATOM     13  N   UNL     1       1.964   8.911  22.526  0.00  0.00    +0.000 N 
ATOM     14  H   UNL     1       2.087   7.925  22.712  0.00  0.00    +0.000 HD
ATOM     15  H   UNL     1       1.812   9.452  23.376  0.00  0.00    +0.000 HD
BRANCH  12  16
ATOM     16  C   UNL     1       0.084  10.267  21.779  0.00  0.00    +0.000 A 
ATOM     17  C   UNL     1      -0.663  11.059  20.932  0.00  0.00    +0.000 A 
ATOM     18  C   UNL     1      -1.448  11.908  21.752  0.00  0.00    +0.000 A 
ATOM     19  C   UNL     1      -1.124  11.592  23.050  0.00  0.00    +0.000 A 
ATOM     20  O   UNL     1      -0.198  10.600  23.079  0.00  0.00    +0.000 OA
ENDBRANCH  12  16
ENDBRANCH   7  11
BRANCH   1  21
ATOM     21  C   UNL     1       4.585   4.060  17.374  0.00  0.00    +0.000 C 
BRANCH  21  22
ATOM     22  C   UNL     1       6.040   4.457  17.016  0.00  0.00    +0.000 C 
BRANCH  22  24
ATOM     23  C   UNL     1       5.974   4.103  14.632  0.00  0.00    +0.000 C 
ATOM     24  N   UNL     1       6.221   5.090  15.690  0.00  0.00    +0.000 NA
ATOM     25  C   UNL     1       5.329   6.235  15.504  0.00  0.00    +0.000 C 
ENDBRANCH  22  24
ENDBRANCH  21  22
ENDBRANCH   1  21
TORSDOF 5
ENDMDL
MODEL 4
REMARK VINA RESULT:      -6.5      0.917      1.068
REMARK  Name = 
REMARK  7 active torsions:
REMARK  status: ('A' for Active; 'I' for Inactive)
REMARK    1  A    between atoms: C_1  and  N_2
REMARK    2  A    between atoms: N_2  and  C_3
REMARK    3  A    between atoms: N_2  and  C_4
REMARK    4  A    between atoms: C_4  and  C_5
REMARK    5  A    between atoms: C_5  and  N_6
REMARK    6  A    between atoms: C_12  and  N_13
REMARK    7  A    between atoms: C_14  and  C_16
REMARK                            x       y       z     vdW  Elec       q    Type
REMARK                         _______ _______ _______ _____ _____    ______ ____
ROOT
ATOM      1  N   UNL     1       4.132   4.243  18.418  0.00  0.00    +0.000 N 
ATOM      2  C   UNL     1       4.480   3.304  19.488  0.00  0.00    +0.000 C 
ATOM      3  C   UNL     1       3.240   2.708  20.139  0.00  0.00    +0.000 C 
ATOM      4  S   UNL     1       2.282   3.978  21.011  0.00  0.00    +0.000 S 
ATOM      5  C   UNL     1       2.533   5.383  19.913  0.00  0.00    +0.000 A 
ATOM      6  C   UNL     1       1.826   6.552  20.260  0.00  0.00    +0.000 A 
ATOM      7  C   UNL     1       1.861   7.700  19.467  0.00  0.00    +0.000 A 
ATOM      8  C   UNL     1       2.694   7.679  18.349  0.00  0.00    +0.000 A 
ATOM      9  C   UNL     1       3.427   6.532  18.007  0.00  0.00    +0.000 A 
ATOM     10  C   UNL     1       3.356   5.349  18.762  0.00  0.00    +0.000 A 
ENDROOT
BRANCH   7  11
ATOM     11  N   UNL     1       1.188   8.901  19.756  0.00  0.00    +0.000 NA
ATOM     12  C   UNL     1       1.079   9.413  20.949  0.00  0.00    +0.000 C 
ATOM     13  N   UNL     1       1.568   8.855  22.108  0.00  0.00    +0.000 N 
ATOM     14  H   UNL     1       1.447   7.853  22.154  0.00  0.00    +0.000 HD
ATOM     15  H   UNL     1       1.228   9.326  22.945  0.00  0.00    +0.000 HD
BRANCH  12  16
ATOM     16  C   UNL     1       0.328  10.660  21.045  0.00  0.00    +0.000 A 
ATOM     17  C   UNL     1      -0.403  11.397  20.136  0.00  0.00    +0.000 A 
ATOM     18  C   UNL     1      -0.967  12.484  20.849  0.00  0.00    +0.000 A 
ATOM     19  C   UNL     1      -0.536  12.354  22.147  0.00  0.00    +0.000 A 
ATOM     20  O   UNL     1       0.247  11.254  22.279  0.00  0.00    +0.000 OA
ENDBRANCH  12  16
ENDBRANCH   7  11
BRANCH   1  21
ATOM     21  C   UNL     1       4.289   3.810  17.016  0.00  0.00    +0.000 C 
BRANCH  21  22
ATOM     22  C   UNL     1       5.755   3.929  16.527  0.00  0.00    +0.000 C 
BRANCH  22  24
ATOM     23  C   UNL     1       6.945   6.018  16.700  0.00  0.00    +0.000 C 
ATOM     24  N   UNL     1       6.096   5.192  15.833  0.00  0.00    +0.000 NA
ATOM     25  C   UNL     1       6.783   4.952  14.564  0.00  0.00    +0.000 C 
ENDBRANCH  22  24
ENDBRANCH  21  22
ENDBRANCH   1  21
TORSDOF 5
ENDMDL
MODEL 5
REMARK VINA RESULT:      -6.5      2.089      3.663
REMARK  Name = 
REMARK  7 active torsions:
REMARK  status: ('A' for Active; 'I' for Inactive)
REMARK    1  A    between atoms: C_1  and  N_2
REMARK    2  A    between atoms: N_2  and  C_3
REMARK    3  A    between atoms: N_2  and  C_4
REMARK    4  A    between atoms: C_4  and  C_5
REMARK    5  A    between atoms: C_5  and  N_6
REMARK    6  A    between atoms: C_12  and  N_13
REMARK    7  A    between atoms: C_14  and  C_16
REMARK                            x       y       z     vdW  Elec       q    Type
REMARK                         _______ _______ _______ _____ _____    ______ ____
ROOT
ATOM      1  N   UNL     1       4.230   3.903  17.053  0.00  0.00    +0.000 N 
ATOM      2  C   UNL     1       5.368   4.000  16.135  0.00  0.00    +0.000 C 
ATOM      3  C   UNL     1       6.533   4.753  16.761  0.00  0.00    +0.000 C 
ATOM      4  S   UNL     1       6.105   6.491  17.060  0.00  0.00    +0.000 S 
ATOM      5  C   UNL     1       4.371   6.323  17.514  0.00  0.00    +0.000 A 
ATOM      6  C   UNL     1       3.734   7.517  17.909  0.00  0.00    +0.000 A 
ATOM      7  C   UNL     1       2.413   7.537  18.358  0.00  0.00    +0.000 A 
ATOM      8  C   UNL     1       1.709   6.334  18.324  0.00  0.00    +0.000 A 
ATOM      9  C   UNL     1       2.321   5.143  17.904  0.00  0.00    +0.000 A 
ATOM     10  C   UNL     1       3.667   5.096  17.506  0.00  0.00    +0.000 A 
ENDROOT
BRANCH   7  11
ATOM     11  N   UNL     1       1.715   8.691  18.760  0.00  0.00    +0.000 NA
ATOM     12  C   UNL     1       1.397   8.964  19.993  0.00  0.00    +0.000 C 
ATOM     13  N   UNL     1       1.660   8.167  21.084  0.00  0.00    +0.000 N 
ATOM     14  H   UNL     1       1.519   7.182  20.906  0.00  0.00    +0.000 HD
ATOM     15  H   UNL     1       1.180   8.482  21.926  0.00  0.00    +0.000 HD
BRANCH  12  16
ATOM     16  C   UNL     1       0.658  10.205  20.204  0.00  0.00    +0.000 A 
ATOM     17  C   UNL     1      -0.440  10.768  19.589  0.00  0.00    +0.000 A 
ATOM     18  C   UNL     1      -0.740  11.959  20.297  0.00  0.00    +0.000 A 
ATOM     19  C   UNL     1       0.202  12.058  21.294  0.00  0.00    +0.000 A 
ATOM     20  O   UNL     1       1.053  11.002  21.249  0.00  0.00    +0.000 OA
ENDBRANCH  12  16
ENDBRANCH   7  11
BRANCH   1  21
ATOM     21  C   UNL     1       3.970   2.616  17.728  0.00  0.00    +0.000 C 
BRANCH  21  22
ATOM     22  C   UNL     1       4.072   2.731  19.270  0.00  0.00    +0.000 C 
BRANCH  22  24
ATOM     23  C   UNL     1       2.603   3.076  21.150  0.00  0.00    +0.000 C 
ATOM     24  N   UNL     1       2.923   2.186  20.028  0.00  0.00    +0.000 NA
ATOM     25  C   UNL     1       1.739   2.022  19.184  0.00  0.00    +0.000 C 
ENDBRANCH  22  24
ENDBRANCH  21  22
ENDBRANCH   1  21
TORSDOF 5
ENDMDL
MODEL 6
REMARK VINA RESULT:      -6.4      0.955      1.106
REMARK  Name = 
REMARK  7 active torsions:
REMARK  status: ('A' for Active; 'I' for Inactive)
REMARK    1  A    between atoms: C_1  and  N_2
REMARK    2  A    between atoms: N_2  and  C_3
REMARK    3  A    between atoms: N_2  and  C_4
REMARK    4  A    between atoms: C_4  and  C_5
REMARK    5  A    between atoms: C_5  and  N_6
REMARK    6  A    between atoms: C_12  and  N_13
REMARK    7  A    between atoms: C_14  and  C_16
REMARK                            x       y       z     vdW  Elec       q    Type
REMARK                         _______ _______ _______ _____ _____    ______ ____
ROOT
ATOM      1  N   UNL     1       4.477   4.675  18.086  0.00  0.00    +0.000 N 
ATOM      2  C   UNL     1       4.887   3.635  19.034  0.00  0.00    +0.000 C 
ATOM      3  C   UNL     1       3.694   2.847  19.556  0.00  0.00    +0.000 C 
ATOM      4  S   UNL     1       2.602   3.896  20.555  0.00  0.00    +0.000 S 
ATOM      5  C   UNL     1       2.744   5.453  19.662  0.00  0.00    +0.000 A 
ATOM      6  C   UNL     1       1.923   6.496  20.136  0.00  0.00    +0.000 A 
ATOM      7  C   UNL     1       1.869   7.739  19.504  0.00  0.00    +0.000 A 
ATOM      8  C   UNL     1       2.725   7.944  18.424  0.00  0.00    +0.000 A 
ATOM      9  C   UNL     1       3.570   6.925  17.958  0.00  0.00    +0.000 A 
ATOM     10  C   UNL     1       3.593   5.650  18.547  0.00  0.00    +0.000 A 
ENDROOT
BRANCH   7  11
ATOM     11  N   UNL     1       1.079   8.825  19.926  0.00  0.00    +0.000 NA
ATOM     12  C   UNL     1       1.040   9.273  21.148  0.00  0.00    +0.000 C 
ATOM     13  N   UNL     1       1.730   8.747  22.217  0.00  0.00    +0.000 N 
ATOM     14  H   UNL     1       1.749   7.736  22.224  0.00  0.00    +0.000 HD
ATOM     15  H   UNL     1       1.429   9.137  23.109  0.00  0.00    +0.000 HD
BRANCH  12  16
ATOM     16  C   UNL     1       0.146  10.401  21.389  0.00  0.00    +0.000 A 
ATOM     17  C   UNL     1      -0.542  10.842  22.500  0.00  0.00    +0.000 A 
ATOM     18  C   UNL     1      -1.189  12.048  22.129  0.00  0.00    +0.000 A 
ATOM     19  C   UNL     1      -0.867  12.264  20.810  0.00  0.00    +0.000 A 
ATOM     20  O   UNL     1      -0.059  11.275  20.351  0.00  0.00    +0.000 OA
ENDBRANCH  12  16
ENDBRANCH   7  11
BRANCH   1  21
ATOM     21  C   UNL     1       4.706   4.451  16.646  0.00  0.00    +0.000 C 
BRANCH  21  22
ATOM     22  C   UNL     1       6.096   3.824  16.364  0.00  0.00    +0.000 C 
BRANCH  22  24
ATOM     23  C   UNL     1       6.936   4.964  14.413  0.00  0.00    +0.000 C 
ATOM     24  N   UNL     1       7.125   4.758  15.854  0.00  0.00    +0.000 NA
ATOM     25  C   UNL     1       7.080   6.050  16.540  0.00  0.00    +0.000 C 
ENDBRANCH  22  24
ENDBRANCH  21  22
ENDBRANCH   1  21
TORSDOF 5
ENDMDL
MODEL 7
REMARK VINA RESULT:      -6.4      1.071      1.453
REMARK  Name = 
REMARK  7 active torsions:
REMARK  status: ('A' for Active; 'I' for Inactive)
REMARK    1  A    between atoms: C_1  and  N_2
REMARK    2  A    between atoms: N_2  and  C_3
REMARK    3  A    between atoms: N_2  and  C_4
REMARK    4  A    between atoms: C_4  and  C_5
REMARK    5  A    between atoms: C_5  and  N_6
REMARK    6  A    between atoms: C_12  and  N_13
REMARK    7  A    between atoms: C_14  and  C_16
REMARK                            x       y       z     vdW  Elec       q    Type
REMARK                         _______ _______ _______ _____ _____    ______ ____
ROOT
ATOM      1  N   UNL     1       3.741   4.021  18.272  0.00  0.00    +0.000 N 
ATOM      2  C   UNL     1       3.971   2.744  18.954  0.00  0.00    +0.000 C 
ATOM      3  C   UNL     1       2.662   2.062  19.327  0.00  0.00    +0.000 C 
ATOM      4  S   UNL     1       1.751   3.025  20.566  0.00  0.00    +0.000 S 
ATOM      5  C   UNL     1       2.152   4.698  20.034  0.00  0.00    +0.000 A 
ATOM      6  C   UNL     1       1.510   5.728  20.751  0.00  0.00    +0.000 A 
ATOM      7  C   UNL     1       1.663   7.072  20.410  0.00  0.00    +0.000 A 
ATOM      8  C   UNL     1       2.547   7.372  19.376  0.00  0.00    +0.000 A 
ATOM      9  C   UNL     1       3.216   6.359  18.671  0.00  0.00    +0.000 A 
ATOM     10  C   UNL     1       3.027   4.998  18.963  0.00  0.00    +0.000 A 
ENDROOT
BRANCH   7  11
ATOM     11  N   UNL     1       1.059   8.149  21.086  0.00  0.00    +0.000 NA
ATOM     12  C   UNL     1       0.690   9.260  20.515  0.00  0.00    +0.000 C 
ATOM     13  N   UNL     1       0.856   9.571  19.185  0.00  0.00    +0.000 N 
ATOM     14  H   UNL     1       1.747   9.274  18.811  0.00  0.00    +0.000 HD
ATOM     15  H   UNL     1       0.655  10.549  18.982  0.00  0.00    +0.000 HD
BRANCH  12  16
ATOM     16  C   UNL     1       0.096  10.264  21.392  0.00  0.00    +0.000 A 
ATOM     17  C   UNL     1       0.066  11.643  21.368  0.00  0.00    +0.000 A 
ATOM     18  C   UNL     1      -0.741  12.054  22.458  0.00  0.00    +0.000 A 
ATOM     19  C   UNL     1      -1.145  10.902  23.090  0.00  0.00    +0.000 A 
ATOM     20  O   UNL     1      -0.646   9.812  22.454  0.00  0.00    +0.000 OA
ENDBRANCH  12  16
ENDBRANCH   7  11
BRANCH   1  21
ATOM     21  C   UNL     1       3.938   4.089  16.811  0.00  0.00    +0.000 C 
BRANCH  21  22
ATOM     22  C   UNL     1       5.376   3.685  16.394  0.00  0.00    +0.000 C 
BRANCH  22  24
ATOM     23  C   UNL     1       7.321   4.597  17.487  0.00  0.00    +0.000 C 
ATOM     24  N   UNL     1       6.369   4.782  16.384  0.00  0.00    +0.000 NA
ATOM     25  C   UNL     1       7.099   4.849  15.118  0.00  0.00    +0.000 C 
ENDBRANCH  22  24
ENDBRANCH  21  22
ENDBRANCH   1  21
TORSDOF 5
ENDMDL
MODEL 8
REMARK VINA RESULT:      -6.4      1.665      1.993
REMARK  Name = 
REMARK  7 active torsions:
REMARK  status: ('A' for Active; 'I' for Inactive)
REMARK    1  A    between atoms: C_1  and  N_2
REMARK    2  A    between atoms: N_2  and  C_3
REMARK    3  A    between atoms: N_2  and  C_4
REMARK    4  A    between atoms: C_4  and  C_5
REMARK    5  A    between atoms: C_5  and  N_6
REMARK    6  A    between atoms: C_12  and  N_13
REMARK    7  A    between atoms: C_14  and  C_16
REMARK                            x       y       z     vdW  Elec       q    Type
REMARK                         _______ _______ _______ _____ _____    ______ ____
ROOT
ATOM      1  N   UNL     1       3.897   4.408  18.271  0.00  0.00    +0.000 N 
ATOM      2  C   UNL     1       4.214   3.438  19.323  0.00  0.00    +0.000 C 
ATOM      3  C   UNL     1       2.959   2.942  20.028  0.00  0.00    +0.000 C 
ATOM      4  S   UNL     1       2.150   4.283  20.945  0.00  0.00    +0.000 S 
ATOM      5  C   UNL     1       2.466   5.667  19.838  0.00  0.00    +0.000 A 
ATOM      6  C   UNL     1       1.874   6.889  20.218  0.00  0.00    +0.000 A 
ATOM      7  C   UNL     1       1.969   8.034  19.426  0.00  0.00    +0.000 A 
ATOM      8  C   UNL     1       2.746   7.950  18.272  0.00  0.00    +0.000 A 
ATOM      9  C   UNL     1       3.366   6.749  17.896  0.00  0.00    +0.000 A 
ATOM     10  C   UNL     1       3.231   5.572  18.651  0.00  0.00    +0.000 A 
ENDROOT
BRANCH   7  11
ATOM     11  N   UNL     1       1.410   9.286  19.747  0.00  0.00    +0.000 NA
ATOM     12  C   UNL     1       0.647   9.976  18.949  0.00  0.00    +0.000 C 
ATOM     13  N   UNL     1       0.293   9.617  17.668  0.00  0.00    +0.000 N 
ATOM     14  H   UNL     1       1.052   9.203  17.143  0.00  0.00    +0.000 HD
ATOM     15  H   UNL     1      -0.165  10.371  17.160  0.00  0.00    +0.000 HD
BRANCH  12  16
ATOM     16  C   UNL     1       0.179  11.260  19.462  0.00  0.00    +0.000 A 
ATOM     17  C   UNL     1       0.626  12.100  20.460  0.00  0.00    +0.000 A 
ATOM     18  C   UNL     1      -0.207  13.246  20.434  0.00  0.00    +0.000 A 
ATOM     19  C   UNL     1      -1.121  13.032  19.429  0.00  0.00    +0.000 A 
ATOM     20  O   UNL     1      -0.897  11.834  18.833  0.00  0.00    +0.000 OA
ENDBRANCH  12  16
ENDBRANCH   7  11
BRANCH   1  21
ATOM     21  C   UNL     1       3.955   3.970  16.863  0.00  0.00    +0.000 C 
BRANCH  21  22
ATOM     22  C   UNL     1       5.411   3.859  16.343  0.00  0.00    +0.000 C 
BRANCH  22  24
ATOM     23  C   UNL     1       6.807   5.801  16.648  0.00  0.00    +0.000 C 
ATOM     24  N   UNL     1       5.953   5.077  15.698  0.00  0.00    +0.000 NA
ATOM     25  C   UNL     1       6.722   4.764  14.494  0.00  0.00    +0.000 C 
ENDBRANCH  22  24
ENDBRANCH  21  22
ENDBRANCH   1  21
TORSDOF 5
ENDMDL
MODEL 9
REMARK VINA RESULT:      -6.3      3.042      8.305
REMARK  Name = 
REMARK  7 active torsions:
REMARK  status: ('A' for Active; 'I' for Inactive)
REMARK    1  A    between atoms: C_1  and  N_2
REMARK    2  A    between atoms: N_2  and  C_3
REMARK    3  A    between atoms: N_2  and  C_4
REMARK    4  A    between atoms: C_4  and  C_5
REMARK    5  A    between atoms: C_5  and  N_6
REMARK    6  A    between atoms: C_12  and  N_13
REMARK    7  A    between atoms: C_14  and  C_16
REMARK                            x       y       z     vdW  Elec       q    Type
REMARK                         _______ _______ _______ _____ _____    ______ ____
ROOT
ATOM      1  N   UNL     1       1.906   5.469  20.291  0.00  0.00    +0.000 N 
ATOM      2  C   UNL     1       1.206   4.295  20.822  0.00  0.00    +0.000 C 
ATOM      3  C   UNL     1       2.180   3.206  21.250  0.00  0.00    +0.000 C 
ATOM      4  S   UNL     1       3.078   2.532  19.826  0.00  0.00    +0.000 S 
ATOM      5  C   UNL     1       3.267   4.020  18.829  0.00  0.00    +0.000 A 
ATOM      6  C   UNL     1       4.026   3.863  17.652  0.00  0.00    +0.000 A 
ATOM      7  C   UNL     1       4.321   4.939  16.814  0.00  0.00    +0.000 A 
ATOM      8  C   UNL     1       3.764   6.174  17.140  0.00  0.00    +0.000 A 
ATOM      9  C   UNL     1       2.980   6.340  18.293  0.00  0.00    +0.000 A 
ATOM     10  C   UNL     1       2.724   5.279  19.178  0.00  0.00    +0.000 A 
ENDROOT
BRANCH   7  11
ATOM     11  N   UNL     1       5.066   4.854  15.623  0.00  0.00    +0.000 NA
ATOM     12  C   UNL     1       6.367   4.855  15.568  0.00  0.00    +0.000 C 
ATOM     13  N   UNL     1       7.214   4.971  16.647  0.00  0.00    +0.000 N 
ATOM     14  H   UNL     1       6.900   5.642  17.334  0.00  0.00    +0.000 HD
ATOM     15  H   UNL     1       8.183   5.120  16.371  0.00  0.00    +0.000 HD
BRANCH  12  16
ATOM     16  C   UNL     1       6.952   4.773  14.234  0.00  0.00    +0.000 A 
ATOM     17  C   UNL     1       6.662   4.016  13.118  0.00  0.00    +0.000 A 
ATOM     18  C   UNL     1       7.542   4.445  12.092  0.00  0.00    +0.000 A 
ATOM     19  C   UNL     1       8.325   5.429  12.647  0.00  0.00    +0.000 A 
ATOM     20  O   UNL     1       7.977   5.638  13.942  0.00  0.00    +0.000 OA
ENDBRANCH  12  16
ENDBRANCH   7  11
BRANCH   1  21
ATOM     21  C   UNL     1       2.009   6.674  21.136  0.00  0.00    +0.000 C 
BRANCH  21  22
ATOM     22  C   UNL     1       1.384   7.921  20.459  0.00  0.00    +0.000 C 
BRANCH  22  24
ATOM     23  C   UNL     1       1.097   9.189  22.489  0.00  0.00    +0.000 C 
ATOM     24  N   UNL     1       0.422   8.681  21.288  0.00  0.00    +0.000 NA
ATOM     25  C   UNL     1      -0.169   9.800  20.553  0.00  0.00    +0.000 C 
ENDBRANCH  22  24
ENDBRANCH  21  22
ENDBRANCH   1  21
TORSDOF 5
ENDMDL
