MODEL 1
REMARK VINA RESULT:      -7.3      0.000      0.000
REMARK  Name = 
REMARK  2 active torsions:
REMARK  status: ('A' for Active; 'I' for Inactive)
REMARK    1  A    between atoms: C_2  and  C_4
REMARK    2  A    between atoms: C_7  and  N_8
REMARK                            x       y       z     vdW  Elec       q    Type
REMARK                         _______ _______ _______ _____ _____    ______ ____
ROOT
ATOM      1  N   UNL     1       1.672   8.807  19.289  0.00  0.00    +0.000 N 
ATOM      2  C   UNL     1       1.249   9.635  18.134  0.00  0.00    +0.000 C 
ATOM      3  C   UNL     1      -0.250  10.030  18.211  0.00  0.00    +0.000 C 
ATOM      4  N   UNL     1      -0.665  10.453  19.563  0.00  0.00    +0.000 N 
ATOM      5  C   UNL     1      -1.371  11.622  19.693  0.00  0.00    +0.000 C 
ATOM      6  O   UNL     1      -1.807  12.171  18.674  0.00  0.00    +0.000 OA
ATOM      7  N   UNL     1      -1.605  12.204  20.916  0.00  0.00    +0.000 N 
ATOM      8  C   UNL     1      -1.017  11.966  22.238  0.00  0.00    +0.000 C 
ATOM      9  C   UNL     1      -2.150  11.703  23.238  0.00  0.00    +0.000 C 
ATOM     10  O   UNL     1      -3.005  12.858  23.325  0.00  0.00    +0.000 OA
ATOM     11  C   UNL     1      -3.575  13.180  22.043  0.00  0.00    +0.000 C 
ATOM     12  C   UNL     1      -2.500  13.373  20.965  0.00  0.00    +0.000 C 
ATOM     13  C   UNL     1      -0.331   9.427  20.554  0.00  0.00    +0.000 C 
ATOM     14  C   UNL     1       1.198   9.285  20.602  0.00  0.00    +0.000 C 
ENDROOT
BRANCH   1  18
ATOM     15  C   UNL     1       3.535   5.047  18.782  0.00  0.00    +0.000 A 
ATOM     16  C   UNL     1       3.659   6.038  17.808  0.00  0.00    +0.000 A 
ATOM     17  C   UNL     1       3.031   7.279  17.984  0.00  0.00    +0.000 A 
ATOM     18  C   UNL     1       2.260   7.569  19.121  0.00  0.00    +0.000 A 
ATOM     19  C   UNL     1       2.141   6.545  20.076  0.00  0.00    +0.000 A 
ATOM     20  C   UNL     1       2.761   5.300  19.913  0.00  0.00    +0.000 A 
BRANCH  15  22
ATOM     21  N   UNL     1       5.507   3.648  19.029  0.00  0.00    +0.000 N 
ATOM     22  C   UNL     1       4.196   3.721  18.649  0.00  0.00    +0.000 C 
ATOM     23  O   UNL     1       3.588   2.734  18.252  0.00  0.00    +0.000 OA
ATOM     24  H   UNL     1       5.915   2.722  19.042  0.00  0.00    +0.000 HD
ATOM     25  H   UNL     1       5.943   4.362  19.597  0.00  0.00    +0.000 HD
ENDBRANCH  15  22
ENDBRANCH   1  18
TORSDOF 2
ENDMDL
MODEL 2
REMARK VINA RESULT:      -7.3      0.807      1.302
REMARK  Name = 
REMARK  2 active torsions:
REMARK  status: ('A' for Active; 'I' for Inactive)
REMARK    1  A    between atoms: C_2  and  C_4
REMARK    2  A    between atoms: C_7  and  N_8
REMARK                            x       y       z     vdW  Elec       q    Type
REMARK                         _______ _______ _______ _____ _____    ______ ____
ROOT
ATOM      1  N   UNL     1       1.882   8.222  19.718  0.00  0.00    +0.000 N 
ATOM      2  C   UNL     1       1.756   9.112  18.538  0.00  0.00    +0.000 C 
ATOM      3  C   UNL     1       0.335   9.725  18.413  0.00  0.00    +0.000 C 
ATOM      4  N   UNL     1      -0.204  10.194  19.705  0.00  0.00    +0.000 N 
ATOM      5  C   UNL     1      -0.744  11.454  19.767  0.00  0.00    +0.000 C 
ATOM      6  O   UNL     1      -0.943  12.069  18.712  0.00  0.00    +0.000 OA
ATOM      7  N   UNL     1      -1.064  12.055  20.961  0.00  0.00    +0.000 N 
ATOM      8  C   UNL     1      -0.714  11.722  22.346  0.00  0.00    +0.000 C 
ATOM      9  C   UNL     1      -2.006  11.623  23.166  0.00  0.00    +0.000 C 
ATOM     10  O   UNL     1      -2.687  12.892  23.165  0.00  0.00    +0.000 OA
ATOM     11  C   UNL     1      -3.013  13.305  21.825  0.00  0.00    +0.000 C 
ATOM     12  C   UNL     1      -1.776  13.343  20.916  0.00  0.00    +0.000 C 
ATOM     13  C   UNL     1      -0.170   9.123  20.703  0.00  0.00    +0.000 C 
ATOM     14  C   UNL     1       1.298   8.754  20.963  0.00  0.00    +0.000 C 
ENDROOT
BRANCH   1  18
ATOM     15  C   UNL     1       3.101   4.191  19.342  0.00  0.00    +0.000 A 
ATOM     16  C   UNL     1       2.322   4.600  20.425  0.00  0.00    +0.000 A 
ATOM     17  C   UNL     1       1.929   5.940  20.543  0.00  0.00    +0.000 A 
ATOM     18  C   UNL     1       2.302   6.910  19.599  0.00  0.00    +0.000 A 
ATOM     19  C   UNL     1       3.099   6.472  18.529  0.00  0.00    +0.000 A 
ATOM     20  C   UNL     1       3.501   5.136  18.399  0.00  0.00    +0.000 A 
BRANCH  15  22
ATOM     21  N   UNL     1       4.788   2.459  19.587  0.00  0.00    +0.000 N 
ATOM     22  C   UNL     1       3.528   2.778  19.164  0.00  0.00    +0.000 C 
ATOM     23  O   UNL     1       2.777   1.931  18.693  0.00  0.00    +0.000 OA
ATOM     24  H   UNL     1       5.029   1.477  19.565  0.00  0.00    +0.000 HD
ATOM     25  H   UNL     1       5.315   3.059  20.207  0.00  0.00    +0.000 HD
ENDBRANCH  15  22
ENDBRANCH   1  18
TORSDOF 2
ENDMDL
MODEL 3
REMARK VINA RESULT:      -7.0      2.309      3.474
REMARK  Name = 
REMARK  2 active torsions:
REMARK  status: ('A' for Active; 'I' for Inactive)
REMARK    1  A    between atoms: C_2  and  C_4
REMARK    2  A    between atoms: C_7  and  N_8
REMARK                            x       y       z     vdW  Elec       q    Type
REMARK                         _______ _______ _______ _____ _____    ______ ____
ROOT
ATOM      1  N   UNL     1       2.324   6.990  18.372  0.00  0.00    +0.000 N 
ATOM      2  C   UNL     1       1.887   6.647  19.747  0.00  0.00    +0.000 C 
ATOM      3  C   UNL     1       1.861   7.885  20.683  0.00  0.00    +0.000 C 
ATOM      4  N   UNL     1       1.276   9.080  20.041  0.00  0.00    +0.000 N 
ATOM      5  C   UNL     1       0.314   9.781  20.722  0.00  0.00    +0.000 C 
ATOM      6  O   UNL     1       0.116   9.516  21.914  0.00  0.00    +0.000 OA
ATOM      7  N   UNL     1      -0.438  10.763  20.122  0.00  0.00    +0.000 N 
ATOM      8  C   UNL     1      -0.635  11.117  18.713  0.00  0.00    +0.000 C 
ATOM      9  C   UNL     1      -0.321  12.608  18.535  0.00  0.00    +0.000 C 
ATOM     10  O   UNL     1      -1.226  13.398  19.330  0.00  0.00    +0.000 OA
ATOM     11  C   UNL     1      -1.121  13.060  20.725  0.00  0.00    +0.000 C 
ATOM     12  C   UNL     1      -1.337  11.560  20.973  0.00  0.00    +0.000 C 
ATOM     13  C   UNL     1       1.957   9.377  18.778  0.00  0.00    +0.000 C 
ATOM     14  C   UNL     1       1.710   8.209  17.812  0.00  0.00    +0.000 C 
ENDROOT
BRANCH   1  18
ATOM     15  C   UNL     1       5.540   5.016  16.467  0.00  0.00    +0.000 A 
ATOM     16  C   UNL     1       4.505   4.287  17.052  0.00  0.00    +0.000 A 
ATOM     17  C   UNL     1       3.447   4.952  17.686  0.00  0.00    +0.000 A 
ATOM     18  C   UNL     1       3.389   6.352  17.766  0.00  0.00    +0.000 A 
ATOM     19  C   UNL     1       4.453   7.059  17.182  0.00  0.00    +0.000 A 
ATOM     20  C   UNL     1       5.518   6.408  16.546  0.00  0.00    +0.000 A 
BRANCH  15  22
ATOM     21  N   UNL     1       6.372   3.651  14.637  0.00  0.00    +0.000 N 
ATOM     22  C   UNL     1       6.675   4.358  15.767  0.00  0.00    +0.000 C 
ATOM     23  O   UNL     1       7.829   4.470  16.162  0.00  0.00    +0.000 OA
ATOM     24  H   UNL     1       7.160   3.301  14.107  0.00  0.00    +0.000 HD
ATOM     25  H   UNL     1       5.492   3.762  14.152  0.00  0.00    +0.000 HD
ENDBRANCH  15  22
ENDBRANCH   1  18
TORSDOF 2
ENDMDL
MODEL 4
REMARK VINA RESULT:      -7.0      2.196      8.902
REMARK  Name = 
REMARK  2 active torsions:
REMARK  status: ('A' for Active; 'I' for Inactive)
REMARK    1  A    between atoms: C_2  and  C_4
REMARK    2  A    between atoms: C_7  and  N_8
REMARK                            x       y       z     vdW  Elec       q    Type
REMARK                         _______ _______ _______ _____ _____    ______ ____
ROOT
ATOM      1  N   UNL     1       1.505   9.064  19.113  0.00  0.00    +0.000 N 
ATOM      2  C   UNL     1       1.801   8.212  20.290  0.00  0.00    +0.000 C 
ATOM      3  C   UNL     1       2.113   6.745  19.890  0.00  0.00    +0.000 C 
ATOM      4  N   UNL     1       3.001   6.646  18.715  0.00  0.00    +0.000 N 
ATOM      5  C   UNL     1       4.090   5.814  18.788  0.00  0.00    +0.000 C 
ATOM      6  O   UNL     1       4.180   5.034  19.743  0.00  0.00    +0.000 OA
ATOM      7  N   UNL     1       5.084   5.826  17.839  0.00  0.00    +0.000 N 
ATOM      8  C   UNL     1       5.405   6.780  16.773  0.00  0.00    +0.000 C 
ATOM      9  C   UNL     1       5.487   6.020  15.443  0.00  0.00    +0.000 C 
ATOM     10  O   UNL     1       6.539   5.039  15.503  0.00  0.00    +0.000 OA
ATOM     11  C   UNL     1       6.311   4.098  16.568  0.00  0.00    +0.000 C 
ATOM     12  C   UNL     1       6.132   4.794  17.925  0.00  0.00    +0.000 C 
ATOM     13  C   UNL     1       2.455   7.403  17.585  0.00  0.00    +0.000 C 
ATOM     14  C   UNL     1       2.425   8.889  17.973  0.00  0.00    +0.000 C 
ENDROOT
BRANCH   1  18
ATOM     15  C   UNL     1      -2.123  11.211  18.806  0.00  0.00    +0.000 A 
ATOM     16  C   UNL     1      -1.673  10.423  17.746  0.00  0.00    +0.000 A 
ATOM     17  C   UNL     1      -0.464   9.721  17.857  0.00  0.00    +0.000 A 
ATOM     18  C   UNL     1       0.331   9.785  19.012  0.00  0.00    +0.000 A 
ATOM     19  C   UNL     1      -0.141  10.599  20.055  0.00  0.00    +0.000 A 
ATOM     20  C   UNL     1      -1.346  11.308  19.958  0.00  0.00    +0.000 A 
BRANCH  15  22
ATOM     21  N   UNL     1      -4.000  12.060  17.517  0.00  0.00    +0.000 N 
ATOM     22  C   UNL     1      -3.406  11.961  18.743  0.00  0.00    +0.000 C 
ATOM     23  O   UNL     1      -3.925  12.437  19.746  0.00  0.00    +0.000 OA
ATOM     24  H   UNL     1      -4.924  12.473  17.502  0.00  0.00    +0.000 HD
ATOM     25  H   UNL     1      -3.740  11.465  16.742  0.00  0.00    +0.000 HD
ENDBRANCH  15  22
ENDBRANCH   1  18
TORSDOF 2
ENDMDL
MODEL 5
REMARK VINA RESULT:      -6.9      2.120      3.303
REMARK  Name = 
REMARK  2 active torsions:
REMARK  status: ('A' for Active; 'I' for Inactive)
REMARK    1  A    between atoms: C_2  and  C_4
REMARK    2  A    between atoms: C_7  and  N_8
REMARK                            x       y       z     vdW  Elec       q    Type
REMARK                         _______ _______ _______ _____ _____    ______ ____
ROOT
ATOM      1  N   UNL     1       2.452   7.212  18.693  0.00  0.00    +0.000 N 
ATOM      2  C   UNL     1       1.811   6.832  19.976  0.00  0.00    +0.000 C 
ATOM      3  C   UNL     1       1.592   8.054  20.907  0.00  0.00    +0.000 C 
ATOM      4  N   UNL     1       1.077   9.239  20.191  0.00  0.00    +0.000 N 
ATOM      5  C   UNL     1      -0.006   9.898  20.715  0.00  0.00    +0.000 C 
ATOM      6  O   UNL     1      -0.385   9.607  21.856  0.00  0.00    +0.000 OA
ATOM      7  N   UNL     1      -0.686  10.863  20.011  0.00  0.00    +0.000 N 
ATOM      8  C   UNL     1      -0.664  11.233  18.592  0.00  0.00    +0.000 C 
ATOM      9  C   UNL     1      -0.379  12.736  18.482  0.00  0.00    +0.000 C 
ATOM     10  O   UNL     1      -1.426  13.483  19.129  0.00  0.00    +0.000 OA
ATOM     11  C   UNL     1      -1.536  13.127  20.519  0.00  0.00    +0.000 C 
ATOM     12  C   UNL     1      -1.738  11.617  20.714  0.00  0.00    +0.000 C 
ATOM     13  C   UNL     1       1.942   9.578  19.058  0.00  0.00    +0.000 C 
ATOM     14  C   UNL     1       1.895   8.418  18.053  0.00  0.00    +0.000 C 
ENDROOT
BRANCH   1  18
ATOM     15  C   UNL     1       5.999   5.338  17.356  0.00  0.00    +0.000 A 
ATOM     16  C   UNL     1       5.383   4.931  18.540  0.00  0.00    +0.000 A 
ATOM     17  C   UNL     1       4.210   5.564  18.977  0.00  0.00    +0.000 A 
ATOM     18  C   UNL     1       3.623   6.618  18.260  0.00  0.00    +0.000 A 
ATOM     19  C   UNL     1       4.275   7.016  17.082  0.00  0.00    +0.000 A 
ATOM     20  C   UNL     1       5.447   6.394  16.633  0.00  0.00    +0.000 A 
BRANCH  15  22
ATOM     21  N   UNL     1       8.105   4.200  17.776  0.00  0.00    +0.000 N 
ATOM     22  C   UNL     1       7.233   4.687  16.842  0.00  0.00    +0.000 C 
ATOM     23  O   UNL     1       7.444   4.560  15.642  0.00  0.00    +0.000 OA
ATOM     24  H   UNL     1       8.883   3.662  17.419  0.00  0.00    +0.000 HD
ATOM     25  H   UNL     1       7.836   4.055  18.740  0.00  0.00    +0.000 HD
ENDBRANCH  15  22
ENDBRANCH   1  18
TORSDOF 2
ENDMDL
MODEL 6
REMARK VINA RESULT:      -6.9      2.173      3.195
REMARK  Name = 
REMARK  2 active torsions:
REMARK  status: ('A' for Active; 'I' for Inactive)
REMARK    1  A    between atoms: C_2  and  C_4
REMARK    2  A    between atoms: C_7  and  N_8
REMARK                            x       y       z     vdW  Elec       q    Type
REMARK                         _______ _______ _______ _____ _____    ______ ____
ROOT
ATOM      1  N   UNL     1       2.428   7.208  18.757  0.00  0.00    +0.000 N 
ATOM      2  C   UNL     1       1.787   6.859  20.049  0.00  0.00    +0.000 C 
ATOM      3  C   UNL     1       1.585   8.100  20.959  0.00  0.00    +0.000 C 
ATOM      4  N   UNL     1       1.081   9.277  20.224  0.00  0.00    +0.000 N 
ATOM      5  C   UNL     1       0.007   9.958  20.739  0.00  0.00    +0.000 C 
ATOM      6  O   UNL     1      -0.371   9.692  21.887  0.00  0.00    +0.000 OA
ATOM      7  N   UNL     1      -0.665  10.918  20.021  0.00  0.00    +0.000 N 
ATOM      8  C   UNL     1      -0.644  11.262  18.596  0.00  0.00    +0.000 C 
ATOM      9  C   UNL     1      -0.343  12.760  18.458  0.00  0.00    +0.000 C 
ATOM     10  O   UNL     1      -1.379  13.530  19.095  0.00  0.00    +0.000 OA
ATOM     11  C   UNL     1      -1.488  13.200  20.492  0.00  0.00    +0.000 C 
ATOM     12  C   UNL     1      -1.705  11.696  20.714  0.00  0.00    +0.000 C 
ATOM     13  C   UNL     1       1.945   9.587  19.082  0.00  0.00    +0.000 C 
ATOM     14  C   UNL     1       1.881   8.409  18.098  0.00  0.00    +0.000 C 
ENDROOT
BRANCH   1  18
ATOM     15  C   UNL     1       6.018   5.387  17.466  0.00  0.00    +0.000 A 
ATOM     16  C   UNL     1       5.436   6.415  16.724  0.00  0.00    +0.000 A 
ATOM     17  C   UNL     1       4.242   7.007  17.159  0.00  0.00    +0.000 A 
ATOM     18  C   UNL     1       3.590   6.594  18.331  0.00  0.00    +0.000 A 
ATOM     19  C   UNL     1       4.191   5.546  19.048  0.00  0.00    +0.000 A 
ATOM     20  C   UNL     1       5.383   4.944  18.625  0.00  0.00    +0.000 A 
BRANCH  15  22
ATOM     21  N   UNL     1       7.548   4.680  15.716  0.00  0.00    +0.000 N 
ATOM     22  C   UNL     1       7.292   4.740  17.057  0.00  0.00    +0.000 C 
ATOM     23  O   UNL     1       8.092   4.311  17.880  0.00  0.00    +0.000 OA
ATOM     24  H   UNL     1       8.463   4.341  15.452  0.00  0.00    +0.000 HD
ATOM     25  H   UNL     1       7.047   5.250  15.047  0.00  0.00    +0.000 HD
ENDBRANCH  15  22
ENDBRANCH   1  18
TORSDOF 2
ENDMDL
MODEL 7
REMARK VINA RESULT:      -6.8      2.118      8.936
REMARK  Name = 
REMARK  2 active torsions:
REMARK  status: ('A' for Active; 'I' for Inactive)
REMARK    1  A    between atoms: C_2  and  C_4
REMARK    2  A    between atoms: C_7  and  N_8
REMARK                            x       y       z     vdW  Elec       q    Type
REMARK                         _______ _______ _______ _____ _____    ______ ____
ROOT
ATOM      1  N   UNL     1       1.492   9.015  19.342  0.00  0.00    +0.000 N 
ATOM      2  C   UNL     1       1.790   8.094  20.466  0.00  0.00    +0.000 C 
ATOM      3  C   UNL     1       2.062   6.645  19.981  0.00  0.00    +0.000 C 
ATOM      4  N   UNL     1       2.925   6.591  18.784  0.00  0.00    +0.000 N 
ATOM      5  C   UNL     1       3.996   5.733  18.790  0.00  0.00    +0.000 C 
ATOM      6  O   UNL     1       4.086   4.900  19.699  0.00  0.00    +0.000 OA
ATOM      7  N   UNL     1       4.973   5.775  17.823  0.00  0.00    +0.000 N 
ATOM      8  C   UNL     1       5.295   6.780  16.804  0.00  0.00    +0.000 C 
ATOM      9  C   UNL     1       5.334   6.092  15.434  0.00  0.00    +0.000 C 
ATOM     10  O   UNL     1       6.364   5.086  15.419  0.00  0.00    +0.000 OA
ATOM     11  C   UNL     1       6.136   4.093  16.436  0.00  0.00    +0.000 C 
ATOM     12  C   UNL     1       5.998   4.718  17.832  0.00  0.00    +0.000 C 
ATOM     13  C   UNL     1       2.375   7.420  17.708  0.00  0.00    +0.000 C 
ATOM     14  C   UNL     1       2.386   8.883  18.177  0.00  0.00    +0.000 C 
ENDROOT
BRANCH   1  18
ATOM     15  C   UNL     1      -2.018  11.369  19.231  0.00  0.00    +0.000 A 
ATOM     16  C   UNL     1      -1.255  11.286  20.397  0.00  0.00    +0.000 A 
ATOM     17  C   UNL     1      -0.096  10.496  20.423  0.00  0.00    +0.000 A 
ATOM     18  C   UNL     1       0.333   9.766  19.304  0.00  0.00    +0.000 A 
ATOM     19  C   UNL     1      -0.465   9.858  18.152  0.00  0.00    +0.000 A 
ATOM     20  C   UNL     1      -1.626  10.641  18.110  0.00  0.00    +0.000 A 
BRANCH  15  22
ATOM     21  N   UNL     1      -3.988  12.092  18.007  0.00  0.00    +0.000 N 
ATOM     22  C   UNL     1      -3.244  12.206  19.147  0.00  0.00    +0.000 C 
ATOM     23  O   UNL     1      -3.591  12.937  20.068  0.00  0.00    +0.000 OA
ATOM     24  H   UNL     1      -4.876  12.577  18.005  0.00  0.00    +0.000 HD
ATOM     25  H   UNL     1      -3.874  11.319  17.364  0.00  0.00    +0.000 HD
ENDBRANCH  15  22
ENDBRANCH   1  18
TORSDOF 2
ENDMDL
MODEL 8
REMARK VINA RESULT:      -6.7      1.735      2.573
REMARK  Name = 
REMARK  2 active torsions:
REMARK  status: ('A' for Active; 'I' for Inactive)
REMARK    1  A    between atoms: C_2  and  C_4
REMARK    2  A    between atoms: C_7  and  N_8
REMARK                            x       y       z     vdW  Elec       q    Type
REMARK                         _______ _______ _______ _____ _____    ______ ____
ROOT
ATOM      1  N   UNL     1       1.372   8.325  19.743  0.00  0.00    +0.000 N 
ATOM      2  C   UNL     1       0.907   8.199  21.146  0.00  0.00    +0.000 C 
ATOM      3  C   UNL     1       1.068   9.523  21.939  0.00  0.00    +0.000 C 
ATOM      4  N   UNL     1       0.651  10.711  21.168  0.00  0.00    +0.000 N 
ATOM      5  C   UNL     1      -0.194  11.613  21.764  0.00  0.00    +0.000 C 
ATOM      6  O   UNL     1      -0.413  11.510  22.977  0.00  0.00    +0.000 OA
ATOM      7  N   UNL     1      -0.806  12.620  21.057  0.00  0.00    +0.000 N 
ATOM      8  C   UNL     1      -0.967  12.842  19.617  0.00  0.00    +0.000 C 
ATOM      9  C   UNL     1      -0.448  14.245  19.278  0.00  0.00    +0.000 C 
ATOM     10  O   UNL     1      -1.221  15.237  19.978  0.00  0.00    +0.000 OA
ATOM     11  C   UNL     1      -1.149  15.042  21.402  0.00  0.00    +0.000 C 
ATOM     12  C   UNL     1      -1.573  13.625  21.813  0.00  0.00    +0.000 C 
ATOM     13  C   UNL     1       1.352  10.769  19.882  0.00  0.00    +0.000 C 
ATOM     14  C   UNL     1       0.930   9.549  19.050  0.00  0.00    +0.000 C 
ENDROOT
BRANCH   1  18
ATOM     15  C   UNL     1       4.346   5.784  18.139  0.00  0.00    +0.000 A 
ATOM     16  C   UNL     1       3.986   6.961  17.481  0.00  0.00    +0.000 A 
ATOM     17  C   UNL     1       2.994   7.792  18.019  0.00  0.00    +0.000 A 
ATOM     18  C   UNL     1       2.328   7.479  19.214  0.00  0.00    +0.000 A 
ATOM     19  C   UNL     1       2.701   6.280  19.845  0.00  0.00    +0.000 A 
ATOM     20  C   UNL     1       3.689   5.438  19.318  0.00  0.00    +0.000 A 
BRANCH  15  22
ATOM     21  N   UNL     1       6.075   4.124  18.539  0.00  0.00    +0.000 N 
ATOM     22  C   UNL     1       5.404   4.879  17.618  0.00  0.00    +0.000 C 
ATOM     23  O   UNL     1       5.642   4.786  16.419  0.00  0.00    +0.000 OA
ATOM     24  H   UNL     1       6.713   3.432  18.168  0.00  0.00    +0.000 HD
ATOM     25  H   UNL     1       5.726   3.986  19.478  0.00  0.00    +0.000 HD
ENDBRANCH  15  22
ENDBRANCH   1  18
TORSDOF 2
ENDMDL
MODEL 9
REMARK VINA RESULT:      -6.7      1.866      2.769
REMARK  Name = 
REMARK  2 active torsions:
REMARK  status: ('A' for Active; 'I' for Inactive)
REMARK    1  A    between atoms: C_2  and  C_4
REMARK    2  A    between atoms: C_7  and  N_8
REMARK                            x       y       z     vdW  Elec       q    Type
REMARK                         _______ _______ _______ _____ _____    ______ ____
ROOT
ATOM      1  N   UNL     1       1.451   8.153  19.733  0.00  0.00    +0.000 N 
ATOM      2  C   UNL     1       1.155   7.857  21.155  0.00  0.00    +0.000 C 
ATOM      3  C   UNL     1       1.202   9.129  22.043  0.00  0.00    +0.000 C 
ATOM      4  N   UNL     1       0.541  10.292  21.419  0.00  0.00    +0.000 N 
ATOM      5  C   UNL     1      -0.361  11.008  22.164  0.00  0.00    +0.000 C 
ATOM      6  O   UNL     1      -0.439  10.785  23.379  0.00  0.00    +0.000 OA
ATOM      7  N   UNL     1      -1.182  11.958  21.606  0.00  0.00    +0.000 N 
ATOM      8  C   UNL     1      -1.519  12.258  20.210  0.00  0.00    +0.000 C 
ATOM      9  C   UNL     1      -1.246  13.744  19.949  0.00  0.00    +0.000 C 
ATOM     10  O   UNL     1      -2.080  14.553  20.799  0.00  0.00    +0.000 OA
ATOM     11  C   UNL     1      -1.836  14.269  22.189  0.00  0.00    +0.000 C 
ATOM     12  C   UNL     1      -2.006  12.777  22.511  0.00  0.00    +0.000 C 
ATOM     13  C   UNL     1       1.091  10.549  20.086  0.00  0.00    +0.000 C 
ATOM     14  C   UNL     1       0.769   9.343  19.191  0.00  0.00    +0.000 C 
ENDROOT
BRANCH   1  18
ATOM     15  C   UNL     1       4.498   6.118  17.625  0.00  0.00    +0.000 A 
ATOM     16  C   UNL     1       3.990   5.599  18.816  0.00  0.00    +0.000 A 
ATOM     17  C   UNL     1       2.984   6.286  19.510  0.00  0.00    +0.000 A 
ATOM     18  C   UNL     1       2.462   7.505  19.049  0.00  0.00    +0.000 A 
ATOM     19  C   UNL     1       3.004   8.009  17.856  0.00  0.00    +0.000 A 
ATOM     20  C   UNL     1       4.011   7.335  17.152  0.00  0.00    +0.000 A 
BRANCH  15  22
ATOM     21  N   UNL     1       5.785   4.109  17.161  0.00  0.00    +0.000 N 
ATOM     22  C   UNL     1       5.552   5.418  16.843  0.00  0.00    +0.000 C 
ATOM     23  O   UNL     1       6.160   5.974  15.936  0.00  0.00    +0.000 OA
ATOM     24  H   UNL     1       6.422   3.610  16.554  0.00  0.00    +0.000 HD
ATOM     25  H   UNL     1       5.132   3.563  17.707  0.00  0.00    +0.000 HD
ENDBRANCH  15  22
ENDBRANCH   1  18
TORSDOF 2
ENDMDL
