MODEL 1
REMARK VINA RESULT:      -6.7      0.000      0.000
REMARK  Name = 
REMARK  4 active torsions:
REMARK  status: ('A' for Active; 'I' for Inactive)
REMARK    1  A    between atoms: C_1  and  O_2
REMARK    2  A    between atoms: O_2  and  C_3
REMARK    3  A    between atoms: C_5  and  O_6
REMARK    4  A    between atoms: C_11  and  C_13
REMARK                            x       y       z     vdW  Elec       q    Type
REMARK                         _______ _______ _______ _____ _____    ______ ____
ROOT
ATOM      1  C   UNL     1       2.602   2.258  19.853  0.00  0.00    +0.000 C 
ATOM      2  C   UNL     1       1.194   2.330  19.212  0.00  0.00    +0.000 C 
ATOM      3  C   UNL     1       1.566   3.717  18.654  0.00  0.00    +0.000 C 
ATOM      4  C   UNL     1       3.076   3.327  18.802  0.00  0.00    +0.000 C 
ATOM      5  C   UNL     1       3.968   4.458  19.344  0.00  0.00    +0.000 C 
ATOM      6  C   UNL     1       4.196   5.465  18.218  0.00  0.00    +0.000 C 
ATOM      7  N   UNL     1       4.945   4.789  17.160  0.00  0.00    +0.000 N 
ATOM      8  C   UNL     1       6.270   5.026  16.768  0.00  0.00    +0.000 C 
ATOM      9  O   UNL     1       6.800   4.396  15.850  0.00  0.00    +0.000 OA
ATOM     10  C   UNL     1       4.185   3.710  16.528  0.00  0.00    +0.000 C 
ATOM     11  C   UNL     1       3.732   2.670  17.561  0.00  0.00    +0.000 C 
ENDROOT
BRANCH   8  12
ATOM     12  C   UNL     1       7.089   6.085  17.406  0.00  0.00    +0.000 A 
ATOM     13  C   UNL     1       7.819   5.919  18.579  0.00  0.00    +0.000 A 
ATOM     14  C   UNL     1       8.438   7.020  19.170  0.00  0.00    +0.000 A 
ATOM     15  C   UNL     1       8.413   8.239  18.516  0.00  0.00    +0.000 A 
ATOM     16  N   UNL     1       8.961   9.367  19.119  0.00  0.00    +0.000 N 
ATOM     17  N   UNL     1       7.812   8.409  17.327  0.00  0.00    +0.000 NA
ATOM     18  C   UNL     1       7.167   7.333  16.796  0.00  0.00    +0.000 A 
ATOM     19  H   UNL     1       9.897   9.207  19.471  0.00  0.00    +0.000 HD
ATOM     20  H   UNL     1       8.919  10.129  18.447  0.00  0.00    +0.000 HD
ENDBRANCH   8  12
BRANCH   1  22
ATOM     21  C   UNL     1       1.479   2.515  21.998  0.00  0.00    +0.000 C 
ATOM     22  O   UNL     1       2.675   2.665  21.240  0.00  0.00    +0.000 OA
ENDBRANCH   1  22
BRANCH   3  23
ATOM     23  O   UNL     1       1.101   4.834  19.443  0.00  0.00    +0.000 OA
ATOM     24  H   UNL     1       0.515   5.341  18.849  0.00  0.00    +0.000 HD
ENDBRANCH   3  23
TORSDOF 3
ENDMDL
MODEL 2
REMARK VINA RESULT:      -6.7      0.755      1.171
REMARK  Name = 
REMARK  4 active torsions:
REMARK  status: ('A' for Active; 'I' for Inactive)
REMARK    1  A    between atoms: C_1  and  O_2
REMARK    2  A    between atoms: O_2  and  C_3
REMARK    3  A    between atoms: C_5  and  O_6
REMARK    4  A    between atoms: C_11  and  C_13
REMARK                            x       y       z     vdW  Elec       q    Type
REMARK                         _______ _______ _______ _____ _____    ______ ____
ROOT
ATOM      1  C   UNL     1       2.857   2.469  19.583  0.00  0.00    +0.000 C 
ATOM      2  C   UNL     1       1.573   2.313  18.732  0.00  0.00    +0.000 C 
ATOM      3  C   UNL     1       1.879   3.682  18.096  0.00  0.00    +0.000 C 
ATOM      4  C   UNL     1       3.378   3.495  18.512  0.00  0.00    +0.000 C 
ATOM      5  C   UNL     1       4.042   4.768  19.065  0.00  0.00    +0.000 C 
ATOM      6  C   UNL     1       4.341   5.697  17.888  0.00  0.00    +0.000 C 
ATOM      7  N   UNL     1       5.322   5.031  17.033  0.00  0.00    +0.000 N 
ATOM      8  C   UNL     1       6.659   5.395  16.825  0.00  0.00    +0.000 C 
ATOM      9  O   UNL     1       7.397   4.758  16.068  0.00  0.00    +0.000 OA
ATOM     10  C   UNL     1       4.795   3.817  16.406  0.00  0.00    +0.000 C 
ATOM     11  C   UNL     1       4.294   2.821  17.460  0.00  0.00    +0.000 C 
ENDROOT
BRANCH   8  12
ATOM     12  C   UNL     1       7.245   6.596  17.467  0.00  0.00    +0.000 A 
ATOM     13  C   UNL     1       7.092   7.896  16.997  0.00  0.00    +0.000 A 
ATOM     14  C   UNL     1       7.805   8.936  17.593  0.00  0.00    +0.000 A 
ATOM     15  C   UNL     1       8.564   8.673  18.720  0.00  0.00    +0.000 A 
ATOM     16  N   UNL     1       9.339   9.678  19.290  0.00  0.00    +0.000 N 
ATOM     17  N   UNL     1       8.644   7.450  19.267  0.00  0.00    +0.000 NA
ATOM     18  C   UNL     1       7.985   6.439  18.634  0.00  0.00    +0.000 A 
ATOM     19  H   UNL     1       8.821  10.535  19.440  0.00  0.00    +0.000 HD
ATOM     20  H   UNL     1       9.745   9.309  20.146  0.00  0.00    +0.000 HD
ENDBRANCH   8  12
BRANCH   1  22
ATOM     21  C   UNL     1       1.497   2.539  21.602  0.00  0.00    +0.000 C 
ATOM     22  O   UNL     1       2.658   2.997  20.917  0.00  0.00    +0.000 OA
ENDBRANCH   1  22
BRANCH   3  23
ATOM     23  O   UNL     1       1.174   4.797  18.686  0.00  0.00    +0.000 OA
ATOM     24  H   UNL     1       1.403   5.567  18.131  0.00  0.00    +0.000 HD
ENDBRANCH   3  23
TORSDOF 3
ENDMDL
MODEL 3
REMARK VINA RESULT:      -6.5      4.547      6.143
REMARK  Name = 
REMARK  4 active torsions:
REMARK  status: ('A' for Active; 'I' for Inactive)
REMARK    1  A    between atoms: C_1  and  O_2
REMARK    2  A    between atoms: O_2  and  C_3
REMARK    3  A    between atoms: C_5  and  O_6
REMARK    4  A    between atoms: C_11  and  C_13
REMARK                            x       y       z     vdW  Elec       q    Type
REMARK                         _______ _______ _______ _____ _____    ______ ____
ROOT
ATOM      1  C   UNL     1       1.244  11.140  19.596  0.00  0.00    +0.000 C 
ATOM      2  C   UNL     1      -0.290  11.013  19.758  0.00  0.00    +0.000 C 
ATOM      3  C   UNL     1      -0.240   9.771  18.848  0.00  0.00    +0.000 C 
ATOM      4  C   UNL     1       1.276   9.617  19.210  0.00  0.00    +0.000 C 
ATOM      5  C   UNL     1       2.173   9.241  18.017  0.00  0.00    +0.000 C 
ATOM      6  C   UNL     1       1.955   7.761  17.705  0.00  0.00    +0.000 C 
ATOM      7  N   UNL     1       2.418   6.990  18.859  0.00  0.00    +0.000 N 
ATOM      8  C   UNL     1       3.536   6.147  18.927  0.00  0.00    +0.000 C 
ATOM      9  O   UNL     1       3.828   5.537  19.958  0.00  0.00    +0.000 OA
ATOM     10  C   UNL     1       1.614   7.227  20.059  0.00  0.00    +0.000 C 
ATOM     11  C   UNL     1       1.594   8.715  20.429  0.00  0.00    +0.000 C 
ENDROOT
BRANCH   8  12
ATOM     12  C   UNL     1       4.400   5.907  17.746  0.00  0.00    +0.000 A 
ATOM     13  C   UNL     1       4.302   4.800  16.909  0.00  0.00    +0.000 A 
ATOM     14  C   UNL     1       5.257   4.599  15.914  0.00  0.00    +0.000 A 
ATOM     15  C   UNL     1       6.222   5.568  15.700  0.00  0.00    +0.000 A 
ATOM     16  N   UNL     1       7.228   5.358  14.762  0.00  0.00    +0.000 N 
ATOM     17  N   UNL     1       6.278   6.702  16.417  0.00  0.00    +0.000 NA
ATOM     18  C   UNL     1       5.369   6.850  17.420  0.00  0.00    +0.000 A 
ATOM     19  H   UNL     1       6.869   5.053  13.864  0.00  0.00    +0.000 HD
ATOM     20  H   UNL     1       7.775   6.212  14.697  0.00  0.00    +0.000 HD
ENDBRANCH   8  12
BRANCH   1  22
ATOM     21  C   UNL     1       1.033  13.324  18.539  0.00  0.00    +0.000 C 
ATOM     22  O   UNL     1       1.687  12.059  18.568  0.00  0.00    +0.000 OA
ENDBRANCH   1  22
BRANCH   3  23
ATOM     23  O   UNL     1      -0.557  10.021  17.461  0.00  0.00    +0.000 OA
ATOM     24  H   UNL     1      -0.485  10.989  17.352  0.00  0.00    +0.000 HD
ENDBRANCH   3  23
TORSDOF 3
ENDMDL
MODEL 4
REMARK VINA RESULT:      -6.4      3.619      6.237
REMARK  Name = 
REMARK  4 active torsions:
REMARK  status: ('A' for Active; 'I' for Inactive)
REMARK    1  A    between atoms: C_1  and  O_2
REMARK    2  A    between atoms: O_2  and  C_3
REMARK    3  A    between atoms: C_5  and  O_6
REMARK    4  A    between atoms: C_11  and  C_13
REMARK                            x       y       z     vdW  Elec       q    Type
REMARK                         _______ _______ _______ _____ _____    ______ ____
ROOT
ATOM      1  C   UNL     1       5.617   3.999  15.499  0.00  0.00    +0.000 C 
ATOM      2  C   UNL     1       7.087   3.776  15.930  0.00  0.00    +0.000 C 
ATOM      3  C   UNL     1       6.984   5.050  16.789  0.00  0.00    +0.000 C 
ATOM      4  C   UNL     1       5.427   4.874  16.790  0.00  0.00    +0.000 C 
ATOM      5  C   UNL     1       4.645   6.187  16.608  0.00  0.00    +0.000 C 
ATOM      6  C   UNL     1       4.697   6.959  17.925  0.00  0.00    +0.000 C 
ATOM      7  N   UNL     1       3.992   6.169  18.933  0.00  0.00    +0.000 N 
ATOM      8  C   UNL     1       2.771   6.469  19.551  0.00  0.00    +0.000 C 
ATOM      9  O   UNL     1       2.271   5.727  20.400  0.00  0.00    +0.000 OA
ATOM     10  C   UNL     1       4.663   4.903  19.233  0.00  0.00    +0.000 C 
ATOM     11  C   UNL     1       4.839   4.054  17.967  0.00  0.00    +0.000 C 
ENDROOT
BRANCH   8  12
ATOM     12  C   UNL     1       2.038   7.723  19.252  0.00  0.00    +0.000 A 
ATOM     13  C   UNL     1       1.873   8.256  17.977  0.00  0.00    +0.000 A 
ATOM     14  C   UNL     1       1.292   9.514  17.823  0.00  0.00    +0.000 A 
ATOM     15  C   UNL     1       0.782  10.162  18.935  0.00  0.00    +0.000 A 
ATOM     16  N   UNL     1       0.263  11.447  18.817  0.00  0.00    +0.000 N 
ATOM     17  N   UNL     1       0.825   9.626  20.165  0.00  0.00    +0.000 NA
ATOM     18  C   UNL     1       1.447   8.422  20.300  0.00  0.00    +0.000 A 
ATOM     19  H   UNL     1      -0.402  11.533  18.058  0.00  0.00    +0.000 HD
ATOM     20  H   UNL     1      -0.132  11.705  19.718  0.00  0.00    +0.000 HD
ENDBRANCH   8  12
BRANCH   1  22
ATOM     21  C   UNL     1       5.969   4.038  13.090  0.00  0.00    +0.000 C 
ATOM     22  O   UNL     1       5.436   4.689  14.239  0.00  0.00    +0.000 OA
ENDBRANCH   1  22
BRANCH   3  23
ATOM     23  O   UNL     1       7.503   6.246  16.166  0.00  0.00    +0.000 OA
ATOM     24  H   UNL     1       6.823   6.930  16.318  0.00  0.00    +0.000 HD
ENDBRANCH   3  23
TORSDOF 3
ENDMDL
MODEL 5
REMARK VINA RESULT:      -6.4      2.937      4.680
REMARK  Name = 
REMARK  4 active torsions:
REMARK  status: ('A' for Active; 'I' for Inactive)
REMARK    1  A    between atoms: C_1  and  O_2
REMARK    2  A    between atoms: O_2  and  C_3
REMARK    3  A    between atoms: C_5  and  O_6
REMARK    4  A    between atoms: C_11  and  C_13
REMARK                            x       y       z     vdW  Elec       q    Type
REMARK                         _______ _______ _______ _____ _____    ______ ____
ROOT
ATOM      1  C   UNL     1       2.347   3.571  19.353  0.00  0.00    +0.000 C 
ATOM      2  C   UNL     1       3.046   3.732  20.724  0.00  0.00    +0.000 C 
ATOM      3  C   UNL     1       4.401   3.623  19.999  0.00  0.00    +0.000 C 
ATOM      4  C   UNL     1       3.681   4.054  18.676  0.00  0.00    +0.000 C 
ATOM      5  C   UNL     1       4.129   3.268  17.430  0.00  0.00    +0.000 C 
ATOM      6  C   UNL     1       5.505   3.784  17.013  0.00  0.00    +0.000 C 
ATOM      7  N   UNL     1       5.354   5.183  16.614  0.00  0.00    +0.000 N 
ATOM      8  C   UNL     1       5.475   5.720  15.325  0.00  0.00    +0.000 C 
ATOM      9  O   UNL     1       5.333   6.926  15.107  0.00  0.00    +0.000 OA
ATOM     10  C   UNL     1       4.968   6.051  17.728  0.00  0.00    +0.000 C 
ATOM     11  C   UNL     1       3.663   5.574  18.378  0.00  0.00    +0.000 C 
ENDROOT
BRANCH   8  12
ATOM     12  C   UNL     1       5.829   4.872  14.161  0.00  0.00    +0.000 A 
ATOM     13  C   UNL     1       4.941   4.028  13.501  0.00  0.00    +0.000 A 
ATOM     14  C   UNL     1       5.412   3.166  12.512  0.00  0.00    +0.000 A 
ATOM     15  C   UNL     1       6.738   3.249  12.121  0.00  0.00    +0.000 A 
ATOM     16  N   UNL     1       7.248   2.353  11.187  0.00  0.00    +0.000 N 
ATOM     17  N   UNL     1       7.596   4.130  12.660  0.00  0.00    +0.000 NA
ATOM     18  C   UNL     1       7.127   4.922  13.664  0.00  0.00    +0.000 A 
ATOM     19  H   UNL     1       6.669   2.278  10.359  0.00  0.00    +0.000 HD
ATOM     20  H   UNL     1       8.202   2.634  10.976  0.00  0.00    +0.000 HD
ENDBRANCH   8  12
BRANCH   1  22
ATOM     21  C   UNL     1       0.559   2.071  18.657  0.00  0.00    +0.000 C 
ATOM     22  O   UNL     1       1.926   2.225  19.024  0.00  0.00    +0.000 OA
ENDBRANCH   1  22
BRANCH   3  23
ATOM     23  O   UNL     1       4.995   2.306  20.017  0.00  0.00    +0.000 OA
ATOM     24  H   UNL     1       4.702   1.905  20.858  0.00  0.00    +0.000 HD
ENDBRANCH   3  23
TORSDOF 3
ENDMDL
MODEL 6
REMARK VINA RESULT:      -6.3      2.820      4.425
REMARK  Name = 
REMARK  4 active torsions:
REMARK  status: ('A' for Active; 'I' for Inactive)
REMARK    1  A    between atoms: C_1  and  O_2
REMARK    2  A    between atoms: O_2  and  C_3
REMARK    3  A    between atoms: C_5  and  O_6
REMARK    4  A    between atoms: C_11  and  C_13
REMARK                            x       y       z     vdW  Elec       q    Type
REMARK                         _______ _______ _______ _____ _____    ______ ____
ROOT
ATOM      1  C   UNL     1       2.556   6.732  19.551  0.00  0.00    +0.000 C 
ATOM      2  C   UNL     1       1.887   5.707  20.499  0.00  0.00    +0.000 C 
ATOM      3  C   UNL     1       2.277   4.597  19.504  0.00  0.00    +0.000 C 
ATOM      4  C   UNL     1       3.390   5.547  18.944  0.00  0.00    +0.000 C 
ATOM      5  C   UNL     1       3.520   5.529  17.410  0.00  0.00    +0.000 C 
ATOM      6  C   UNL     1       4.228   4.235  17.009  0.00  0.00    +0.000 C 
ATOM      7  N   UNL     1       5.582   4.278  17.560  0.00  0.00    +0.000 N 
ATOM      8  C   UNL     1       6.786   4.397  16.855  0.00  0.00    +0.000 C 
ATOM      9  O   UNL     1       7.878   4.415  17.429  0.00  0.00    +0.000 OA
ATOM     10  C   UNL     1       5.598   4.256  19.024  0.00  0.00    +0.000 C 
ATOM     11  C   UNL     1       4.786   5.420  19.606  0.00  0.00    +0.000 C 
ENDROOT
BRANCH   8  12
ATOM     12  C   UNL     1       6.815   4.459  15.373  0.00  0.00    +0.000 A 
ATOM     13  C   UNL     1       6.021   3.682  14.535  0.00  0.00    +0.000 A 
ATOM     14  C   UNL     1       6.231   3.715  13.157  0.00  0.00    +0.000 A 
ATOM     15  C   UNL     1       7.149   4.611  12.636  0.00  0.00    +0.000 A 
ATOM     16  N   UNL     1       7.427   4.612  11.274  0.00  0.00    +0.000 N 
ATOM     17  N   UNL     1       7.852   5.454  13.408  0.00  0.00    +0.000 NA
ATOM     18  C   UNL     1       7.672   5.364  14.755  0.00  0.00    +0.000 A 
ATOM     19  H   UNL     1       6.590   4.637  10.703  0.00  0.00    +0.000 HD
ATOM     20  H   UNL     1       8.053   5.391  11.086  0.00  0.00    +0.000 HD
ENDBRANCH   8  12
BRANCH   1  22
ATOM     21  C   UNL     1       2.039   8.724  18.249  0.00  0.00    +0.000 C 
ATOM     22  O   UNL     1       1.661   7.407  18.634  0.00  0.00    +0.000 OA
ENDBRANCH   1  22
BRANCH   3  23
ATOM     23  O   UNL     1       1.231   4.209  18.586  0.00  0.00    +0.000 OA
ATOM     24  H   UNL     1       0.611   4.964  18.569  0.00  0.00    +0.000 HD
ENDBRANCH   3  23
TORSDOF 3
ENDMDL
MODEL 7
REMARK VINA RESULT:      -6.1      3.559      6.210
REMARK  Name = 
REMARK  4 active torsions:
REMARK  status: ('A' for Active; 'I' for Inactive)
REMARK    1  A    between atoms: C_1  and  O_2
REMARK    2  A    between atoms: O_2  and  C_3
REMARK    3  A    between atoms: C_5  and  O_6
REMARK    4  A    between atoms: C_11  and  C_13
REMARK                            x       y       z     vdW  Elec       q    Type
REMARK                         _______ _______ _______ _____ _____    ______ ____
ROOT
ATOM      1  C   UNL     1       5.535   3.993  15.508  0.00  0.00    +0.000 C 
ATOM      2  C   UNL     1       6.999   3.740  15.941  0.00  0.00    +0.000 C 
ATOM      3  C   UNL     1       6.920   5.016  16.801  0.00  0.00    +0.000 C 
ATOM      4  C   UNL     1       5.360   4.871  16.800  0.00  0.00    +0.000 C 
ATOM      5  C   UNL     1       4.604   6.199  16.617  0.00  0.00    +0.000 C 
ATOM      6  C   UNL     1       4.670   6.969  17.936  0.00  0.00    +0.000 C 
ATOM      7  N   UNL     1       3.947   6.192  18.942  0.00  0.00    +0.000 N 
ATOM      8  C   UNL     1       2.731   6.517  19.558  0.00  0.00    +0.000 C 
ATOM      9  O   UNL     1       2.215   5.784  20.405  0.00  0.00    +0.000 OA
ATOM     10  C   UNL     1       4.593   4.913  19.241  0.00  0.00    +0.000 C 
ATOM     11  C   UNL     1       4.753   4.062  17.974  0.00  0.00    +0.000 C 
ENDROOT
BRANCH   8  12
ATOM     12  C   UNL     1       2.024   7.785  19.258  0.00  0.00    +0.000 A 
ATOM     13  C   UNL     1       1.427   8.601  20.214  0.00  0.00    +0.000 A 
ATOM     14  C   UNL     1       0.663   9.695  19.810  0.00  0.00    +0.000 A 
ATOM     15  C   UNL     1       0.609  10.020  18.466  0.00  0.00    +0.000 A 
ATOM     16  N   UNL     1      -0.203  11.062  18.031  0.00  0.00    +0.000 N 
ATOM     17  N   UNL     1       1.265   9.319  17.527  0.00  0.00    +0.000 NA
ATOM     18  C   UNL     1       1.958   8.222  17.939  0.00  0.00    +0.000 A 
ATOM     19  H   UNL     1      -0.068  11.913  18.566  0.00  0.00    +0.000 HD
ATOM     20  H   UNL     1      -0.036  11.193  17.037  0.00  0.00    +0.000 HD
ENDBRANCH   8  12
BRANCH   1  22
ATOM     21  C   UNL     1       5.842   4.003  13.092  0.00  0.00    +0.000 C 
ATOM     22  O   UNL     1       5.370   4.688  14.248  0.00  0.00    +0.000 OA
ENDBRANCH   1  22
BRANCH   3  23
ATOM     23  O   UNL     1       7.464   6.202  16.181  0.00  0.00    +0.000 OA
ATOM     24  H   UNL     1       8.422   6.173  16.370  0.00  0.00    +0.000 HD
ENDBRANCH   3  23
TORSDOF 3
ENDMDL
MODEL 8
REMARK VINA RESULT:      -6.0      4.575      6.478
REMARK  Name = 
REMARK  4 active torsions:
REMARK  status: ('A' for Active; 'I' for Inactive)
REMARK    1  A    between atoms: C_1  and  O_2
REMARK    2  A    between atoms: O_2  and  C_3
REMARK    3  A    between atoms: C_5  and  O_6
REMARK    4  A    between atoms: C_11  and  C_13
REMARK                            x       y       z     vdW  Elec       q    Type
REMARK                         _______ _______ _______ _____ _____    ______ ____
ROOT
ATOM      1  C   UNL     1       1.300  11.334  19.456  0.00  0.00    +0.000 C 
ATOM      2  C   UNL     1      -0.231  11.304  19.683  0.00  0.00    +0.000 C 
ATOM      3  C   UNL     1      -0.285  10.006  18.855  0.00  0.00    +0.000 C 
ATOM      4  C   UNL     1       1.234   9.790  19.170  0.00  0.00    +0.000 C 
ATOM      5  C   UNL     1       2.061   9.290  17.971  0.00  0.00    +0.000 C 
ATOM      6  C   UNL     1       1.750   7.808  17.765  0.00  0.00    +0.000 C 
ATOM      7  N   UNL     1       2.218   7.087  18.948  0.00  0.00    +0.000 N 
ATOM      8  C   UNL     1       3.290   6.188  19.030  0.00  0.00    +0.000 C 
ATOM      9  O   UNL     1       3.591   5.628  20.087  0.00  0.00    +0.000 OA
ATOM     10  C   UNL     1       1.477   7.443  20.159  0.00  0.00    +0.000 C 
ATOM     11  C   UNL     1       1.552   8.951  20.433  0.00  0.00    +0.000 C 
ENDROOT
BRANCH   8  12
ATOM     12  C   UNL     1       4.092   5.825  17.836  0.00  0.00    +0.000 A 
ATOM     13  C   UNL     1       4.852   6.723  17.093  0.00  0.00    +0.000 A 
ATOM     14  C   UNL     1       5.450   6.306  15.905  0.00  0.00    +0.000 A 
ATOM     15  C   UNL     1       5.374   4.971  15.545  0.00  0.00    +0.000 A 
ATOM     16  N   UNL     1       5.900   4.545  14.330  0.00  0.00    +0.000 N 
ATOM     17  N   UNL     1       4.743   4.055  16.296  0.00  0.00    +0.000 NA
ATOM     18  C   UNL     1       4.118   4.497  17.423  0.00  0.00    +0.000 A 
ATOM     19  H   UNL     1       6.849   4.869  14.178  0.00  0.00    +0.000 HD
ATOM     20  H   UNL     1       5.821   3.532  14.296  0.00  0.00    +0.000 HD
ENDBRANCH   8  12
BRANCH   1  22
ATOM     21  C   UNL     1       2.363  13.395  18.712  0.00  0.00    +0.000 C 
ATOM     22  O   UNL     1       1.749  12.161  18.355  0.00  0.00    +0.000 OA
ENDBRANCH   1  22
BRANCH   3  23
ATOM     23  O   UNL     1      -0.643  10.186  17.467  0.00  0.00    +0.000 OA
ATOM     24  H   UNL     1       0.067   9.747  16.960  0.00  0.00    +0.000 HD
ENDBRANCH   3  23
TORSDOF 3
ENDMDL
MODEL 9
REMARK VINA RESULT:      -6.0      3.872      5.000
REMARK  Name = 
REMARK  4 active torsions:
REMARK  status: ('A' for Active; 'I' for Inactive)
REMARK    1  A    between atoms: C_1  and  O_2
REMARK    2  A    between atoms: O_2  and  C_3
REMARK    3  A    between atoms: C_5  and  O_6
REMARK    4  A    between atoms: C_11  and  C_13
REMARK                            x       y       z     vdW  Elec       q    Type
REMARK                         _______ _______ _______ _____ _____    ______ ____
ROOT
ATOM      1  C   UNL     1       3.495   2.305  19.789  0.00  0.00    +0.000 C 
ATOM      2  C   UNL     1       3.547   1.321  18.595  0.00  0.00    +0.000 C 
ATOM      3  C   UNL     1       2.669   2.306  17.800  0.00  0.00    +0.000 C 
ATOM      4  C   UNL     1       3.145   3.445  18.765  0.00  0.00    +0.000 C 
ATOM      5  C   UNL     1       2.029   4.416  19.192  0.00  0.00    +0.000 C 
ATOM      6  C   UNL     1       1.733   5.346  18.016  0.00  0.00    +0.000 C 
ATOM      7  N   UNL     1       2.933   6.144  17.767  0.00  0.00    +0.000 N 
ATOM      8  C   UNL     1       3.101   7.519  17.977  0.00  0.00    +0.000 C 
ATOM      9  O   UNL     1       4.164   8.092  17.722  0.00  0.00    +0.000 OA
ATOM     10  C   UNL     1       4.066   5.337  17.310  0.00  0.00    +0.000 C 
ATOM     11  C   UNL     1       4.403   4.232  18.318  0.00  0.00    +0.000 C 
ENDROOT
BRANCH   8  12
ATOM     12  C   UNL     1       1.992   8.370  18.474  0.00  0.00    +0.000 A 
ATOM     13  C   UNL     1       1.179   9.158  17.666  0.00  0.00    +0.000 A 
ATOM     14  C   UNL     1       0.261  10.030  18.249  0.00  0.00    +0.000 A 
ATOM     15  C   UNL     1       0.092  10.010  19.623  0.00  0.00    +0.000 A 
ATOM     16  N   UNL     1      -0.765  10.920  20.234  0.00  0.00    +0.000 N 
ATOM     17  N   UNL     1       0.781   9.182  20.424  0.00  0.00    +0.000 NA
ATOM     18  C   UNL     1       1.713   8.380  19.837  0.00  0.00    +0.000 A 
ATOM     19  H   UNL     1      -1.678  10.954  19.795  0.00  0.00    +0.000 HD
ATOM     20  H   UNL     1      -0.813  10.686  21.222  0.00  0.00    +0.000 HD
ENDBRANCH   8  12
BRANCH   1  22
ATOM     21  C   UNL     1       2.432   2.914  21.893  0.00  0.00    +0.000 C 
ATOM     22  O   UNL     1       2.484   2.021  20.785  0.00  0.00    +0.000 OA
ENDBRANCH   1  22
BRANCH   3  23
ATOM     23  O   UNL     1       1.257   1.999  17.801  0.00  0.00    +0.000 OA
ATOM     24  H   UNL     1       1.075   1.635  18.688  0.00  0.00    +0.000 HD
ENDBRANCH   3  23
TORSDOF 3
ENDMDL
