MODEL 1
REMARK VINA RESULT:      -7.6      0.000      0.000
REMARK  Name = 
REMARK  7 active torsions:
REMARK  status: ('A' for Active; 'I' for Inactive)
REMARK    1  A    between atoms: C_1  and  C_2
REMARK    2  A    between atoms: C_2  and  C_3
REMARK    3  A    between atoms: C_7  and  C_9
REMARK    4  A    between atoms: C_9  and  C_10
REMARK    5  A    between atoms: N_16  and  C_17
REMARK    6  A    between atoms: C_20  and  O_21
REMARK    7  A    between atoms: O_21  and  C_22
REMARK                            x       y       z     vdW  Elec       q    Type
REMARK                         _______ _______ _______ _____ _____    ______ ____
ROOT
ATOM      1  C   UNL     1       3.510   3.852  19.725  0.00  0.00    +0.000 A 
ATOM      2  C   UNL     1       2.531   4.409  20.524  0.00  0.00    +0.000 A 
ATOM      3  C   UNL     1       2.542   5.789  20.252  0.00  0.00    +0.000 A 
ATOM      4  N   UNL     1       1.667   6.680  20.837  0.00  0.00    +0.000 N 
ATOM      5  C   UNL     1       1.469   7.977  20.403  0.00  0.00    +0.000 C 
ATOM      6  O   UNL     1       1.985   8.515  19.423  0.00  0.00    +0.000 OA
ATOM      7  N   UNL     1       3.512   6.095  19.397  0.00  0.00    +0.000 NA
ATOM      8  N   UNL     1       4.031   4.915  18.985  0.00  0.00    +0.000 N 
ATOM      9  H   UNL     1       1.090   6.319  21.582  0.00  0.00    +0.000 HD
ENDROOT
BRANCH   8  10
ATOM     10  C   UNL     1       4.998   4.892  17.936  0.00  0.00    +0.000 A 
ATOM     11  C   UNL     1       4.622   4.543  16.631  0.00  0.00    +0.000 A 
ATOM     12  C   UNL     1       5.558   4.615  15.593  0.00  0.00    +0.000 A 
ATOM     13  C   UNL     1       6.874   5.026  15.843  0.00  0.00    +0.000 A 
ATOM     14  C   UNL     1       7.265   5.277  17.152  0.00  0.00    +0.000 A 
ATOM     15  C   UNL     1       6.337   5.196  18.190  0.00  0.00    +0.000 A 
BRANCH  13  16
ATOM     16  O   UNL     1       7.709   5.100  14.761  0.00  0.00    +0.000 OA
ATOM     17  C   UNL     1       7.102   4.782  13.509  0.00  0.00    +0.000 C 
ENDBRANCH  13  16
ENDBRANCH   8  10
BRANCH   1  19
ATOM     18  C   UNL     1       3.429   1.606  18.554  0.00  0.00    +0.000 C 
ATOM     19  C   UNL     1       4.018   2.442  19.678  0.00  0.00    +0.000 C 
ENDBRANCH   1  19
BRANCH   5  20
ATOM     20  C   UNL     1       0.480   8.754  21.260  0.00  0.00    +0.000 C 
BRANCH  20  21
ATOM     21  C   UNL     1       0.050   9.976  20.513  0.00  0.00    +0.000 A 
ATOM     22  C   UNL     1      -0.879  10.065  19.494  0.00  0.00    +0.000 A 
ATOM     23  C   UNL     1      -0.978  11.382  18.965  0.00  0.00    +0.000 A 
ATOM     24  C   UNL     1      -0.148  12.262  19.621  0.00  0.00    +0.000 A 
ATOM     25  S   UNL     1       0.739  11.502  20.870  0.00  0.00    +0.000 S 
ENDBRANCH  20  21
ENDBRANCH   5  20
TORSDOF 5
ENDMDL
MODEL 2
REMARK VINA RESULT:      -7.4      3.010      7.884
REMARK  Name = 
REMARK  7 active torsions:
REMARK  status: ('A' for Active; 'I' for Inactive)
REMARK    1  A    between atoms: C_1  and  C_2
REMARK    2  A    between atoms: C_2  and  C_3
REMARK    3  A    between atoms: C_7  and  C_9
REMARK    4  A    between atoms: C_9  and  C_10
REMARK    5  A    between atoms: N_16  and  C_17
REMARK    6  A    between atoms: C_20  and  O_21
REMARK    7  A    between atoms: O_21  and  C_22
REMARK                            x       y       z     vdW  Elec       q    Type
REMARK                         _______ _______ _______ _____ _____    ______ ____
ROOT
ATOM      1  C   UNL     1       2.978   5.367  19.749  0.00  0.00    +0.000 A 
ATOM      2  C   UNL     1       4.024   4.613  19.255  0.00  0.00    +0.000 A 
ATOM      3  C   UNL     1       4.552   5.336  18.171  0.00  0.00    +0.000 A 
ATOM      4  N   UNL     1       5.644   4.915  17.443  0.00  0.00    +0.000 N 
ATOM      5  C   UNL     1       6.348   5.713  16.560  0.00  0.00    +0.000 C 
ATOM      6  O   UNL     1       6.153   6.905  16.326  0.00  0.00    +0.000 OA
ATOM      7  N   UNL     1       3.841   6.436  17.945  0.00  0.00    +0.000 NA
ATOM      8  N   UNL     1       2.954   6.522  18.965  0.00  0.00    +0.000 N 
ATOM      9  H   UNL     1       5.981   3.984  17.637  0.00  0.00    +0.000 HD
ENDROOT
BRANCH   8  10
ATOM     10  C   UNL     1       2.140   7.685  19.101  0.00  0.00    +0.000 A 
ATOM     11  C   UNL     1       1.660   8.073  20.360  0.00  0.00    +0.000 A 
ATOM     12  C   UNL     1       0.940   9.266  20.495  0.00  0.00    +0.000 A 
ATOM     13  C   UNL     1       0.687  10.079  19.382  0.00  0.00    +0.000 A 
ATOM     14  C   UNL     1       1.081   9.642  18.124  0.00  0.00    +0.000 A 
ATOM     15  C   UNL     1       1.788   8.448  17.985  0.00  0.00    +0.000 A 
BRANCH  13  16
ATOM     16  O   UNL     1       0.007  11.243  19.616  0.00  0.00    +0.000 OA
ATOM     17  C   UNL     1      -1.285  11.317  19.015  0.00  0.00    +0.000 C 
ENDBRANCH  13  16
ENDBRANCH   8  10
BRANCH   1  19
ATOM     18  C   UNL     1       1.010   3.934  20.449  0.00  0.00    +0.000 C 
ATOM     19  C   UNL     1       1.985   5.038  20.823  0.00  0.00    +0.000 C 
ENDBRANCH   1  19
BRANCH   5  20
ATOM     20  C   UNL     1       7.481   4.978  15.857  0.00  0.00    +0.000 C 
BRANCH  20  21
ATOM     21  C   UNL     1       7.021   4.575  14.492  0.00  0.00    +0.000 A 
ATOM     22  C   UNL     1       5.935   3.787  14.160  0.00  0.00    +0.000 A 
ATOM     23  C   UNL     1       5.846   3.551  12.761  0.00  0.00    +0.000 A 
ATOM     24  C   UNL     1       6.845   4.195  12.066  0.00  0.00    +0.000 A 
ATOM     25  S   UNL     1       7.877   5.084  13.100  0.00  0.00    +0.000 S 
ENDBRANCH  20  21
ENDBRANCH   5  20
TORSDOF 5
ENDMDL
MODEL 3
REMARK VINA RESULT:      -7.4      3.023      7.892
REMARK  Name = 
REMARK  7 active torsions:
REMARK  status: ('A' for Active; 'I' for Inactive)
REMARK    1  A    between atoms: C_1  and  C_2
REMARK    2  A    between atoms: C_2  and  C_3
REMARK    3  A    between atoms: C_7  and  C_9
REMARK    4  A    between atoms: C_9  and  C_10
REMARK    5  A    between atoms: N_16  and  C_17
REMARK    6  A    between atoms: C_20  and  O_21
REMARK    7  A    between atoms: O_21  and  C_22
REMARK                            x       y       z     vdW  Elec       q    Type
REMARK                         _______ _______ _______ _____ _____    ______ ____
ROOT
ATOM      1  C   UNL     1       2.874   5.383  19.706  0.00  0.00    +0.000 A 
ATOM      2  C   UNL     1       3.902   4.604  19.213  0.00  0.00    +0.000 A 
ATOM      3  C   UNL     1       4.476   5.334  18.158  0.00  0.00    +0.000 A 
ATOM      4  N   UNL     1       5.567   4.891  17.440  0.00  0.00    +0.000 N 
ATOM      5  C   UNL     1       6.316   5.683  16.590  0.00  0.00    +0.000 C 
ATOM      6  O   UNL     1       6.168   6.887  16.382  0.00  0.00    +0.000 OA
ATOM      7  N   UNL     1       3.809   6.463  17.945  0.00  0.00    +0.000 NA
ATOM      8  N   UNL     1       2.906   6.557  18.950  0.00  0.00    +0.000 N 
ATOM      9  H   UNL     1       5.867   3.944  17.617  0.00  0.00    +0.000 HD
ENDROOT
BRANCH   8  10
ATOM     10  C   UNL     1       2.131   7.745  19.099  0.00  0.00    +0.000 A 
ATOM     11  C   UNL     1       1.855   8.558  17.990  0.00  0.00    +0.000 A 
ATOM     12  C   UNL     1       1.016   9.669  18.131  0.00  0.00    +0.000 A 
ATOM     13  C   UNL     1       0.450   9.985  19.373  0.00  0.00    +0.000 A 
ATOM     14  C   UNL     1       0.804   9.234  20.487  0.00  0.00    +0.000 A 
ATOM     15  C   UNL     1       1.648   8.133  20.351  0.00  0.00    +0.000 A 
BRANCH  13  16
ATOM     16  O   UNL     1      -0.385  11.069  19.408  0.00  0.00    +0.000 OA
ATOM     17  C   UNL     1      -0.507  11.695  20.684  0.00  0.00    +0.000 C 
ENDBRANCH  13  16
ENDBRANCH   8  10
BRANCH   1  19
ATOM     18  C   UNL     1       1.123   3.748  20.530  0.00  0.00    +0.000 C 
ATOM     19  C   UNL     1       1.849   5.065  20.753  0.00  0.00    +0.000 C 
ENDBRANCH   1  19
BRANCH   5  20
ATOM     20  C   UNL     1       7.435   4.926  15.891  0.00  0.00    +0.000 C 
BRANCH  20  21
ATOM     21  C   UNL     1       6.975   4.542  14.520  0.00  0.00    +0.000 A 
ATOM     22  C   UNL     1       5.878   3.776  14.176  0.00  0.00    +0.000 A 
ATOM     23  C   UNL     1       5.792   3.553  12.774  0.00  0.00    +0.000 A 
ATOM     24  C   UNL     1       6.806   4.185  12.090  0.00  0.00    +0.000 A 
ATOM     25  S   UNL     1       7.848   5.047  13.137  0.00  0.00    +0.000 S 
ENDBRANCH  20  21
ENDBRANCH   5  20
TORSDOF 5
ENDMDL
MODEL 4
REMARK VINA RESULT:      -7.3      1.726      2.335
REMARK  Name = 
REMARK  7 active torsions:
REMARK  status: ('A' for Active; 'I' for Inactive)
REMARK    1  A    between atoms: C_1  and  C_2
REMARK    2  A    between atoms: C_2  and  C_3
REMARK    3  A    between atoms: C_7  and  C_9
REMARK    4  A    between atoms: C_9  and  C_10
REMARK    5  A    between atoms: N_16  and  C_17
REMARK    6  A    between atoms: C_20  and  O_21
REMARK    7  A    between atoms: O_21  and  C_22
REMARK                            x       y       z     vdW  Elec       q    Type
REMARK                         _______ _______ _______ _____ _____    ______ ____
ROOT
ATOM      1  C   UNL     1       2.392   5.729  20.167  0.00  0.00    +0.000 A 
ATOM      2  C   UNL     1       1.562   6.772  20.530  0.00  0.00    +0.000 A 
ATOM      3  C   UNL     1       1.845   7.825  19.643  0.00  0.00    +0.000 A 
ATOM      4  N   UNL     1       1.181   9.032  19.669  0.00  0.00    +0.000 N 
ATOM      5  C   UNL     1       1.239   9.977  18.661  0.00  0.00    +0.000 C 
ATOM      6  O   UNL     1       1.832   9.875  17.588  0.00  0.00    +0.000 OA
ATOM      7  N   UNL     1       2.840   7.499  18.823  0.00  0.00    +0.000 NA
ATOM      8  N   UNL     1       3.102   6.192  19.057  0.00  0.00    +0.000 N 
ATOM      9  H   UNL     1       0.558   9.186  20.448  0.00  0.00    +0.000 HD
ENDROOT
BRANCH   8  10
ATOM     10  C   UNL     1       4.022   5.492  18.222  0.00  0.00    +0.000 A 
ATOM     11  C   UNL     1       3.560   4.564  17.277  0.00  0.00    +0.000 A 
ATOM     12  C   UNL     1       4.464   3.953  16.400  0.00  0.00    +0.000 A 
ATOM     13  C   UNL     1       5.831   4.253  16.458  0.00  0.00    +0.000 A 
ATOM     14  C   UNL     1       6.295   5.098  17.458  0.00  0.00    +0.000 A 
ATOM     15  C   UNL     1       5.398   5.700  18.340  0.00  0.00    +0.000 A 
BRANCH  13  16
ATOM     16  O   UNL     1       6.633   3.634  15.538  0.00  0.00    +0.000 OA
ATOM     17  C   UNL     1       6.305   3.902  14.175  0.00  0.00    +0.000 C 
ENDBRANCH  13  16
ENDBRANCH   8  10
BRANCH   1  19
ATOM     18  C   UNL     1       1.370   3.517  20.860  0.00  0.00    +0.000 C 
ATOM     19  C   UNL     1       2.606   4.401  20.829  0.00  0.00    +0.000 C 
ENDBRANCH   1  19
BRANCH   5  20
ATOM     20  C   UNL     1       0.445  11.238  18.971  0.00  0.00    +0.000 C 
BRANCH  20  21
ATOM     21  C   UNL     1      -0.973  11.033  18.541  0.00  0.00    +0.000 A 
ATOM     22  C   UNL     1      -1.465  10.089  17.660  0.00  0.00    +0.000 A 
ATOM     23  C   UNL     1      -2.860  10.239  17.430  0.00  0.00    +0.000 A 
ATOM     24  C   UNL     1      -3.395  11.270  18.169  0.00  0.00    +0.000 A 
ATOM     25  S   UNL     1      -2.218  12.044  19.139  0.00  0.00    +0.000 S 
ENDBRANCH  20  21
ENDBRANCH   5  20
TORSDOF 5
ENDMDL
MODEL 5
REMARK VINA RESULT:      -7.3      1.134      1.344
REMARK  Name = 
REMARK  7 active torsions:
REMARK  status: ('A' for Active; 'I' for Inactive)
REMARK    1  A    between atoms: C_1  and  C_2
REMARK    2  A    between atoms: C_2  and  C_3
REMARK    3  A    between atoms: C_7  and  C_9
REMARK    4  A    between atoms: C_9  and  C_10
REMARK    5  A    between atoms: N_16  and  C_17
REMARK    6  A    between atoms: C_20  and  O_21
REMARK    7  A    between atoms: O_21  and  C_22
REMARK                            x       y       z     vdW  Elec       q    Type
REMARK                         _______ _______ _______ _____ _____    ______ ____
ROOT
ATOM      1  C   UNL     1       2.608   4.580  20.238  0.00  0.00    +0.000 A 
ATOM      2  C   UNL     1       1.635   5.352  20.843  0.00  0.00    +0.000 A 
ATOM      3  C   UNL     1       1.853   6.670  20.405  0.00  0.00    +0.000 A 
ATOM      4  N   UNL     1       1.048   7.729  20.769  0.00  0.00    +0.000 N 
ATOM      5  C   UNL     1       1.065   8.968  20.158  0.00  0.00    +0.000 C 
ATOM      6  O   UNL     1       1.742   9.303  19.186  0.00  0.00    +0.000 OA
ATOM      7  N   UNL     1       2.936   6.741  19.638  0.00  0.00    +0.000 NA
ATOM      8  N   UNL     1       3.335   5.463  19.438  0.00  0.00    +0.000 N 
ATOM      9  H   UNL     1       0.357   7.543  21.481  0.00  0.00    +0.000 HD
ENDROOT
BRANCH   8  10
ATOM     10  C   UNL     1       4.390   5.185  18.520  0.00  0.00    +0.000 A 
ATOM     11  C   UNL     1       4.104   4.848  17.189  0.00  0.00    +0.000 A 
ATOM     12  C   UNL     1       5.149   4.668  16.276  0.00  0.00    +0.000 A 
ATOM     13  C   UNL     1       6.484   4.816  16.676  0.00  0.00    +0.000 A 
ATOM     14  C   UNL     1       6.764   5.054  18.015  0.00  0.00    +0.000 A 
ATOM     15  C   UNL     1       5.725   5.222  18.931  0.00  0.00    +0.000 A 
BRANCH  13  16
ATOM     16  O   UNL     1       7.436   4.656  15.705  0.00  0.00    +0.000 OA
ATOM     17  C   UNL     1       6.963   4.806  14.367  0.00  0.00    +0.000 C 
ENDBRANCH  13  16
ENDBRANCH   8  10
BRANCH   1  19
ATOM     18  C   UNL     1       2.310   2.510  21.669  0.00  0.00    +0.000 C 
ATOM     19  C   UNL     1       2.930   3.128  20.426  0.00  0.00    +0.000 C 
ENDBRANCH   1  19
BRANCH   5  20
ATOM     20  C   UNL     1       0.105   9.965  20.791  0.00  0.00    +0.000 C 
BRANCH  20  21
ATOM     21  C   UNL     1      -0.491  10.813  19.713  0.00  0.00    +0.000 A 
ATOM     22  C   UNL     1      -1.435  10.450  18.772  0.00  0.00    +0.000 A 
ATOM     23  C   UNL     1      -1.713  11.498  17.852  0.00  0.00    +0.000 A 
ATOM     24  C   UNL     1      -0.999  12.639  18.142  0.00  0.00    +0.000 A 
ATOM     25  S   UNL     1      -0.006  12.443  19.520  0.00  0.00    +0.000 S 
ENDBRANCH  20  21
ENDBRANCH   5  20
TORSDOF 5
ENDMDL
MODEL 6
REMARK VINA RESULT:      -7.3      0.353      1.025
REMARK  Name = 
REMARK  7 active torsions:
REMARK  status: ('A' for Active; 'I' for Inactive)
REMARK    1  A    between atoms: C_1  and  C_2
REMARK    2  A    between atoms: C_2  and  C_3
REMARK    3  A    between atoms: C_7  and  C_9
REMARK    4  A    between atoms: C_9  and  C_10
REMARK    5  A    between atoms: N_16  and  C_17
REMARK    6  A    between atoms: C_20  and  O_21
REMARK    7  A    between atoms: O_21  and  C_22
REMARK                            x       y       z     vdW  Elec       q    Type
REMARK                         _______ _______ _______ _____ _____    ______ ____
ROOT
ATOM      1  C   UNL     1       3.553   4.041  19.422  0.00  0.00    +0.000 A 
ATOM      2  C   UNL     1       2.601   4.540  20.290  0.00  0.00    +0.000 A 
ATOM      3  C   UNL     1       2.569   5.929  20.081  0.00  0.00    +0.000 A 
ATOM      4  N   UNL     1       1.704   6.773  20.745  0.00  0.00    +0.000 N 
ATOM      5  C   UNL     1       1.458   8.083  20.380  0.00  0.00    +0.000 C 
ATOM      6  O   UNL     1       1.915   8.676  19.404  0.00  0.00    +0.000 OA
ATOM      7  N   UNL     1       3.492   6.297  19.197  0.00  0.00    +0.000 NA
ATOM      8  N   UNL     1       4.017   5.148  18.708  0.00  0.00    +0.000 N 
ATOM      9  H   UNL     1       1.171   6.366  21.498  0.00  0.00    +0.000 HD
ENDROOT
BRANCH   8  10
ATOM     10  C   UNL     1       4.933   5.195  17.616  0.00  0.00    +0.000 A 
ATOM     11  C   UNL     1       6.156   5.870  17.743  0.00  0.00    +0.000 A 
ATOM     12  C   UNL     1       7.086   5.830  16.698  0.00  0.00    +0.000 A 
ATOM     13  C   UNL     1       6.808   5.127  15.519  0.00  0.00    +0.000 A 
ATOM     14  C   UNL     1       5.558   4.543  15.360  0.00  0.00    +0.000 A 
ATOM     15  C   UNL     1       4.625   4.590  16.395  0.00  0.00    +0.000 A 
BRANCH  13  16
ATOM     16  O   UNL     1       7.791   5.114  14.567  0.00  0.00    +0.000 OA
ATOM     17  C   UNL     1       7.357   4.751  13.257  0.00  0.00    +0.000 C 
ENDBRANCH  13  16
ENDBRANCH   8  10
BRANCH   1  19
ATOM     18  C   UNL     1       3.275   1.755  18.366  0.00  0.00    +0.000 C 
ATOM     19  C   UNL     1       4.090   2.648  19.288  0.00  0.00    +0.000 C 
ENDBRANCH   1  19
BRANCH   5  20
ATOM     20  C   UNL     1       0.494   8.797  21.317  0.00  0.00    +0.000 C 
BRANCH  20  21
ATOM     21  C   UNL     1      -0.041  10.011  20.625  0.00  0.00    +0.000 A 
ATOM     22  C   UNL     1      -0.996  10.068  19.627  0.00  0.00    +0.000 A 
ATOM     23  C   UNL     1      -1.202  11.392  19.151  0.00  0.00    +0.000 A 
ATOM     24  C   UNL     1      -0.425  12.307  19.825  0.00  0.00    +0.000 A 
ATOM     25  S   UNL     1       0.541  11.569  21.028  0.00  0.00    +0.000 S 
ENDBRANCH  20  21
ENDBRANCH   5  20
TORSDOF 5
ENDMDL
MODEL 7
REMARK VINA RESULT:      -7.1      1.765      2.610
REMARK  Name = 
REMARK  7 active torsions:
REMARK  status: ('A' for Active; 'I' for Inactive)
REMARK    1  A    between atoms: C_1  and  C_2
REMARK    2  A    between atoms: C_2  and  C_3
REMARK    3  A    between atoms: C_7  and  C_9
REMARK    4  A    between atoms: C_9  and  C_10
REMARK    5  A    between atoms: N_16  and  C_17
REMARK    6  A    between atoms: C_20  and  O_21
REMARK    7  A    between atoms: O_21  and  C_22
REMARK                            x       y       z     vdW  Elec       q    Type
REMARK                         _______ _______ _______ _____ _____    ______ ____
ROOT
ATOM      1  C   UNL     1       2.166   5.890  20.239  0.00  0.00    +0.000 A 
ATOM      2  C   UNL     1       1.426   6.954  20.719  0.00  0.00    +0.000 A 
ATOM      3  C   UNL     1       1.652   8.020  19.831  0.00  0.00    +0.000 A 
ATOM      4  N   UNL     1       1.046   9.252  19.961  0.00  0.00    +0.000 N 
ATOM      5  C   UNL     1       1.031  10.222  18.977  0.00  0.00    +0.000 C 
ATOM      6  O   UNL     1       1.495  10.128  17.841  0.00  0.00    +0.000 OA
ATOM      7  N   UNL     1       2.534   7.680  18.897  0.00  0.00    +0.000 NA
ATOM      8  N   UNL     1       2.766   6.357  19.068  0.00  0.00    +0.000 N 
ATOM      9  H   UNL     1       0.522   9.407  20.809  0.00  0.00    +0.000 HD
ENDROOT
BRANCH   8  10
ATOM     10  C   UNL     1       3.556   5.646  18.118  0.00  0.00    +0.000 A 
ATOM     11  C   UNL     1       4.747   6.201  17.626  0.00  0.00    +0.000 A 
ATOM     12  C   UNL     1       5.561   5.455  16.765  0.00  0.00    +0.000 A 
ATOM     13  C   UNL     1       5.198   4.157  16.383  0.00  0.00    +0.000 A 
ATOM     14  C   UNL     1       3.973   3.650  16.795  0.00  0.00    +0.000 A 
ATOM     15  C   UNL     1       3.154   4.395  17.643  0.00  0.00    +0.000 A 
BRANCH  13  16
ATOM     16  O   UNL     1       6.073   3.492  15.568  0.00  0.00    +0.000 OA
ATOM     17  C   UNL     1       6.234   4.057  14.268  0.00  0.00    +0.000 C 
ENDBRANCH  13  16
ENDBRANCH   8  10
BRANCH   1  19
ATOM     18  C   UNL     1       1.204   3.600  20.735  0.00  0.00    +0.000 C 
ATOM     19  C   UNL     1       2.396   4.537  20.841  0.00  0.00    +0.000 C 
ENDBRANCH   1  19
BRANCH   5  20
ATOM     20  C   UNL     1       0.330  11.503  19.405  0.00  0.00    +0.000 C 
BRANCH  20  21
ATOM     21  C   UNL     1      -1.114  11.413  19.028  0.00  0.00    +0.000 A 
ATOM     22  C   UNL     1      -1.690  10.615  18.057  0.00  0.00    +0.000 A 
ATOM     23  C   UNL     1      -3.086  10.848  17.923  0.00  0.00    +0.000 A 
ATOM     24  C   UNL     1      -3.538  11.790  18.820  0.00  0.00    +0.000 A 
ATOM     25  S   UNL     1      -2.282  12.382  19.819  0.00  0.00    +0.000 S 
ENDBRANCH  20  21
ENDBRANCH   5  20
TORSDOF 5
ENDMDL
MODEL 8
REMARK VINA RESULT:      -7.0      1.988      2.809
REMARK  Name = 
REMARK  7 active torsions:
REMARK  status: ('A' for Active; 'I' for Inactive)
REMARK    1  A    between atoms: C_1  and  C_2
REMARK    2  A    between atoms: C_2  and  C_3
REMARK    3  A    between atoms: C_7  and  C_9
REMARK    4  A    between atoms: C_9  and  C_10
REMARK    5  A    between atoms: N_16  and  C_17
REMARK    6  A    between atoms: C_20  and  O_21
REMARK    7  A    between atoms: O_21  and  C_22
REMARK                            x       y       z     vdW  Elec       q    Type
REMARK                         _______ _______ _______ _____ _____    ______ ____
ROOT
ATOM      1  C   UNL     1       2.174   5.931  20.226  0.00  0.00    +0.000 A 
ATOM      2  C   UNL     1       1.424   7.036  20.578  0.00  0.00    +0.000 A 
ATOM      3  C   UNL     1       1.747   8.040  19.649  0.00  0.00    +0.000 A 
ATOM      4  N   UNL     1       1.162   9.289  19.654  0.00  0.00    +0.000 N 
ATOM      5  C   UNL     1       1.249  10.196  18.615  0.00  0.00    +0.000 C 
ATOM      6  O   UNL     1       1.801  10.023  17.528  0.00  0.00    +0.000 OA
ATOM      7  N   UNL     1       2.692   7.625  18.812  0.00  0.00    +0.000 NA
ATOM      8  N   UNL     1       2.877   6.312  19.081  0.00  0.00    +0.000 N 
ATOM      9  H   UNL     1       0.575   9.506  20.445  0.00  0.00    +0.000 HD
ENDROOT
BRANCH   8  10
ATOM     10  C   UNL     1       3.724   5.528  18.244  0.00  0.00    +0.000 A 
ATOM     11  C   UNL     1       3.223   4.393  17.588  0.00  0.00    +0.000 A 
ATOM     12  C   UNL     1       4.038   3.687  16.696  0.00  0.00    +0.000 A 
ATOM     13  C   UNL     1       5.355   4.095  16.452  0.00  0.00    +0.000 A 
ATOM     14  C   UNL     1       5.876   5.160  17.176  0.00  0.00    +0.000 A 
ATOM     15  C   UNL     1       5.070   5.860  18.074  0.00  0.00    +0.000 A 
BRANCH  13  16
ATOM     16  O   UNL     1       6.064   3.364  15.538  0.00  0.00    +0.000 OA
ATOM     17  C   UNL     1       6.380   4.054  14.330  0.00  0.00    +0.000 C 
ENDBRANCH  13  16
ENDBRANCH   8  10
BRANCH   1  19
ATOM     18  C   UNL     1       1.174   3.647  20.679  0.00  0.00    +0.000 C 
ATOM     19  C   UNL     1       2.322   4.613  20.925  0.00  0.00    +0.000 C 
ENDBRANCH   1  19
BRANCH   5  20
ATOM     20  C   UNL     1       0.548  11.515  18.906  0.00  0.00    +0.000 C 
BRANCH  20  21
ATOM     21  C   UNL     1       1.580  12.585  19.064  0.00  0.00    +0.000 A 
ATOM     22  C   UNL     1       2.324  13.201  18.076  0.00  0.00    +0.000 A 
ATOM     23  C   UNL     1       3.268  14.124  18.604  0.00  0.00    +0.000 A 
ATOM     24  C   UNL     1       3.190  14.210  19.976  0.00  0.00    +0.000 A 
ATOM     25  S   UNL     1       1.979  13.186  20.616  0.00  0.00    +0.000 S 
ENDBRANCH  20  21
ENDBRANCH   5  20
TORSDOF 5
ENDMDL
MODEL 9
REMARK VINA RESULT:      -7.0      4.307      7.448
REMARK  Name = 
REMARK  7 active torsions:
REMARK  status: ('A' for Active; 'I' for Inactive)
REMARK    1  A    between atoms: C_1  and  C_2
REMARK    2  A    between atoms: C_2  and  C_3
REMARK    3  A    between atoms: C_7  and  C_9
REMARK    4  A    between atoms: C_9  and  C_10
REMARK    5  A    between atoms: N_16  and  C_17
REMARK    6  A    between atoms: C_20  and  O_21
REMARK    7  A    between atoms: O_21  and  C_22
REMARK                            x       y       z     vdW  Elec       q    Type
REMARK                         _______ _______ _______ _____ _____    ______ ____
ROOT
ATOM      1  C   UNL     1       0.442  12.038  18.931  0.00  0.00    +0.000 A 
ATOM      2  C   UNL     1      -0.725  12.703  18.607  0.00  0.00    +0.000 A 
ATOM      3  C   UNL     1      -1.611  11.725  18.123  0.00  0.00    +0.000 A 
ATOM      4  N   UNL     1      -2.904  12.005  17.734  0.00  0.00    +0.000 N 
ATOM      5  C   UNL     1      -3.876  11.048  17.512  0.00  0.00    +0.000 C 
ATOM      6  O   UNL     1      -3.766   9.833  17.671  0.00  0.00    +0.000 OA
ATOM      7  N   UNL     1      -1.021  10.536  18.070  0.00  0.00    +0.000 NA
ATOM      8  N   UNL     1       0.186  10.692  18.662  0.00  0.00    +0.000 N 
ATOM      9  H   UNL     1      -3.157  12.981  17.687  0.00  0.00    +0.000 HD
ENDROOT
BRANCH   8  10
ATOM     10  C   UNL     1       1.010   9.554  18.907  0.00  0.00    +0.000 A 
ATOM     11  C   UNL     1       1.020   8.943  20.169  0.00  0.00    +0.000 A 
ATOM     12  C   UNL     1       1.761   7.772  20.371  0.00  0.00    +0.000 A 
ATOM     13  C   UNL     1       2.499   7.203  19.325  0.00  0.00    +0.000 A 
ATOM     14  C   UNL     1       2.562   7.865  18.106  0.00  0.00    +0.000 A 
ATOM     15  C   UNL     1       1.835   9.038  17.905  0.00  0.00    +0.000 A 
BRANCH  13  16
ATOM     16  O   UNL     1       3.162   6.039  19.606  0.00  0.00    +0.000 OA
ATOM     17  C   UNL     1       2.449   5.125  20.437  0.00  0.00    +0.000 C 
ENDBRANCH  13  16
ENDBRANCH   8  10
BRANCH   1  19
ATOM     18  C   UNL     1       2.707  12.946  18.247  0.00  0.00    +0.000 C 
ATOM     19  C   UNL     1       1.762  12.588  19.383  0.00  0.00    +0.000 C 
ENDBRANCH   1  19
BRANCH   5  20
ATOM     20  C   UNL     1      -5.202  11.634  17.047  0.00  0.00    +0.000 C 
BRANCH  20  21
ATOM     21  C   UNL     1      -6.087  11.830  18.237  0.00  0.00    +0.000 A 
ATOM     22  C   UNL     1      -6.762  10.865  18.961  0.00  0.00    +0.000 A 
ATOM     23  C   UNL     1      -7.573  11.426  19.986  0.00  0.00    +0.000 A 
ATOM     24  C   UNL     1      -7.462  12.798  20.035  0.00  0.00    +0.000 A 
ATOM     25  S   UNL     1      -6.381  13.399  18.854  0.00  0.00    +0.000 S 
ENDBRANCH  20  21
ENDBRANCH   5  20
TORSDOF 5
ENDMDL
