MODEL 1
REMARK VINA RESULT:      -8.7      0.000      0.000
REMARK  Name = 
REMARK  10 active torsions:
REMARK  status: ('A' for Active; 'I' for Inactive)
REMARK    1  A    between atoms: C_2  and  O_3
REMARK    2  A    between atoms: C_2  and  C_4
REMARK    3  A    between atoms: C_8  and  N_9
REMARK    4  A    between atoms: N_9  and  C_10
REMARK    5  A    between atoms: C_10  and  N_12
REMARK    6  A    between atoms: N_12  and  N_13
REMARK    7  A    between atoms: C_14  and  C_15
REMARK    8  A    between atoms: C_20  and  O_21
REMARK    9  A    between atoms: O_21  and  C_22
REMARK   10  A    between atoms: C_22  and  C_23
REMARK                            x       y       z     vdW  Elec       q    Type
REMARK                         _______ _______ _______ _____ _____    ______ ____
ROOT
ATOM      1  N   UNL     1       6.020   4.366  19.105  0.00  0.00    +0.000 NA
ATOM      2  C   UNL     1       4.877   3.835  18.817  0.00  0.00    +0.000 C 
ENDROOT
BRANCH   2   3
ATOM      3  C   UNL     1       3.788   3.753  19.807  0.00  0.00    +0.000 A 
ATOM      4  C   UNL     1       3.571   2.487  20.370  0.00  0.00    +0.000 A 
ATOM      5  C   UNL     1       2.505   2.285  21.244  0.00  0.00    +0.000 A 
ATOM      6  C   UNL     1       1.651   3.339  21.544  0.00  0.00    +0.000 A 
ATOM      7  C   UNL     1       1.883   4.606  21.005  0.00  0.00    +0.000 A 
ATOM      8  C   UNL     1       2.978   4.845  20.164  0.00  0.00    +0.000 A 
BRANCH   8   9
ATOM      9  O   UNL     1       3.309   6.099  19.703  0.00  0.00    +0.000 OA
BRANCH   9  10
ATOM     10  C   UNL     1       2.452   6.606  18.672  0.00  0.00    +0.000 C 
BRANCH  10  11
ATOM     11  C   UNL     1       2.010   8.034  18.896  0.00  0.00    +0.000 A 
ATOM     12  C   UNL     1       2.167   8.959  17.847  0.00  0.00    +0.000 A 
ATOM     13  C   UNL     1       1.664  10.256  17.958  0.00  0.00    +0.000 A 
ATOM     14  C   UNL     1       0.995  10.635  19.119  0.00  0.00    +0.000 A 
ATOM     15 BR   UNL     1       0.285  12.382  19.258  0.00  0.00    +0.000 Br
ATOM     16  C   UNL     1       0.832   9.733  20.168  0.00  0.00    +0.000 A 
ATOM     17  C   UNL     1       1.336   8.433  20.057  0.00  0.00    +0.000 A 
ENDBRANCH  10  11
ENDBRANCH   9  10
ENDBRANCH   8   9
ENDBRANCH   2   3
BRANCH   1  18
ATOM     18  N   UNL     1       6.917   4.387  18.083  0.00  0.00    +0.000 N 
ATOM     19  H   UNL     1       7.711   3.755  18.062  0.00  0.00    +0.000 HD
BRANCH  18  20
ATOM     20  C   UNL     1       6.785   5.300  17.054  0.00  0.00    +0.000 C 
ATOM     21  S   UNL     1       7.461   6.806  17.284  0.00  0.00    +0.000 S 
BRANCH  20  22
ATOM     22  N   UNL     1       6.106   4.765  15.977  0.00  0.00    +0.000 N 
ATOM     23  H   UNL     1       5.216   4.379  16.295  0.00  0.00    +0.000 HD
BRANCH  22  28
ATOM     24  C   UNL     1       6.154   3.442  12.487  0.00  0.00    +0.000 A 
ATOM     25  C   UNL     1       7.168   4.225  11.933  0.00  0.00    +0.000 A 
ATOM     26  C   UNL     1       7.847   5.138  12.735  0.00  0.00    +0.000 A 
ATOM     27  C   UNL     1       7.498   5.276  14.085  0.00  0.00    +0.000 A 
ATOM     28  C   UNL     1       6.488   4.485  14.653  0.00  0.00    +0.000 A 
ATOM     29  C   UNL     1       5.854   3.542  13.850  0.00  0.00    +0.000 A 
BRANCH  24  31
ATOM     30  O   UNL     1       5.855   1.453  11.221  0.00  0.00    +0.000 OA
ATOM     31  C   UNL     1       5.394   2.516  11.614  0.00  0.00    +0.000 C 
BRANCH  31  32
ATOM     32  O   UNL     1       4.179   2.977  11.243  0.00  0.00    +0.000 OA
ATOM     33  H   UNL     1       3.416   2.422  11.499  0.00  0.00    +0.000 HD
ENDBRANCH  31  32
ENDBRANCH  24  31
ENDBRANCH  22  28
ENDBRANCH  20  22
ENDBRANCH  18  20
ENDBRANCH   1  18
TORSDOF 10
ENDMDL
MODEL 2
REMARK VINA RESULT:      -8.6      0.751      1.303
REMARK  Name = 
REMARK  10 active torsions:
REMARK  status: ('A' for Active; 'I' for Inactive)
REMARK    1  A    between atoms: C_2  and  O_3
REMARK    2  A    between atoms: C_2  and  C_4
REMARK    3  A    between atoms: C_8  and  N_9
REMARK    4  A    between atoms: N_9  and  C_10
REMARK    5  A    between atoms: C_10  and  N_12
REMARK    6  A    between atoms: N_12  and  N_13
REMARK    7  A    between atoms: C_14  and  C_15
REMARK    8  A    between atoms: C_20  and  O_21
REMARK    9  A    between atoms: O_21  and  C_22
REMARK   10  A    between atoms: C_22  and  C_23
REMARK                            x       y       z     vdW  Elec       q    Type
REMARK                         _______ _______ _______ _____ _____    ______ ____
ROOT
ATOM      1  N   UNL     1       5.813   3.824  18.817  0.00  0.00    +0.000 NA
ATOM      2  C   UNL     1       4.717   4.498  18.696  0.00  0.00    +0.000 C 
ENDROOT
BRANCH   2   3
ATOM      3  C   UNL     1       3.505   4.153  19.462  0.00  0.00    +0.000 A 
ATOM      4  C   UNL     1       3.673   3.185  20.463  0.00  0.00    +0.000 A 
ATOM      5  C   UNL     1       2.570   2.722  21.178  0.00  0.00    +0.000 A 
ATOM      6  C   UNL     1       1.304   3.213  20.886  0.00  0.00    +0.000 A 
ATOM      7  C   UNL     1       1.141   4.197  19.909  0.00  0.00    +0.000 A 
ATOM      8  C   UNL     1       2.241   4.714  19.212  0.00  0.00    +0.000 A 
BRANCH   8   9
ATOM      9  O   UNL     1       2.142   5.761  18.324  0.00  0.00    +0.000 OA
BRANCH   9  10
ATOM     10  C   UNL     1       2.829   6.955  18.722  0.00  0.00    +0.000 C 
BRANCH  10  11
ATOM     11  C   UNL     1       1.909   8.062  19.184  0.00  0.00    +0.000 A 
ATOM     12  C   UNL     1       1.533   8.103  20.539  0.00  0.00    +0.000 A 
ATOM     13  C   UNL     1       0.788   9.170  21.040  0.00  0.00    +0.000 A 
ATOM     14  C   UNL     1       0.417  10.209  20.190  0.00  0.00    +0.000 A 
ATOM     15 BR   UNL     1      -0.564  11.672  20.875  0.00  0.00    +0.000 Br
ATOM     16  C   UNL     1       0.781  10.184  18.845  0.00  0.00    +0.000 A 
ATOM     17  C   UNL     1       1.527   9.114  18.342  0.00  0.00    +0.000 A 
ENDBRANCH  10  11
ENDBRANCH   9  10
ENDBRANCH   8   9
ENDBRANCH   2   3
BRANCH   1  18
ATOM     18  N   UNL     1       6.851   4.273  18.063  0.00  0.00    +0.000 N 
ATOM     19  H   UNL     1       7.784   3.886  18.161  0.00  0.00    +0.000 HD
BRANCH  18  20
ATOM     20  C   UNL     1       6.664   5.298  17.154  0.00  0.00    +0.000 C 
ATOM     21  S   UNL     1       7.297   6.788  17.551  0.00  0.00    +0.000 S 
BRANCH  20  22
ATOM     22  N   UNL     1       5.975   4.873  16.035  0.00  0.00    +0.000 N 
ATOM     23  H   UNL     1       5.025   4.610  16.301  0.00  0.00    +0.000 HD
BRANCH  22  28
ATOM     24  C   UNL     1       6.064   3.511  12.561  0.00  0.00    +0.000 A 
ATOM     25  C   UNL     1       7.137   4.231  12.034  0.00  0.00    +0.000 A 
ATOM     26  C   UNL     1       7.838   5.115  12.849  0.00  0.00    +0.000 A 
ATOM     27  C   UNL     1       7.453   5.286  14.186  0.00  0.00    +0.000 A 
ATOM     28  C   UNL     1       6.384   4.558  14.727  0.00  0.00    +0.000 A 
ATOM     29  C   UNL     1       5.726   3.642  13.913  0.00  0.00    +0.000 A 
BRANCH  24  31
ATOM     30  O   UNL     1       4.204   2.942  11.195  0.00  0.00    +0.000 OA
ATOM     31  C   UNL     1       5.283   2.617  11.673  0.00  0.00    +0.000 C 
BRANCH  31  32
ATOM     32  O   UNL     1       5.836   1.398  11.489  0.00  0.00    +0.000 OA
ATOM     33  H   UNL     1       5.409   0.833  10.815  0.00  0.00    +0.000 HD
ENDBRANCH  31  32
ENDBRANCH  24  31
ENDBRANCH  22  28
ENDBRANCH  20  22
ENDBRANCH  18  20
ENDBRANCH   1  18
TORSDOF 10
ENDMDL
MODEL 3
REMARK VINA RESULT:      -8.4      0.736      1.194
REMARK  Name = 
REMARK  10 active torsions:
REMARK  status: ('A' for Active; 'I' for Inactive)
REMARK    1  A    between atoms: C_2  and  O_3
REMARK    2  A    between atoms: C_2  and  C_4
REMARK    3  A    between atoms: C_8  and  N_9
REMARK    4  A    between atoms: N_9  and  C_10
REMARK    5  A    between atoms: C_10  and  N_12
REMARK    6  A    between atoms: N_12  and  N_13
REMARK    7  A    between atoms: C_14  and  C_15
REMARK    8  A    between atoms: C_20  and  O_21
REMARK    9  A    between atoms: O_21  and  C_22
REMARK   10  A    between atoms: C_22  and  C_23
REMARK                            x       y       z     vdW  Elec       q    Type
REMARK                         _______ _______ _______ _____ _____    ______ ____
ROOT
ATOM      1  N   UNL     1       5.587   3.809  18.777  0.00  0.00    +0.000 NA
ATOM      2  C   UNL     1       4.615   4.638  18.970  0.00  0.00    +0.000 C 
ENDROOT
BRANCH   2   3
ATOM      3  C   UNL     1       3.346   4.217  19.591  0.00  0.00    +0.000 A 
ATOM      4  C   UNL     1       3.175   2.833  19.747  0.00  0.00    +0.000 A 
ATOM      5  C   UNL     1       1.972   2.329  20.236  0.00  0.00    +0.000 A 
ATOM      6  C   UNL     1       0.938   3.201  20.554  0.00  0.00    +0.000 A 
ATOM      7  C   UNL     1       1.117   4.579  20.424  0.00  0.00    +0.000 A 
ATOM      8  C   UNL     1       2.336   5.112  19.983  0.00  0.00    +0.000 A 
BRANCH   8   9
ATOM      9  O   UNL     1       2.595   6.463  19.948  0.00  0.00    +0.000 OA
BRANCH   9  10
ATOM     10  C   UNL     1       1.736   7.261  20.774  0.00  0.00    +0.000 C 
BRANCH  10  11
ATOM     11  C   UNL     1       1.375   8.597  20.164  0.00  0.00    +0.000 A 
ATOM     12  C   UNL     1       0.861   9.602  21.004  0.00  0.00    +0.000 A 
ATOM     13  C   UNL     1       0.629  10.888  20.518  0.00  0.00    +0.000 A 
ATOM     14  C   UNL     1       0.915  11.181  19.187  0.00  0.00    +0.000 A 
ATOM     15 BR   UNL     1       0.631  12.932  18.534  0.00  0.00    +0.000 Br
ATOM     16  C   UNL     1       1.424  10.197  18.341  0.00  0.00    +0.000 A 
ATOM     17  C   UNL     1       1.656   8.908  18.829  0.00  0.00    +0.000 A 
ENDBRANCH  10  11
ENDBRANCH   9  10
ENDBRANCH   8   9
ENDBRANCH   2   3
BRANCH   1  18
ATOM     18  N   UNL     1       6.700   4.349  18.214  0.00  0.00    +0.000 N 
ATOM     19  H   UNL     1       7.631   4.098  18.534  0.00  0.00    +0.000 HD
BRANCH  18  20
ATOM     20  C   UNL     1       6.590   5.284  17.202  0.00  0.00    +0.000 C 
ATOM     21  S   UNL     1       7.261   6.784  17.479  0.00  0.00    +0.000 S 
BRANCH  20  22
ATOM     22  N   UNL     1       5.935   4.772  16.099  0.00  0.00    +0.000 N 
ATOM     23  H   UNL     1       5.031   4.395  16.387  0.00  0.00    +0.000 HD
BRANCH  22  28
ATOM     24  C   UNL     1       6.057   3.505  12.591  0.00  0.00    +0.000 A 
ATOM     25  C   UNL     1       7.109   4.269  12.081  0.00  0.00    +0.000 A 
ATOM     26  C   UNL     1       7.787   5.149  12.920  0.00  0.00    +0.000 A 
ATOM     27  C   UNL     1       7.399   5.275  14.261  0.00  0.00    +0.000 A 
ATOM     28  C   UNL     1       6.351   4.503  14.783  0.00  0.00    +0.000 A 
ATOM     29  C   UNL     1       5.717   3.592  13.945  0.00  0.00    +0.000 A 
BRANCH  24  31
ATOM     30  O   UNL     1       5.725   1.525  11.319  0.00  0.00    +0.000 OA
ATOM     31  C   UNL     1       5.300   2.615  11.678  0.00  0.00    +0.000 C 
BRANCH  31  32
ATOM     32  O   UNL     1       4.136   3.138  11.235  0.00  0.00    +0.000 OA
ATOM     33  H   UNL     1       4.107   4.112  11.160  0.00  0.00    +0.000 HD
ENDBRANCH  31  32
ENDBRANCH  24  31
ENDBRANCH  22  28
ENDBRANCH  20  22
ENDBRANCH  18  20
ENDBRANCH   1  18
TORSDOF 10
ENDMDL
MODEL 4
REMARK VINA RESULT:      -8.4      1.427      1.787
REMARK  Name = 
REMARK  10 active torsions:
REMARK  status: ('A' for Active; 'I' for Inactive)
REMARK    1  A    between atoms: C_2  and  O_3
REMARK    2  A    between atoms: C_2  and  C_4
REMARK    3  A    between atoms: C_8  and  N_9
REMARK    4  A    between atoms: N_9  and  C_10
REMARK    5  A    between atoms: C_10  and  N_12
REMARK    6  A    between atoms: N_12  and  N_13
REMARK    7  A    between atoms: C_14  and  C_15
REMARK    8  A    between atoms: C_20  and  O_21
REMARK    9  A    between atoms: O_21  and  C_22
REMARK   10  A    between atoms: C_22  and  C_23
REMARK                            x       y       z     vdW  Elec       q    Type
REMARK                         _______ _______ _______ _____ _____    ______ ____
ROOT
ATOM      1  N   UNL     1       4.488   5.865  17.679  0.00  0.00    +0.000 NA
ATOM      2  C   UNL     1       3.649   4.892  17.540  0.00  0.00    +0.000 C 
ENDROOT
BRANCH   2   3
ATOM      3  C   UNL     1       2.753   4.479  18.635  0.00  0.00    +0.000 A 
ATOM      4  C   UNL     1       2.361   3.132  18.625  0.00  0.00    +0.000 A 
ATOM      5  C   UNL     1       1.441   2.666  19.562  0.00  0.00    +0.000 A 
ATOM      6  C   UNL     1       0.902   3.543  20.495  0.00  0.00    +0.000 A 
ATOM      7  C   UNL     1       1.313   4.878  20.522  0.00  0.00    +0.000 A 
ATOM      8  C   UNL     1       2.275   5.357  19.623  0.00  0.00    +0.000 A 
BRANCH   8   9
ATOM      9  O   UNL     1       2.790   6.632  19.686  0.00  0.00    +0.000 OA
BRANCH   9  10
ATOM     10  C   UNL     1       1.995   7.635  19.041  0.00  0.00    +0.000 C 
BRANCH  10  11
ATOM     11  C   UNL     1       1.338   8.600  20.001  0.00  0.00    +0.000 A 
ATOM     12  C   UNL     1       0.689   9.733  19.475  0.00  0.00    +0.000 A 
ATOM     13  C   UNL     1      -0.037  10.588  20.305  0.00  0.00    +0.000 A 
ATOM     14  C   UNL     1      -0.125  10.312  21.667  0.00  0.00    +0.000 A 
ATOM     15 BR   UNL     1      -1.135  11.451  22.787  0.00  0.00    +0.000 Br
ATOM     16  C   UNL     1       0.512   9.195  22.204  0.00  0.00    +0.000 A 
ATOM     17  C   UNL     1       1.240   8.338  21.372  0.00  0.00    +0.000 A 
ENDBRANCH  10  11
ENDBRANCH   9  10
ENDBRANCH   8   9
ENDBRANCH   2   3
BRANCH   1  18
ATOM     18  N   UNL     1       5.233   6.144  16.575  0.00  0.00    +0.000 N 
ATOM     19  H   UNL     1       4.799   6.413  15.698  0.00  0.00    +0.000 HD
BRANCH  18  20
ATOM     20  C   UNL     1       6.610   6.036  16.615  0.00  0.00    +0.000 C 
ATOM     21  S   UNL     1       7.433   7.162  17.527  0.00  0.00    +0.000 S 
BRANCH  20  22
ATOM     22  N   UNL     1       7.063   4.960  15.875  0.00  0.00    +0.000 N 
ATOM     23  H   UNL     1       7.595   4.334  16.481  0.00  0.00    +0.000 HD
BRANCH  22  28
ATOM     24  C   UNL     1       6.240   3.679  12.468  0.00  0.00    +0.000 A 
ATOM     25  C   UNL     1       7.070   4.484  11.687  0.00  0.00    +0.000 A 
ATOM     26  C   UNL     1       7.919   5.399  12.304  0.00  0.00    +0.000 A 
ATOM     27  C   UNL     1       7.922   5.515  13.701  0.00  0.00    +0.000 A 
ATOM     28  C   UNL     1       7.100   4.702  14.494  0.00  0.00    +0.000 A 
ATOM     29  C   UNL     1       6.294   3.759  13.864  0.00  0.00    +0.000 A 
BRANCH  24  31
ATOM     30  O   UNL     1       4.163   3.085  11.476  0.00  0.00    +0.000 OA
ATOM     31  C   UNL     1       5.294   2.751  11.803  0.00  0.00    +0.000 C 
BRANCH  31  32
ATOM     32  O   UNL     1       5.768   1.495  11.647  0.00  0.00    +0.000 OA
ATOM     33  H   UNL     1       6.326   1.344  10.859  0.00  0.00    +0.000 HD
ENDBRANCH  31  32
ENDBRANCH  24  31
ENDBRANCH  22  28
ENDBRANCH  20  22
ENDBRANCH  18  20
ENDBRANCH   1  18
TORSDOF 10
ENDMDL
MODEL 5
REMARK VINA RESULT:      -8.2      6.502     11.288
REMARK  Name = 
REMARK  10 active torsions:
REMARK  status: ('A' for Active; 'I' for Inactive)
REMARK    1  A    between atoms: C_2  and  O_3
REMARK    2  A    between atoms: C_2  and  C_4
REMARK    3  A    between atoms: C_8  and  N_9
REMARK    4  A    between atoms: N_9  and  C_10
REMARK    5  A    between atoms: C_10  and  N_12
REMARK    6  A    between atoms: N_12  and  N_13
REMARK    7  A    between atoms: C_14  and  C_15
REMARK    8  A    between atoms: C_20  and  O_21
REMARK    9  A    between atoms: O_21  and  C_22
REMARK   10  A    between atoms: C_22  and  C_23
REMARK                            x       y       z     vdW  Elec       q    Type
REMARK                         _______ _______ _______ _____ _____    ______ ____
ROOT
ATOM      1  N   UNL     1      -1.419  10.211  18.400  0.00  0.00    +0.000 NA
ATOM      2  C   UNL     1      -0.660  10.840  19.236  0.00  0.00    +0.000 C 
ENDROOT
BRANCH   2   3
ATOM      3  C   UNL     1      -0.473  10.368  20.620  0.00  0.00    +0.000 A 
ATOM      4  C   UNL     1      -1.211  11.048  21.600  0.00  0.00    +0.000 A 
ATOM      5  C   UNL     1      -1.033  10.741  22.947  0.00  0.00    +0.000 A 
ATOM      6  C   UNL     1      -0.111   9.769  23.316  0.00  0.00    +0.000 A 
ATOM      7  C   UNL     1       0.604   9.073  22.340  0.00  0.00    +0.000 A 
ATOM      8  C   UNL     1       0.404   9.330  20.977  0.00  0.00    +0.000 A 
BRANCH   8   9
ATOM      9  O   UNL     1       1.002   8.592  19.980  0.00  0.00    +0.000 OA
BRANCH   9  10
ATOM     10  C   UNL     1       2.083   7.758  20.416  0.00  0.00    +0.000 C 
BRANCH  10  11
ATOM     11  C   UNL     1       2.067   6.374  19.807  0.00  0.00    +0.000 A 
ATOM     12  C   UNL     1       2.452   6.226  18.462  0.00  0.00    +0.000 A 
ATOM     13  C   UNL     1       2.574   4.960  17.890  0.00  0.00    +0.000 A 
ATOM     14  C   UNL     1       2.316   3.830  18.661  0.00  0.00    +0.000 A 
ATOM     15 BR   UNL     1       2.512   2.112  17.897  0.00  0.00    +0.000 Br
ATOM     16  C   UNL     1       1.933   3.957  19.995  0.00  0.00    +0.000 A 
ATOM     17  C   UNL     1       1.811   5.227  20.569  0.00  0.00    +0.000 A 
ENDBRANCH  10  11
ENDBRANCH   9  10
ENDBRANCH   8   9
ENDBRANCH   2   3
BRANCH   1  18
ATOM     18  N   UNL     1      -1.476  10.755  17.155  0.00  0.00    +0.000 N 
ATOM     19  H   UNL     1      -0.632  10.982  16.637  0.00  0.00    +0.000 HD
BRANCH  18  20
ATOM     20  C   UNL     1      -2.695  11.042  16.571  0.00  0.00    +0.000 C 
ATOM     21  S   UNL     1      -3.037  10.293  15.121  0.00  0.00    +0.000 S 
BRANCH  20  22
ATOM     22  N   UNL     1      -3.439  11.916  17.339  0.00  0.00    +0.000 N 
ATOM     23  H   UNL     1      -3.002  12.838  17.322  0.00  0.00    +0.000 HD
BRANCH  22  28
ATOM     24  C   UNL     1      -5.676  12.203  20.313  0.00  0.00    +0.000 A 
ATOM     25  C   UNL     1      -6.794  11.503  19.858  0.00  0.00    +0.000 A 
ATOM     26  C   UNL     1      -6.768  10.910  18.599  0.00  0.00    +0.000 A 
ATOM     27  C   UNL     1      -5.628  11.033  17.793  0.00  0.00    +0.000 A 
ATOM     28  C   UNL     1      -4.495  11.725  18.247  0.00  0.00    +0.000 A 
ATOM     29  C   UNL     1      -4.520  12.269  19.527  0.00  0.00    +0.000 A 
BRANCH  24  31
ATOM     30  O   UNL     1      -5.243  13.988  21.820  0.00  0.00    +0.000 OA
ATOM     31  C   UNL     1      -5.733  12.884  21.629  0.00  0.00    +0.000 C 
BRANCH  31  32
ATOM     32  O   UNL     1      -6.315  12.153  22.606  0.00  0.00    +0.000 OA
ATOM     33  H   UNL     1      -6.478  12.621  23.448  0.00  0.00    +0.000 HD
ENDBRANCH  31  32
ENDBRANCH  24  31
ENDBRANCH  22  28
ENDBRANCH  20  22
ENDBRANCH  18  20
ENDBRANCH   1  18
TORSDOF 10
ENDMDL
MODEL 6
REMARK VINA RESULT:      -8.2      1.255      1.742
REMARK  Name = 
REMARK  10 active torsions:
REMARK  status: ('A' for Active; 'I' for Inactive)
REMARK    1  A    between atoms: C_2  and  O_3
REMARK    2  A    between atoms: C_2  and  C_4
REMARK    3  A    between atoms: C_8  and  N_9
REMARK    4  A    between atoms: N_9  and  C_10
REMARK    5  A    between atoms: C_10  and  N_12
REMARK    6  A    between atoms: N_12  and  N_13
REMARK    7  A    between atoms: C_14  and  C_15
REMARK    8  A    between atoms: C_20  and  O_21
REMARK    9  A    between atoms: O_21  and  C_22
REMARK   10  A    between atoms: C_22  and  C_23
REMARK                            x       y       z     vdW  Elec       q    Type
REMARK                         _______ _______ _______ _____ _____    ______ ____
ROOT
ATOM      1  N   UNL     1       3.905   6.012  17.226  0.00  0.00    +0.000 NA
ATOM      2  C   UNL     1       3.929   4.788  17.638  0.00  0.00    +0.000 C 
ENDROOT
BRANCH   2   3
ATOM      3  C   UNL     1       2.882   4.246  18.523  0.00  0.00    +0.000 A 
ATOM      4  C   UNL     1       2.500   2.919  18.273  0.00  0.00    +0.000 A 
ATOM      5  C   UNL     1       1.453   2.347  18.992  0.00  0.00    +0.000 A 
ATOM      6  C   UNL     1       0.780   3.100  19.946  0.00  0.00    +0.000 A 
ATOM      7  C   UNL     1       1.178   4.411  20.214  0.00  0.00    +0.000 A 
ATOM      8  C   UNL     1       2.261   4.991  19.540  0.00  0.00    +0.000 A 
BRANCH   8   9
ATOM      9  O   UNL     1       2.757   6.236  19.851  0.00  0.00    +0.000 OA
BRANCH   9  10
ATOM     10  C   UNL     1       1.953   6.993  20.765  0.00  0.00    +0.000 C 
BRANCH  10  11
ATOM     11  C   UNL     1       1.369   8.251  20.162  0.00  0.00    +0.000 A 
ATOM     12  C   UNL     1       0.477   9.015  20.937  0.00  0.00    +0.000 A 
ATOM     13  C   UNL     1       0.006  10.246  20.477  0.00  0.00    +0.000 A 
ATOM     14  C   UNL     1       0.430  10.724  19.240  0.00  0.00    +0.000 A 
ATOM     15 BR   UNL     1      -0.180  12.405  18.630  0.00  0.00    +0.000 Br
ATOM     16  C   UNL     1       1.313   9.979  18.459  0.00  0.00    +0.000 A 
ATOM     17  C   UNL     1       1.784   8.746  18.921  0.00  0.00    +0.000 A 
ENDBRANCH  10  11
ENDBRANCH   9  10
ENDBRANCH   8   9
ENDBRANCH   2   3
BRANCH   1  18
ATOM     18  N   UNL     1       4.927   6.361  16.399  0.00  0.00    +0.000 N 
ATOM     19  H   UNL     1       4.770   6.929  15.573  0.00  0.00    +0.000 HD
BRANCH  18  20
ATOM     20  C   UNL     1       6.213   5.920  16.651  0.00  0.00    +0.000 C 
ATOM     21  S   UNL     1       7.123   6.810  17.727  0.00  0.00    +0.000 S 
BRANCH  20  22
ATOM     22  N   UNL     1       6.508   4.768  15.949  0.00  0.00    +0.000 N 
ATOM     23  H   UNL     1       6.740   4.021  16.606  0.00  0.00    +0.000 HD
BRANCH  22  28
ATOM     24  C   UNL     1       6.164   3.504  12.455  0.00  0.00    +0.000 A 
ATOM     25  C   UNL     1       7.097   4.310  11.800  0.00  0.00    +0.000 A 
ATOM     26  C   UNL     1       7.853   5.219  12.534  0.00  0.00    +0.000 A 
ATOM     27  C   UNL     1       7.663   5.329  13.918  0.00  0.00    +0.000 A 
ATOM     28  C   UNL     1       6.736   4.515  14.585  0.00  0.00    +0.000 A 
ATOM     29  C   UNL     1       6.023   3.577  13.845  0.00  0.00    +0.000 A 
BRANCH  24  31
ATOM     30  O   UNL     1       4.200   2.886  11.267  0.00  0.00    +0.000 OA
ATOM     31  C   UNL     1       5.318   2.581  11.659  0.00  0.00    +0.000 C 
BRANCH  31  32
ATOM     32  O   UNL     1       5.864   1.360  11.463  0.00  0.00    +0.000 OA
ATOM     33  H   UNL     1       5.255   0.602  11.553  0.00  0.00    +0.000 HD
ENDBRANCH  31  32
ENDBRANCH  24  31
ENDBRANCH  22  28
ENDBRANCH  20  22
ENDBRANCH  18  20
ENDBRANCH   1  18
TORSDOF 10
ENDMDL
MODEL 7
REMARK VINA RESULT:      -8.2      0.904      1.083
REMARK  Name = 
REMARK  10 active torsions:
REMARK  status: ('A' for Active; 'I' for Inactive)
REMARK    1  A    between atoms: C_2  and  O_3
REMARK    2  A    between atoms: C_2  and  C_4
REMARK    3  A    between atoms: C_8  and  N_9
REMARK    4  A    between atoms: N_9  and  C_10
REMARK    5  A    between atoms: C_10  and  N_12
REMARK    6  A    between atoms: N_12  and  N_13
REMARK    7  A    between atoms: C_14  and  C_15
REMARK    8  A    between atoms: C_20  and  O_21
REMARK    9  A    between atoms: O_21  and  C_22
REMARK   10  A    between atoms: C_22  and  C_23
REMARK                            x       y       z     vdW  Elec       q    Type
REMARK                         _______ _______ _______ _____ _____    ______ ____
ROOT
ATOM      1  N   UNL     1       5.639   4.232  18.855  0.00  0.00    +0.000 NA
ATOM      2  C   UNL     1       4.514   3.890  18.318  0.00  0.00    +0.000 C 
ENDROOT
BRANCH   2   3
ATOM      3  C   UNL     1       3.280   3.768  19.115  0.00  0.00    +0.000 A 
ATOM      4  C   UNL     1       2.789   2.465  19.282  0.00  0.00    +0.000 A 
ATOM      5  C   UNL     1       1.578   2.253  19.938  0.00  0.00    +0.000 A 
ATOM      6  C   UNL     1       0.852   3.339  20.412  0.00  0.00    +0.000 A 
ATOM      7  C   UNL     1       1.354   4.634  20.270  0.00  0.00    +0.000 A 
ATOM      8  C   UNL     1       2.594   4.867  19.659  0.00  0.00    +0.000 A 
BRANCH   8   9
ATOM      9  O   UNL     1       3.177   6.112  19.599  0.00  0.00    +0.000 OA
BRANCH   9  10
ATOM     10  C   UNL     1       2.686   6.957  18.550  0.00  0.00    +0.000 C 
BRANCH  10  11
ATOM     11  C   UNL     1       1.929   8.167  19.048  0.00  0.00    +0.000 A 
ATOM     12  C   UNL     1       1.468   9.106  18.106  0.00  0.00    +0.000 A 
ATOM     13  C   UNL     1       0.661  10.173  18.500  0.00  0.00    +0.000 A 
ATOM     14  C   UNL     1       0.304  10.307  19.839  0.00  0.00    +0.000 A 
ATOM     15 BR   UNL     1      -0.816  11.735  20.369  0.00  0.00    +0.000 Br
ATOM     16  C   UNL     1       0.753   9.388  20.785  0.00  0.00    +0.000 A 
ATOM     17  C   UNL     1       1.563   8.318  20.391  0.00  0.00    +0.000 A 
ENDBRANCH  10  11
ENDBRANCH   9  10
ENDBRANCH   8   9
ENDBRANCH   2   3
BRANCH   1  18
ATOM     18  N   UNL     1       6.684   4.321  17.990  0.00  0.00    +0.000 N 
ATOM     19  H   UNL     1       7.550   3.816  18.151  0.00  0.00    +0.000 HD
BRANCH  18  20
ATOM     20  C   UNL     1       6.603   5.135  16.875  0.00  0.00    +0.000 C 
ATOM     21  S   UNL     1       5.513   6.394  16.932  0.00  0.00    +0.000 S 
BRANCH  20  22
ATOM     22  N   UNL     1       7.491   4.746  15.890  0.00  0.00    +0.000 N 
ATOM     23  H   UNL     1       8.434   4.710  16.280  0.00  0.00    +0.000 HD
BRANCH  22  28
ATOM     24  C   UNL     1       6.292   3.736  12.503  0.00  0.00    +0.000 A 
ATOM     25  C   UNL     1       7.006   4.631  11.704  0.00  0.00    +0.000 A 
ATOM     26  C   UNL     1       7.903   5.515  12.297  0.00  0.00    +0.000 A 
ATOM     27  C   UNL     1       8.071   5.512  13.688  0.00  0.00    +0.000 A 
ATOM     28  C   UNL     1       7.367   4.608  14.497  0.00  0.00    +0.000 A 
ATOM     29  C   UNL     1       6.512   3.698  13.885  0.00  0.00    +0.000 A 
BRANCH  24  31
ATOM     30  O   UNL     1       4.151   3.199  11.623  0.00  0.00    +0.000 OA
ATOM     31  C   UNL     1       5.293   2.840  11.873  0.00  0.00    +0.000 C 
BRANCH  31  32
ATOM     32  O   UNL     1       5.736   1.581  11.660  0.00  0.00    +0.000 OA
ATOM     33  H   UNL     1       5.660   1.252  10.743  0.00  0.00    +0.000 HD
ENDBRANCH  31  32
ENDBRANCH  24  31
ENDBRANCH  22  28
ENDBRANCH  20  22
ENDBRANCH  18  20
ENDBRANCH   1  18
TORSDOF 10
ENDMDL
MODEL 8
REMARK VINA RESULT:      -8.1      2.927      4.686
REMARK  Name = 
REMARK  10 active torsions:
REMARK  status: ('A' for Active; 'I' for Inactive)
REMARK    1  A    between atoms: C_2  and  O_3
REMARK    2  A    between atoms: C_2  and  C_4
REMARK    3  A    between atoms: C_8  and  N_9
REMARK    4  A    between atoms: N_9  and  C_10
REMARK    5  A    between atoms: C_10  and  N_12
REMARK    6  A    between atoms: N_12  and  N_13
REMARK    7  A    between atoms: C_14  and  C_15
REMARK    8  A    between atoms: C_20  and  O_21
REMARK    9  A    between atoms: O_21  and  C_22
REMARK   10  A    between atoms: C_22  and  C_23
REMARK                            x       y       z     vdW  Elec       q    Type
REMARK                         _______ _______ _______ _____ _____    ______ ____
ROOT
ATOM      1  N   UNL     1       4.455   4.151  17.022  0.00  0.00    +0.000 NA
ATOM      2  C   UNL     1       3.453   3.422  17.390  0.00  0.00    +0.000 C 
ENDROOT
BRANCH   2   3
ATOM      3  C   UNL     1       2.841   3.561  18.723  0.00  0.00    +0.000 A 
ATOM      4  C   UNL     1       3.101   2.517  19.624  0.00  0.00    +0.000 A 
ATOM      5  C   UNL     1       2.491   2.507  20.876  0.00  0.00    +0.000 A 
ATOM      6  C   UNL     1       1.615   3.528  21.224  0.00  0.00    +0.000 A 
ATOM      7  C   UNL     1       1.377   4.581  20.339  0.00  0.00    +0.000 A 
ATOM      8  C   UNL     1       2.018   4.638  19.094  0.00  0.00    +0.000 A 
BRANCH   8   9
ATOM      9  O   UNL     1       1.902   5.711  18.239  0.00  0.00    +0.000 OA
BRANCH   9  10
ATOM     10  C   UNL     1       2.720   6.839  18.576  0.00  0.00    +0.000 C 
BRANCH  10  11
ATOM     11  C   UNL     1       1.930   8.072  18.952  0.00  0.00    +0.000 A 
ATOM     12  C   UNL     1       1.575   8.257  20.302  0.00  0.00    +0.000 A 
ATOM     13  C   UNL     1       0.956   9.435  20.721  0.00  0.00    +0.000 A 
ATOM     14  C   UNL     1       0.692  10.440  19.794  0.00  0.00    +0.000 A 
ATOM     15 BR   UNL     1      -0.117  12.049  20.366  0.00  0.00    +0.000 Br
ATOM     16  C   UNL     1       1.037  10.273  18.454  0.00  0.00    +0.000 A 
ATOM     17  C   UNL     1       1.657   9.092  18.033  0.00  0.00    +0.000 A 
ENDBRANCH  10  11
ENDBRANCH   9  10
ENDBRANCH   8   9
ENDBRANCH   2   3
BRANCH   1  18
ATOM     18  N   UNL     1       4.898   3.924  15.756  0.00  0.00    +0.000 N 
ATOM     19  H   UNL     1       4.566   3.132  15.213  0.00  0.00    +0.000 HD
BRANCH  18  20
ATOM     20  C   UNL     1       5.842   4.756  15.184  0.00  0.00    +0.000 C 
ATOM     21  S   UNL     1       6.575   4.223  13.785  0.00  0.00    +0.000 S 
BRANCH  20  22
ATOM     22  N   UNL     1       5.993   5.928  15.899  0.00  0.00    +0.000 N 
ATOM     23  H   UNL     1       5.432   6.663  15.465  0.00  0.00    +0.000 HD
BRANCH  22  28
ATOM     24  C   UNL     1       8.096   7.981  18.198  0.00  0.00    +0.000 A 
ATOM     25  C   UNL     1       8.430   7.025  19.159  0.00  0.00    +0.000 A 
ATOM     26  C   UNL     1       7.994   5.713  19.001  0.00  0.00    +0.000 A 
ATOM     27  C   UNL     1       7.212   5.365  17.891  0.00  0.00    +0.000 A 
ATOM     28  C   UNL     1       6.883   6.317  16.915  0.00  0.00    +0.000 A 
ATOM     29  C   UNL     1       7.368   7.612  17.062  0.00  0.00    +0.000 A 
BRANCH  24  31
ATOM     30  O   UNL     1       8.171  10.293  17.650  0.00  0.00    +0.000 OA
ATOM     31  C   UNL     1       8.511   9.390  18.403  0.00  0.00    +0.000 C 
BRANCH  31  32
ATOM     32  O   UNL     1       9.343   9.575  19.451  0.00  0.00    +0.000 OA
ATOM     33  H   UNL     1       8.913   9.730  20.315  0.00  0.00    +0.000 HD
ENDBRANCH  31  32
ENDBRANCH  24  31
ENDBRANCH  22  28
ENDBRANCH  20  22
ENDBRANCH  18  20
ENDBRANCH   1  18
TORSDOF 10
ENDMDL
MODEL 9
REMARK VINA RESULT:      -8.1      4.341      8.254
REMARK  Name = 
REMARK  10 active torsions:
REMARK  status: ('A' for Active; 'I' for Inactive)
REMARK    1  A    between atoms: C_2  and  O_3
REMARK    2  A    between atoms: C_2  and  C_4
REMARK    3  A    between atoms: C_8  and  N_9
REMARK    4  A    between atoms: N_9  and  C_10
REMARK    5  A    between atoms: C_10  and  N_12
REMARK    6  A    between atoms: N_12  and  N_13
REMARK    7  A    between atoms: C_14  and  C_15
REMARK    8  A    between atoms: C_20  and  O_21
REMARK    9  A    between atoms: O_21  and  C_22
REMARK   10  A    between atoms: C_22  and  C_23
REMARK                            x       y       z     vdW  Elec       q    Type
REMARK                         _______ _______ _______ _____ _____    ______ ____
ROOT
ATOM      1  N   UNL     1       1.859   7.089  20.133  0.00  0.00    +0.000 NA
ATOM      2  C   UNL     1       2.202   6.121  19.348  0.00  0.00    +0.000 C 
ENDROOT
BRANCH   2   3
ATOM      3  C   UNL     1       2.290   4.729  19.825  0.00  0.00    +0.000 A 
ATOM      4  C   UNL     1       2.010   4.533  21.186  0.00  0.00    +0.000 A 
ATOM      5  C   UNL     1       2.158   3.269  21.753  0.00  0.00    +0.000 A 
ATOM      6  C   UNL     1       2.597   2.209  20.970  0.00  0.00    +0.000 A 
ATOM      7  C   UNL     1       2.849   2.398  19.610  0.00  0.00    +0.000 A 
ATOM      8  C   UNL     1       2.658   3.648  19.006  0.00  0.00    +0.000 A 
BRANCH   8   9
ATOM      9  O   UNL     1       2.784   3.853  17.651  0.00  0.00    +0.000 OA
BRANCH   9  10
ATOM     10  C   UNL     1       4.112   3.680  17.138  0.00  0.00    +0.000 C 
BRANCH  10  11
ATOM     11  C   UNL     1       5.015   4.869  17.374  0.00  0.00    +0.000 A 
ATOM     12  C   UNL     1       6.201   4.677  18.107  0.00  0.00    +0.000 A 
ATOM     13  C   UNL     1       7.127   5.711  18.247  0.00  0.00    +0.000 A 
ATOM     14  C   UNL     1       6.877   6.943  17.650  0.00  0.00    +0.000 A 
ATOM     15 BR   UNL     1       8.146   8.335  17.812  0.00  0.00    +0.000 Br
ATOM     16  C   UNL     1       5.707   7.151  16.921  0.00  0.00    +0.000 A 
ATOM     17  C   UNL     1       4.778   6.115  16.781  0.00  0.00    +0.000 A 
ENDBRANCH  10  11
ENDBRANCH   9  10
ENDBRANCH   8   9
ENDBRANCH   2   3
BRANCH   1  18
ATOM     18  N   UNL     1       1.803   8.314  19.546  0.00  0.00    +0.000 N 
ATOM     19  H   UNL     1       2.289   8.507  18.676  0.00  0.00    +0.000 HD
BRANCH  18  20
ATOM     20  C   UNL     1       1.099   9.344  20.141  0.00  0.00    +0.000 C 
ATOM     21  S   UNL     1       0.894   9.268  21.793  0.00  0.00    +0.000 S 
BRANCH  20  22
ATOM     22  N   UNL     1       0.699  10.292  19.219  0.00  0.00    +0.000 N 
ATOM     23  H   UNL     1       1.517  10.797  18.876  0.00  0.00    +0.000 HD
BRANCH  22  28
ATOM     24  C   UNL     1      -2.564  10.805  17.483  0.00  0.00    +0.000 A 
ATOM     25  C   UNL     1      -3.203  11.654  18.388  0.00  0.00    +0.000 A 
ATOM     26  C   UNL     1      -2.525  12.078  19.528  0.00  0.00    +0.000 A 
ATOM     27  C   UNL     1      -1.216  11.637  19.765  0.00  0.00    +0.000 A 
ATOM     28  C   UNL     1      -0.563  10.794  18.855  0.00  0.00    +0.000 A 
ATOM     29  C   UNL     1      -1.237  10.420  17.697  0.00  0.00    +0.000 A 
BRANCH  24  31
ATOM     30  O   UNL     1      -2.825   9.532  15.493  0.00  0.00    +0.000 OA
ATOM     31  C   UNL     1      -3.313  10.308  16.303  0.00  0.00    +0.000 C 
BRANCH  31  32
ATOM     32  O   UNL     1      -4.550  10.835  16.170  0.00  0.00    +0.000 OA
ATOM     33  H   UNL     1      -4.587  11.793  15.979  0.00  0.00    +0.000 HD
ENDBRANCH  31  32
ENDBRANCH  24  31
ENDBRANCH  22  28
ENDBRANCH  20  22
ENDBRANCH  18  20
ENDBRANCH   1  18
TORSDOF 10
ENDMDL
