MODEL 1
REMARK VINA RESULT:      -7.0      0.000      0.000
REMARK  Name = 
REMARK  4 active torsions:
REMARK  status: ('A' for Active; 'I' for Inactive)
REMARK    1  A    between atoms: N_3  and  C_4
REMARK    2  A    between atoms: C_16  and  C_17
REMARK    3  A    between atoms: C_17  and  O_18
REMARK    4  A    between atoms: O_18  and  C_19
REMARK                            x       y       z     vdW  Elec       q    Type
REMARK                         _______ _______ _______ _____ _____    ______ ____
ROOT
ATOM      1  O   UNL     1      -2.876  10.530  17.391  0.00  0.00    +0.000 OA
ATOM      2  C   UNL     1      -3.064  11.442  18.189  0.00  0.00    +0.000 C 
ATOM      3  N   UNL     1      -4.305  11.992  18.407  0.00  0.00    +0.000 N 
ATOM      4  N   UNL     1      -2.050  12.023  18.932  0.00  0.00    +0.000 N 
ATOM      5  C   UNL     1      -0.650  11.614  18.657  0.00  0.00    +0.000 C 
ATOM      6  C   UNL     1      -0.125  10.593  19.695  0.00  0.00    +0.000 C 
ATOM      7  C   UNL     1      -0.589  11.057  21.020  0.00  0.00    +0.000 A 
ATOM      8  O   UNL     1      -0.119  10.519  22.166  0.00  0.00    +0.000 OA
ATOM      9  N   UNL     1      -0.809  11.094  23.233  0.00  0.00    +0.000 NA
ATOM     10  C   UNL     1      -1.685  11.959  22.681  0.00  0.00    +0.000 A 
ATOM     11  C   UNL     1      -1.559  11.977  21.277  0.00  0.00    +0.000 A 
ATOM     12  C   UNL     1      -2.282  12.720  20.216  0.00  0.00    +0.000 C 
ATOM     13  H   UNL     1      -4.278  12.959  18.686  0.00  0.00    +0.000 HD
ENDROOT
BRANCH   3  14
ATOM     14  C   UNL     1      -5.488  11.607  17.635  0.00  0.00    +0.000 C 
ATOM     15  C   UNL     1      -6.471  10.837  18.528  0.00  0.00    +0.000 C 
ATOM     16  C   UNL     1      -7.131  11.716  19.595  0.00  0.00    +0.000 C 
ATOM     17  C   UNL     1      -7.714  13.013  19.035  0.00  0.00    +0.000 C 
ATOM     18  C   UNL     1      -6.746  13.752  18.115  0.00  0.00    +0.000 C 
ATOM     19  C   UNL     1      -6.198  12.828  17.030  0.00  0.00    +0.000 C 
ENDBRANCH   3  14
BRANCH  10  20
ATOM     20  C   UNL     1      -2.668  12.695  23.531  0.00  0.00    +0.000 C 
BRANCH  20  21
ATOM     21  O   UNL     1      -3.991  12.165  23.392  0.00  0.00    +0.000 OA
BRANCH  21  22
ATOM     22  C   UNL     1      -5.018  13.046  23.574  0.00  0.00    +0.000 A 
ATOM     23  C   UNL     1      -6.345  12.727  23.850  0.00  0.00    +0.000 A 
ATOM     24  C   UNL     1      -7.286  13.748  24.000  0.00  0.00    +0.000 A 
ATOM     25  C   UNL     1      -6.865  15.060  23.865  0.00  0.00    +0.000 A 
ATOM     26  N   UNL     1      -5.593  15.410  23.595  0.00  0.00    +0.000 NA
ATOM     27  C   UNL     1      -4.701  14.397  23.460  0.00  0.00    +0.000 A 
ENDBRANCH  21  22
ENDBRANCH  20  21
ENDBRANCH  10  20
TORSDOF 4
ENDMDL
MODEL 2
REMARK VINA RESULT:      -6.7      1.766      5.887
REMARK  Name = 
REMARK  4 active torsions:
REMARK  status: ('A' for Active; 'I' for Inactive)
REMARK    1  A    between atoms: N_3  and  C_4
REMARK    2  A    between atoms: C_16  and  C_17
REMARK    3  A    between atoms: C_17  and  O_18
REMARK    4  A    between atoms: O_18  and  C_19
REMARK                            x       y       z     vdW  Elec       q    Type
REMARK                         _______ _______ _______ _____ _____    ______ ____
ROOT
ATOM      1  O   UNL     1      -6.688  11.726  21.330  0.00  0.00    +0.000 OA
ATOM      2  C   UNL     1      -5.651  12.324  21.061  0.00  0.00    +0.000 C 
ATOM      3  N   UNL     1      -4.852  12.891  22.025  0.00  0.00    +0.000 N 
ATOM      4  N   UNL     1      -5.193  12.508  19.767  0.00  0.00    +0.000 N 
ATOM      5  C   UNL     1      -6.062  12.076  18.643  0.00  0.00    +0.000 C 
ATOM      6  C   UNL     1      -5.622  10.713  18.055  0.00  0.00    +0.000 C 
ATOM      7  C   UNL     1      -4.146  10.741  17.976  0.00  0.00    +0.000 A 
ATOM      8  O   UNL     1      -3.452   9.798  17.302  0.00  0.00    +0.000 OA
ATOM      9  N   UNL     1      -2.091  10.040  17.489  0.00  0.00    +0.000 NA
ATOM     10  C   UNL     1      -2.018  11.127  18.284  0.00  0.00    +0.000 A 
ATOM     11  C   UNL     1      -3.304  11.612  18.597  0.00  0.00    +0.000 A 
ATOM     12  C   UNL     1      -3.772  12.744  19.435  0.00  0.00    +0.000 C 
ATOM     13  H   UNL     1      -4.338  13.695  21.706  0.00  0.00    +0.000 HD
ENDROOT
BRANCH   3  14
ATOM     14  C   UNL     1      -5.218  12.917  23.442  0.00  0.00    +0.000 C 
ATOM     15  C   UNL     1      -3.965  12.746  24.312  0.00  0.00    +0.000 C 
ATOM     16  C   UNL     1      -3.027  13.957  24.263  0.00  0.00    +0.000 C 
ATOM     17  C   UNL     1      -3.745  15.287  24.493  0.00  0.00    +0.000 C 
ATOM     18  C   UNL     1      -5.012  15.433  23.655  0.00  0.00    +0.000 C 
ATOM     19  C   UNL     1      -5.930  14.223  23.824  0.00  0.00    +0.000 C 
ENDBRANCH   3  14
BRANCH  10  20
ATOM     20  C   UNL     1      -0.698  11.625  18.775  0.00  0.00    +0.000 C 
BRANCH  20  21
ATOM     21  O   UNL     1       0.105  10.566  19.307  0.00  0.00    +0.000 OA
BRANCH  21  22
ATOM     22  C   UNL     1      -0.081  10.271  20.627  0.00  0.00    +0.000 A 
ATOM     23  C   UNL     1      -0.160   8.999  21.189  0.00  0.00    +0.000 A 
ATOM     24  C   UNL     1      -0.364   8.861  22.563  0.00  0.00    +0.000 A 
ATOM     25  C   UNL     1      -0.487  10.006  23.332  0.00  0.00    +0.000 A 
ATOM     26  N   UNL     1      -0.419  11.253  22.827  0.00  0.00    +0.000 NA
ATOM     27  C   UNL     1      -0.215  11.355  21.490  0.00  0.00    +0.000 A 
ENDBRANCH  21  22
ENDBRANCH  20  21
ENDBRANCH  10  20
TORSDOF 4
ENDMDL
MODEL 3
REMARK VINA RESULT:      -6.7      1.189      1.399
REMARK  Name = 
REMARK  4 active torsions:
REMARK  status: ('A' for Active; 'I' for Inactive)
REMARK    1  A    between atoms: N_3  and  C_4
REMARK    2  A    between atoms: C_16  and  C_17
REMARK    3  A    between atoms: C_17  and  O_18
REMARK    4  A    between atoms: O_18  and  C_19
REMARK                            x       y       z     vdW  Elec       q    Type
REMARK                         _______ _______ _______ _____ _____    ______ ____
ROOT
ATOM      1  O   UNL     1      -3.750  10.220  17.870  0.00  0.00    +0.000 OA
ATOM      2  C   UNL     1      -3.548  11.356  18.287  0.00  0.00    +0.000 C 
ATOM      3  N   UNL     1      -4.544  12.299  18.380  0.00  0.00    +0.000 N 
ATOM      4  N   UNL     1      -2.301  11.809  18.685  0.00  0.00    +0.000 N 
ATOM      5  C   UNL     1      -1.128  10.923  18.476  0.00  0.00    +0.000 C 
ATOM      6  C   UNL     1      -0.708  10.194  19.775  0.00  0.00    +0.000 C 
ATOM      7  C   UNL     1      -0.788  11.188  20.866  0.00  0.00    +0.000 A 
ATOM      8  O   UNL     1      -0.276  10.942  22.091  0.00  0.00    +0.000 OA
ATOM      9  N   UNL     1      -0.590  12.019  22.920  0.00  0.00    +0.000 NA
ATOM     10  C   UNL     1      -1.296  12.878  22.155  0.00  0.00    +0.000 A 
ATOM     11  C   UNL     1      -1.424  12.391  20.838  0.00  0.00    +0.000 A 
ATOM     12  C   UNL     1      -2.109  12.927  19.635  0.00  0.00    +0.000 C 
ATOM     13  H   UNL     1      -4.217  13.246  18.281  0.00  0.00    +0.000 HD
ENDROOT
BRANCH   3  14
ATOM     14  C   UNL     1      -5.905  12.063  17.895  0.00  0.00    +0.000 C 
ATOM     15  C   UNL     1      -6.742  11.387  18.990  0.00  0.00    +0.000 C 
ATOM     16  C   UNL     1      -7.044  12.311  20.175  0.00  0.00    +0.000 C 
ATOM     17  C   UNL     1      -7.589  13.675  19.754  0.00  0.00    +0.000 C 
ATOM     18  C   UNL     1      -6.775  14.323  18.638  0.00  0.00    +0.000 C 
ATOM     19  C   UNL     1      -6.591  13.367  17.461  0.00  0.00    +0.000 C 
ENDBRANCH   3  14
BRANCH  10  20
ATOM     20  C   UNL     1      -1.885  14.116  22.745  0.00  0.00    +0.000 C 
BRANCH  20  21
ATOM     21  O   UNL     1      -2.529  13.854  23.996  0.00  0.00    +0.000 OA
BRANCH  21  22
ATOM     22  C   UNL     1      -3.867  13.586  23.943  0.00  0.00    +0.000 A 
ATOM     23  C   UNL     1      -4.850  14.383  23.361  0.00  0.00    +0.000 A 
ATOM     24  C   UNL     1      -6.185  13.974  23.398  0.00  0.00    +0.000 A 
ATOM     25  C   UNL     1      -6.493  12.778  24.024  0.00  0.00    +0.000 A 
ATOM     26  N   UNL     1      -5.573  11.982  24.602  0.00  0.00    +0.000 NA
ATOM     27  C   UNL     1      -4.285  12.403  24.545  0.00  0.00    +0.000 A 
ENDBRANCH  21  22
ENDBRANCH  20  21
ENDBRANCH  10  20
TORSDOF 4
ENDMDL
MODEL 4
REMARK VINA RESULT:      -6.6      2.249      6.771
REMARK  Name = 
REMARK  4 active torsions:
REMARK  status: ('A' for Active; 'I' for Inactive)
REMARK    1  A    between atoms: N_3  and  C_4
REMARK    2  A    between atoms: C_16  and  C_17
REMARK    3  A    between atoms: C_17  and  O_18
REMARK    4  A    between atoms: O_18  and  C_19
REMARK                            x       y       z     vdW  Elec       q    Type
REMARK                         _______ _______ _______ _____ _____    ______ ____
ROOT
ATOM      1  O   UNL     1      -0.531  12.700  23.461  0.00  0.00    +0.000 OA
ATOM      2  C   UNL     1      -1.012  13.095  22.404  0.00  0.00    +0.000 C 
ATOM      3  N   UNL     1      -0.368  12.951  21.198  0.00  0.00    +0.000 N 
ATOM      4  N   UNL     1      -2.234  13.742  22.319  0.00  0.00    +0.000 N 
ATOM      5  C   UNL     1      -2.937  14.091  23.579  0.00  0.00    +0.000 C 
ATOM      6  C   UNL     1      -4.071  13.091  23.911  0.00  0.00    +0.000 C 
ATOM      7  C   UNL     1      -4.774  12.808  22.642  0.00  0.00    +0.000 A 
ATOM      8  O   UNL     1      -5.952  12.149  22.614  0.00  0.00    +0.000 OA
ATOM      9  N   UNL     1      -6.312  11.954  21.280  0.00  0.00    +0.000 NA
ATOM     10  C   UNL     1      -5.320  12.503  20.548  0.00  0.00    +0.000 A 
ATOM     11  C   UNL     1      -4.335  13.073  21.381  0.00  0.00    +0.000 A 
ATOM     12  C   UNL     1      -3.056  13.766  21.089  0.00  0.00    +0.000 C 
ATOM     13  H   UNL     1      -0.595  13.668  20.528  0.00  0.00    +0.000 HD
ENDROOT
BRANCH   3  14
ATOM     14  C   UNL     1       0.985  12.407  21.083  0.00  0.00    +0.000 C 
ATOM     15  C   UNL     1       0.936  10.872  21.072  0.00  0.00    +0.000 C 
ATOM     16  C   UNL     1       0.316  10.299  19.794  0.00  0.00    +0.000 C 
ATOM     17  C   UNL     1       0.907  10.893  18.516  0.00  0.00    +0.000 C 
ATOM     18  C   UNL     1       0.991  12.416  18.550  0.00  0.00    +0.000 C 
ATOM     19  C   UNL     1       1.696  12.903  19.815  0.00  0.00    +0.000 C 
ENDBRANCH   3  14
BRANCH  10  20
ATOM     20  C   UNL     1      -5.323  12.396  19.059  0.00  0.00    +0.000 C 
BRANCH  20  21
ATOM     21  O   UNL     1      -5.258  11.034  18.623  0.00  0.00    +0.000 OA
BRANCH  21  22
ATOM     22  C   UNL     1      -4.311  10.744  17.684  0.00  0.00    +0.000 A 
ATOM     23  C   UNL     1      -3.154   9.992  17.878  0.00  0.00    +0.000 A 
ATOM     24  C   UNL     1      -2.272   9.791  16.815  0.00  0.00    +0.000 A 
ATOM     25  C   UNL     1      -2.577  10.355  15.587  0.00  0.00    +0.000 A 
ATOM     26  N   UNL     1      -3.683  11.090  15.359  0.00  0.00    +0.000 NA
ATOM     27  C   UNL     1      -4.522  11.264  16.411  0.00  0.00    +0.000 A 
ENDBRANCH  21  22
ENDBRANCH  20  21
ENDBRANCH  10  20
TORSDOF 4
ENDMDL
MODEL 5
REMARK VINA RESULT:      -6.4      2.359      7.058
REMARK  Name = 
REMARK  4 active torsions:
REMARK  status: ('A' for Active; 'I' for Inactive)
REMARK    1  A    between atoms: N_3  and  C_4
REMARK    2  A    between atoms: C_16  and  C_17
REMARK    3  A    between atoms: C_17  and  O_18
REMARK    4  A    between atoms: O_18  and  C_19
REMARK                            x       y       z     vdW  Elec       q    Type
REMARK                         _______ _______ _______ _____ _____    ______ ____
ROOT
ATOM      1  O   UNL     1      -6.791  12.288  21.011  0.00  0.00    +0.000 OA
ATOM      2  C   UNL     1      -5.623  12.650  20.923  0.00  0.00    +0.000 C 
ATOM      3  N   UNL     1      -4.866  12.986  22.020  0.00  0.00    +0.000 N 
ATOM      4  N   UNL     1      -4.956  12.779  19.715  0.00  0.00    +0.000 N 
ATOM      5  C   UNL     1      -5.727  12.596  18.460  0.00  0.00    +0.000 C 
ATOM      6  C   UNL     1      -5.512  11.193  17.841  0.00  0.00    +0.000 C 
ATOM      7  C   UNL     1      -4.068  10.895  17.957  0.00  0.00    +0.000 A 
ATOM      8  O   UNL     1      -3.505   9.848  17.315  0.00  0.00    +0.000 OA
ATOM      9  N   UNL     1      -2.164   9.774  17.694  0.00  0.00    +0.000 NA
ATOM     10  C   UNL     1      -1.973  10.785  18.567  0.00  0.00    +0.000 A 
ATOM     11  C   UNL     1      -3.157  11.531  18.743  0.00  0.00    +0.000 A 
ATOM     12  C   UNL     1      -3.484  12.705  19.590  0.00  0.00    +0.000 C 
ATOM     13  H   UNL     1      -4.151  13.667  21.828  0.00  0.00    +0.000 HD
ENDROOT
BRANCH   3  14
ATOM     14  C   UNL     1      -5.417  13.037  23.375  0.00  0.00    +0.000 C 
ATOM     15  C   UNL     1      -4.308  12.773  24.404  0.00  0.00    +0.000 C 
ATOM     16  C   UNL     1      -3.286  13.911  24.494  0.00  0.00    +0.000 C 
ATOM     17  C   UNL     1      -3.929  15.290  24.641  0.00  0.00    +0.000 C 
ATOM     18  C   UNL     1      -5.058  15.530  23.643  0.00  0.00    +0.000 C 
ATOM     19  C   UNL     1      -6.076  14.391  23.674  0.00  0.00    +0.000 C 
ENDBRANCH   3  14
BRANCH  10  20
ATOM     20  C   UNL     1      -0.661  10.956  19.259  0.00  0.00    +0.000 C 
BRANCH  20  21
ATOM     21  O   UNL     1       0.438  10.626  18.404  0.00  0.00    +0.000 OA
BRANCH  21  22
ATOM     22  C   UNL     1       1.122   9.484  18.711  0.00  0.00    +0.000 A 
ATOM     23  C   UNL     1       1.852   8.692  17.829  0.00  0.00    +0.000 A 
ATOM     24  C   UNL     1       2.491   7.542  18.296  0.00  0.00    +0.000 A 
ATOM     25  C   UNL     1       2.373   7.219  19.638  0.00  0.00    +0.000 A 
ATOM     26  N   UNL     1       1.674   7.956  20.522  0.00  0.00    +0.000 NA
ATOM     27  C   UNL     1       1.069   9.070  20.039  0.00  0.00    +0.000 A 
ENDBRANCH  21  22
ENDBRANCH  20  21
ENDBRANCH  10  20
TORSDOF 4
ENDMDL
MODEL 6
REMARK VINA RESULT:      -6.4      1.506      1.938
REMARK  Name = 
REMARK  4 active torsions:
REMARK  status: ('A' for Active; 'I' for Inactive)
REMARK    1  A    between atoms: N_3  and  C_4
REMARK    2  A    between atoms: C_16  and  C_17
REMARK    3  A    between atoms: C_17  and  O_18
REMARK    4  A    between atoms: O_18  and  C_19
REMARK                            x       y       z     vdW  Elec       q    Type
REMARK                         _______ _______ _______ _____ _____    ______ ____
ROOT
ATOM      1  O   UNL     1      -4.328  10.627  17.141  0.00  0.00    +0.000 OA
ATOM      2  C   UNL     1      -4.078  11.281  18.148  0.00  0.00    +0.000 C 
ATOM      3  N   UNL     1      -5.046  11.643  19.055  0.00  0.00    +0.000 N 
ATOM      4  N   UNL     1      -2.809  11.740  18.462  0.00  0.00    +0.000 N 
ATOM      5  C   UNL     1      -1.722  11.542  17.470  0.00  0.00    +0.000 C 
ATOM      6  C   UNL     1      -0.816  10.340  17.828  0.00  0.00    +0.000 C 
ATOM      7  C   UNL     1      -0.582  10.403  19.287  0.00  0.00    +0.000 A 
ATOM      8  O   UNL     1       0.347   9.632  19.891  0.00  0.00    +0.000 OA
ATOM      9  N   UNL     1       0.265   9.848  21.267  0.00  0.00    +0.000 NA
ATOM     10  C   UNL     1      -0.728  10.744  21.440  0.00  0.00    +0.000 A 
ATOM     11  C   UNL     1      -1.276  11.135  20.201  0.00  0.00    +0.000 A 
ATOM     12  C   UNL     1      -2.380  12.059  19.841  0.00  0.00    +0.000 C 
ATOM     13  H   UNL     1      -4.848  12.503  19.539  0.00  0.00    +0.000 HD
ENDROOT
BRANCH   3  14
ATOM     14  C   UNL     1      -6.468  11.366  18.848  0.00  0.00    +0.000 C 
ATOM     15  C   UNL     1      -7.094  10.830  20.143  0.00  0.00    +0.000 C 
ATOM     16  C   UNL     1      -7.192  11.889  21.247  0.00  0.00    +0.000 C 
ATOM     17  C   UNL     1      -7.817  13.200  20.772  0.00  0.00    +0.000 C 
ATOM     18  C   UNL     1      -7.219  13.705  19.462  0.00  0.00    +0.000 C 
ATOM     19  C   UNL     1      -7.234  12.616  18.391  0.00  0.00    +0.000 C 
ENDBRANCH   3  14
BRANCH  10  20
ATOM     20  C   UNL     1      -1.164  11.145  22.811  0.00  0.00    +0.000 C 
BRANCH  20  21
ATOM     21  O   UNL     1      -1.243  12.567  22.949  0.00  0.00    +0.000 OA
BRANCH  21  22
ATOM     22  C   UNL     1      -2.467  13.076  23.276  0.00  0.00    +0.000 A 
ATOM     23  C   UNL     1      -3.587  12.351  23.676  0.00  0.00    +0.000 A 
ATOM     24  C   UNL     1      -4.777  13.019  23.968  0.00  0.00    +0.000 A 
ATOM     25  C   UNL     1      -4.809  14.398  23.844  0.00  0.00    +0.000 A 
ATOM     26  N   UNL     1      -3.750  15.135  23.457  0.00  0.00    +0.000 NA
ATOM     27  C   UNL     1      -2.607  14.458  23.186  0.00  0.00    +0.000 A 
ENDBRANCH  21  22
ENDBRANCH  20  21
ENDBRANCH  10  20
TORSDOF 4
ENDMDL
MODEL 7
REMARK VINA RESULT:      -6.3      0.920      1.081
REMARK  Name = 
REMARK  4 active torsions:
REMARK  status: ('A' for Active; 'I' for Inactive)
REMARK    1  A    between atoms: N_3  and  C_4
REMARK    2  A    between atoms: C_16  and  C_17
REMARK    3  A    between atoms: C_17  and  O_18
REMARK    4  A    between atoms: O_18  and  C_19
REMARK                            x       y       z     vdW  Elec       q    Type
REMARK                         _______ _______ _______ _____ _____    ______ ____
ROOT
ATOM      1  O   UNL     1      -2.603  11.207  16.863  0.00  0.00    +0.000 OA
ATOM      2  C   UNL     1      -2.848  11.773  17.923  0.00  0.00    +0.000 C 
ATOM      3  N   UNL     1      -4.124  11.898  18.418  0.00  0.00    +0.000 N 
ATOM      4  N   UNL     1      -1.874  12.362  18.713  0.00  0.00    +0.000 N 
ATOM      5  C   UNL     1      -0.485  12.425  18.192  0.00  0.00    +0.000 C 
ATOM      6  C   UNL     1       0.417  11.324  18.800  0.00  0.00    +0.000 C 
ATOM      7  C   UNL     1       0.093  11.257  20.242  0.00  0.00    +0.000 A 
ATOM      8  O   UNL     1       0.855  10.557  21.110  0.00  0.00    +0.000 OA
ATOM      9  N   UNL     1       0.246  10.606  22.363  0.00  0.00    +0.000 NA
ATOM     10  C   UNL     1      -0.877  11.335  22.198  0.00  0.00    +0.000 A 
ATOM     11  C   UNL     1      -0.997  11.782  20.866  0.00  0.00    +0.000 A 
ATOM     12  C   UNL     1      -2.033  12.582  20.167  0.00  0.00    +0.000 C 
ATOM     13  H   UNL     1      -4.261  12.719  18.986  0.00  0.00    +0.000 HD
ENDROOT
BRANCH   3  14
ATOM     14  C   UNL     1      -5.307  11.456  17.679  0.00  0.00    +0.000 C 
ATOM     15  C   UNL     1      -6.244  10.671  18.608  0.00  0.00    +0.000 C 
ATOM     16  C   UNL     1      -6.913  11.548  19.670  0.00  0.00    +0.000 C 
ATOM     17  C   UNL     1      -7.554  12.811  19.095  0.00  0.00    +0.000 C 
ATOM     18  C   UNL     1      -6.631  13.565  18.141  0.00  0.00    +0.000 C 
ATOM     19  C   UNL     1      -6.071  12.637  17.064  0.00  0.00    +0.000 C 
ENDBRANCH   3  14
BRANCH  10  20
ATOM     20  C   UNL     1      -1.840  11.519  23.324  0.00  0.00    +0.000 C 
BRANCH  20  21
ATOM     21  O   UNL     1      -2.105  12.903  23.576  0.00  0.00    +0.000 OA
BRANCH  21  22
ATOM     22  C   UNL     1      -3.418  13.276  23.583  0.00  0.00    +0.000 A 
ATOM     23  C   UNL     1      -4.484  12.550  24.111  0.00  0.00    +0.000 A 
ATOM     24  C   UNL     1      -5.779  13.065  24.031  0.00  0.00    +0.000 A 
ATOM     25  C   UNL     1      -5.966  14.293  23.418  0.00  0.00    +0.000 A 
ATOM     26  N   UNL     1      -4.964  15.024  22.893  0.00  0.00    +0.000 NA
ATOM     27  C   UNL     1      -3.716  14.500  22.991  0.00  0.00    +0.000 A 
ENDBRANCH  21  22
ENDBRANCH  20  21
ENDBRANCH  10  20
TORSDOF 4
ENDMDL
MODEL 8
REMARK VINA RESULT:      -6.3      1.920      2.916
REMARK  Name = 
REMARK  4 active torsions:
REMARK  status: ('A' for Active; 'I' for Inactive)
REMARK    1  A    between atoms: N_3  and  C_4
REMARK    2  A    between atoms: C_16  and  C_17
REMARK    3  A    between atoms: C_17  and  O_18
REMARK    4  A    between atoms: O_18  and  C_19
REMARK                            x       y       z     vdW  Elec       q    Type
REMARK                         _______ _______ _______ _____ _____    ______ ____
ROOT
ATOM      1  O   UNL     1      -5.218  10.518  17.957  0.00  0.00    +0.000 OA
ATOM      2  C   UNL     1      -4.568  11.385  18.532  0.00  0.00    +0.000 C 
ATOM      3  N   UNL     1      -5.062  12.096  19.599  0.00  0.00    +0.000 N 
ATOM      4  N   UNL     1      -3.285  11.750  18.154  0.00  0.00    +0.000 N 
ATOM      5  C   UNL     1      -2.719  11.158  16.916  0.00  0.00    +0.000 C 
ATOM      6  C   UNL     1      -1.744   9.994  17.218  0.00  0.00    +0.000 C 
ATOM      7  C   UNL     1      -0.916  10.421  18.366  0.00  0.00    +0.000 A 
ATOM      8  O   UNL     1       0.183   9.733  18.744  0.00  0.00    +0.000 OA
ATOM      9  N   UNL     1       0.690  10.322  19.902  0.00  0.00    +0.000 NA
ATOM     10  C   UNL     1      -0.139  11.348  20.186  0.00  0.00    +0.000 A 
ATOM     11  C   UNL     1      -1.160  11.453  19.219  0.00  0.00    +0.000 A 
ATOM     12  C   UNL     1      -2.314  12.375  19.078  0.00  0.00    +0.000 C 
ATOM     13  H   UNL     1      -4.680  13.024  19.681  0.00  0.00    +0.000 HD
ENDROOT
BRANCH   3  14
ATOM     14  C   UNL     1      -6.438  11.953  20.077  0.00  0.00    +0.000 C 
ATOM     15  C   UNL     1      -6.549  12.466  21.520  0.00  0.00    +0.000 C 
ATOM     16  C   UNL     1      -6.391  13.986  21.632  0.00  0.00    +0.000 C 
ATOM     17  C   UNL     1      -7.268  14.759  20.648  0.00  0.00    +0.000 C 
ATOM     18  C   UNL     1      -7.183  14.218  19.223  0.00  0.00    +0.000 C 
ATOM     19  C   UNL     1      -7.434  12.711  19.188  0.00  0.00    +0.000 C 
ENDBRANCH   3  14
BRANCH  10  20
ATOM     20  C   UNL     1       0.045  12.156  21.428  0.00  0.00    +0.000 C 
BRANCH  20  21
ATOM     21  O   UNL     1      -0.655  11.588  22.540  0.00  0.00    +0.000 OA
BRANCH  21  22
ATOM     22  C   UNL     1      -1.612  12.373  23.117  0.00  0.00    +0.000 A 
ATOM     23  C   UNL     1      -2.896  11.979  23.484  0.00  0.00    +0.000 A 
ATOM     24  C   UNL     1      -3.768  12.907  24.058  0.00  0.00    +0.000 A 
ATOM     25  C   UNL     1      -3.324  14.206  24.242  0.00  0.00    +0.000 A 
ATOM     26  N   UNL     1      -2.091  14.627  23.897  0.00  0.00    +0.000 NA
ATOM     27  C   UNL     1      -1.266  13.702  23.346  0.00  0.00    +0.000 A 
ENDBRANCH  21  22
ENDBRANCH  20  21
ENDBRANCH  10  20
TORSDOF 4
ENDMDL
MODEL 9
REMARK VINA RESULT:      -6.3      1.223      1.393
REMARK  Name = 
REMARK  4 active torsions:
REMARK  status: ('A' for Active; 'I' for Inactive)
REMARK    1  A    between atoms: N_3  and  C_4
REMARK    2  A    between atoms: C_16  and  C_17
REMARK    3  A    between atoms: C_17  and  O_18
REMARK    4  A    between atoms: O_18  and  C_19
REMARK                            x       y       z     vdW  Elec       q    Type
REMARK                         _______ _______ _______ _____ _____    ______ ____
ROOT
ATOM      1  O   UNL     1      -1.772  10.333  17.317  0.00  0.00    +0.000 OA
ATOM      2  C   UNL     1      -2.193  11.108  18.169  0.00  0.00    +0.000 C 
ATOM      3  N   UNL     1      -3.530  11.391  18.317  0.00  0.00    +0.000 N 
ATOM      4  N   UNL     1      -1.370  11.791  19.050  0.00  0.00    +0.000 N 
ATOM      5  C   UNL     1       0.100  11.681  18.871  0.00  0.00    +0.000 C 
ATOM      6  C   UNL     1       0.736  10.676  19.862  0.00  0.00    +0.000 C 
ATOM      7  C   UNL     1       0.093  10.909  21.174  0.00  0.00    +0.000 A 
ATOM      8  O   UNL     1       0.573  10.355  22.308  0.00  0.00    +0.000 OA
ATOM      9  N   UNL     1      -0.294  10.679  23.352  0.00  0.00    +0.000 NA
ATOM     10  C   UNL     1      -1.278  11.417  22.797  0.00  0.00    +0.000 A 
ATOM     11  C   UNL     1      -1.054  11.600  21.417  0.00  0.00    +0.000 A 
ATOM     12  C   UNL     1      -1.828  12.299  20.361  0.00  0.00    +0.000 C 
ATOM     13  H   UNL     1      -3.713  12.312  18.680  0.00  0.00    +0.000 HD
ENDROOT
BRANCH   3  14
ATOM     14  C   UNL     1      -4.555  10.872  17.410  0.00  0.00    +0.000 C 
ATOM     15  C   UNL     1      -5.586  10.050  18.196  0.00  0.00    +0.000 C 
ATOM     16  C   UNL     1      -6.462  10.905  19.117  0.00  0.00    +0.000 C 
ATOM     17  C   UNL     1      -7.068  12.122  18.417  0.00  0.00    +0.000 C 
ATOM     18  C   UNL     1      -6.045  12.911  17.604  0.00  0.00    +0.000 C 
ATOM     19  C   UNL     1      -5.272  11.999  16.652  0.00  0.00    +0.000 C 
ENDBRANCH   3  14
BRANCH  10  20
ATOM     20  C   UNL     1      -2.446  11.865  23.612  0.00  0.00    +0.000 C 
BRANCH  20  21
ATOM     21  O   UNL     1      -3.128  12.966  23.002  0.00  0.00    +0.000 OA
BRANCH  21  22
ATOM     22  C   UNL     1      -4.491  12.887  22.963  0.00  0.00    +0.000 A 
ATOM     23  C   UNL     1      -5.304  13.127  21.857  0.00  0.00    +0.000 A 
ATOM     24  C   UNL     1      -6.690  13.015  21.980  0.00  0.00    +0.000 A 
ATOM     25  C   UNL     1      -7.219  12.670  23.212  0.00  0.00    +0.000 A 
ATOM     26  N   UNL     1      -6.468  12.434  24.305  0.00  0.00    +0.000 NA
ATOM     27  C   UNL     1      -5.125  12.546  24.154  0.00  0.00    +0.000 A 
ENDBRANCH  21  22
ENDBRANCH  20  21
ENDBRANCH  10  20
TORSDOF 4
ENDMDL
