MODEL 1
REMARK VINA RESULT:      -7.2      0.000      0.000
REMARK  Name = 
REMARK  7 active torsions:
REMARK  status: ('A' for Active; 'I' for Inactive)
REMARK    1  A    between atoms: C_1  and  O_2
REMARK    2  A    between atoms: O_2  and  C_3
REMARK    3  A    between atoms: C_6  and  N_7
REMARK    4  A    between atoms: C_13  and  N_14
REMARK    5  A    between atoms: C_15  and  C_17
REMARK    6  A    between atoms: C_23  and  O_24
REMARK    7  A    between atoms: O_24  and  C_25
REMARK                            x       y       z     vdW  Elec       q    Type
REMARK                         _______ _______ _______ _____ _____    ______ ____
ROOT
ATOM      1  N   UNL     1       3.998   5.215  18.084  0.00  0.00    +0.000 N 
ATOM      2  C   UNL     1       3.220   4.219  18.584  0.00  0.00    +0.000 A 
ATOM      3  C   UNL     1       3.144   2.909  18.359  0.00  0.00    +0.000 A 
ATOM      4  S   UNL     1       1.929   2.066  19.286  0.00  0.00    +0.000 S 
ATOM      5  S   UNL     1       1.240   3.746  20.303  0.00  0.00    +0.000 S 
ATOM      6  C   UNL     1       2.339   4.809  19.537  0.00  0.00    +0.000 A 
ATOM      7  C   UNL     1       2.535   6.126  19.662  0.00  0.00    +0.000 A 
ATOM      8  C   UNL     1       3.659   6.439  18.689  0.00  0.00    +0.000 A 
ATOM      9  O   UNL     1       4.148   7.529  18.458  0.00  0.00    +0.000 OA
ENDROOT
BRANCH   1  13
ATOM     10  C   UNL     1       7.022   4.974  15.169  0.00  0.00    +0.000 A 
ATOM     11  C   UNL     1       5.702   5.260  14.809  0.00  0.00    +0.000 A 
ATOM     12  C   UNL     1       4.701   5.326  15.778  0.00  0.00    +0.000 A 
ATOM     13  C   UNL     1       5.018   5.111  17.123  0.00  0.00    +0.000 A 
ATOM     14  C   UNL     1       6.345   4.841  17.499  0.00  0.00    +0.000 A 
ATOM     15  C   UNL     1       7.338   4.759  16.513  0.00  0.00    +0.000 A 
BRANCH  10  17
ATOM     16  C   UNL     1       7.358   4.744  12.823  0.00  0.00    +0.000 C 
ATOM     17  O   UNL     1       7.904   4.932  14.123  0.00  0.00    +0.000 OA
ENDBRANCH  10  17
BRANCH  14  18
ATOM     18  O   UNL     1       6.584   4.616  18.834  0.00  0.00    +0.000 OA
ATOM     19  C   UNL     1       7.390   5.596  19.483  0.00  0.00    +0.000 C 
ENDBRANCH  14  18
ENDBRANCH   1  13
BRANCH   7  20
ATOM     20  N   UNL     1       1.831   6.954  20.502  0.00  0.00    +0.000 N 
ATOM     21  C   UNL     1       1.333   8.233  20.257  0.00  0.00    +0.000 C 
ATOM     22  O   UNL     1       1.452   8.850  19.203  0.00  0.00    +0.000 OA
ATOM     23  H   UNL     1       1.658   6.586  21.438  0.00  0.00    +0.000 HD
BRANCH  21  24
ATOM     24  C   UNL     1       0.600   8.832  21.475  0.00  0.00    +0.000 C 
ATOM     25  F   UNL     1       0.252  10.138  21.254  0.00  0.00    +0.000 F 
ATOM     26  F   UNL     1      -0.556   8.180  21.769  0.00  0.00    +0.000 F 
ATOM     27  F   UNL     1       1.358   8.831  22.604  0.00  0.00    +0.000 F 
ENDBRANCH  21  24
ENDBRANCH   7  20
TORSDOF 5
ENDMDL
MODEL 2
REMARK VINA RESULT:      -6.9      1.034      1.044
REMARK  Name = 
REMARK  7 active torsions:
REMARK  status: ('A' for Active; 'I' for Inactive)
REMARK    1  A    between atoms: C_1  and  O_2
REMARK    2  A    between atoms: O_2  and  C_3
REMARK    3  A    between atoms: C_6  and  N_7
REMARK    4  A    between atoms: C_13  and  N_14
REMARK    5  A    between atoms: C_15  and  C_17
REMARK    6  A    between atoms: C_23  and  O_24
REMARK    7  A    between atoms: O_24  and  C_25
REMARK                            x       y       z     vdW  Elec       q    Type
REMARK                         _______ _______ _______ _____ _____    ______ ____
ROOT
ATOM      1  N   UNL     1       4.225   5.312  17.999  0.00  0.00    +0.000 N 
ATOM      2  C   UNL     1       3.805   4.421  18.936  0.00  0.00    +0.000 A 
ATOM      3  C   UNL     1       4.006   3.119  19.122  0.00  0.00    +0.000 A 
ATOM      4  S   UNL     1       3.205   2.436  20.515  0.00  0.00    +0.000 S 
ATOM      5  S   UNL     1       2.321   4.214  21.139  0.00  0.00    +0.000 S 
ATOM      6  C   UNL     1       2.986   5.134  19.859  0.00  0.00    +0.000 A 
ATOM      7  C   UNL     1       2.881   6.431  19.549  0.00  0.00    +0.000 A 
ATOM      8  C   UNL     1       3.713   6.590  18.289  0.00  0.00    +0.000 A 
ATOM      9  O   UNL     1       3.880   7.608  17.643  0.00  0.00    +0.000 OA
ENDROOT
BRANCH   1  13
ATOM     10  C   UNL     1       6.663   4.625  14.640  0.00  0.00    +0.000 A 
ATOM     11  C   UNL     1       5.297   4.332  14.604  0.00  0.00    +0.000 A 
ATOM     12  C   UNL     1       4.494   4.550  15.725  0.00  0.00    +0.000 A 
ATOM     13  C   UNL     1       5.059   5.071  16.893  0.00  0.00    +0.000 A 
ATOM     14  C   UNL     1       6.427   5.386  16.935  0.00  0.00    +0.000 A 
ATOM     15  C   UNL     1       7.225   5.145  15.808  0.00  0.00    +0.000 A 
BRANCH  10  17
ATOM     16  C   UNL     1       6.609   3.700  12.446  0.00  0.00    +0.000 C 
ATOM     17  O   UNL     1       7.334   4.359  13.477  0.00  0.00    +0.000 OA
ENDBRANCH  10  17
BRANCH  14  18
ATOM     18  O   UNL     1       6.922   5.872  18.122  0.00  0.00    +0.000 OA
ATOM     19  C   UNL     1       7.681   7.076  18.020  0.00  0.00    +0.000 C 
ENDBRANCH  14  18
ENDBRANCH   1  13
BRANCH   7  20
ATOM     20  N   UNL     1       2.155   7.357  20.258  0.00  0.00    +0.000 N 
ATOM     21  C   UNL     1       1.440   8.457  19.787  0.00  0.00    +0.000 C 
ATOM     22  O   UNL     1       1.342   8.786  18.609  0.00  0.00    +0.000 OA
ATOM     23  H   UNL     1       2.149   7.229  21.271  0.00  0.00    +0.000 HD
BRANCH  21  24
ATOM     24  C   UNL     1       0.764   9.259  20.917  0.00  0.00    +0.000 C 
ATOM     25  F   UNL     1       1.334  10.496  21.059  0.00  0.00    +0.000 F 
ATOM     26  F   UNL     1      -0.559   9.479  20.691  0.00  0.00    +0.000 F 
ATOM     27  F   UNL     1       0.867   8.656  22.132  0.00  0.00    +0.000 F 
ENDBRANCH  21  24
ENDBRANCH   7  20
TORSDOF 5
ENDMDL
MODEL 3
REMARK VINA RESULT:      -6.7      0.890      1.175
REMARK  Name = 
REMARK  7 active torsions:
REMARK  status: ('A' for Active; 'I' for Inactive)
REMARK    1  A    between atoms: C_1  and  O_2
REMARK    2  A    between atoms: O_2  and  C_3
REMARK    3  A    between atoms: C_6  and  N_7
REMARK    4  A    between atoms: C_13  and  N_14
REMARK    5  A    between atoms: C_15  and  C_17
REMARK    6  A    between atoms: C_23  and  O_24
REMARK    7  A    between atoms: O_24  and  C_25
REMARK                            x       y       z     vdW  Elec       q    Type
REMARK                         _______ _______ _______ _____ _____    ______ ____
ROOT
ATOM      1  N   UNL     1       3.990   5.321  18.625  0.00  0.00    +0.000 N 
ATOM      2  C   UNL     1       3.638   4.340  19.498  0.00  0.00    +0.000 A 
ATOM      3  C   UNL     1       4.034   3.082  19.676  0.00  0.00    +0.000 A 
ATOM      4  S   UNL     1       3.231   2.227  20.969  0.00  0.00    +0.000 S 
ATOM      5  S   UNL     1       2.009   3.812  21.540  0.00  0.00    +0.000 S 
ATOM      6  C   UNL     1       2.629   4.875  20.351  0.00  0.00    +0.000 A 
ATOM      7  C   UNL     1       2.340   6.148  20.058  0.00  0.00    +0.000 A 
ATOM      8  C   UNL     1       3.248   6.487  18.889  0.00  0.00    +0.000 A 
ATOM      9  O   UNL     1       3.304   7.541  18.285  0.00  0.00    +0.000 OA
ENDROOT
BRANCH   1  13
ATOM     10  C   UNL     1       6.819   5.185  15.515  0.00  0.00    +0.000 A 
ATOM     11  C   UNL     1       5.462   4.972  15.257  0.00  0.00    +0.000 A 
ATOM     12  C   UNL     1       4.529   5.005  16.295  0.00  0.00    +0.000 A 
ATOM     13  C   UNL     1       4.952   5.260  17.603  0.00  0.00    +0.000 A 
ATOM     14  C   UNL     1       6.311   5.494  17.871  0.00  0.00    +0.000 A 
ATOM     15  C   UNL     1       7.240   5.440  16.822  0.00  0.00    +0.000 A 
BRANCH  10  17
ATOM     16  C   UNL     1       7.079   4.524  13.242  0.00  0.00    +0.000 C 
ATOM     17  O   UNL     1       7.627   5.119  14.412  0.00  0.00    +0.000 OA
ENDBRANCH  10  17
BRANCH  14  18
ATOM     18  O   UNL     1       6.662   5.715  19.182  0.00  0.00    +0.000 OA
ATOM     19  C   UNL     1       8.064   5.736  19.443  0.00  0.00    +0.000 C 
ENDBRANCH  14  18
ENDBRANCH   1  13
BRANCH   7  20
ATOM     20  N   UNL     1       1.407   6.917  20.712  0.00  0.00    +0.000 N 
ATOM     21  C   UNL     1       1.198   8.293  20.636  0.00  0.00    +0.000 C 
ATOM     22  O   UNL     1       1.846   9.071  19.942  0.00  0.00    +0.000 OA
ATOM     23  H   UNL     1       0.789   6.412  21.348  0.00  0.00    +0.000 HD
BRANCH  21  24
ATOM     24  C   UNL     1       0.046   8.773  21.542  0.00  0.00    +0.000 C 
ATOM     25  F   UNL     1      -0.901   7.797  21.702  0.00  0.00    +0.000 F 
ATOM     26  F   UNL     1       0.461   9.104  22.794  0.00  0.00    +0.000 F 
ATOM     27  F   UNL     1      -0.610   9.854  21.039  0.00  0.00    +0.000 F 
ENDBRANCH  21  24
ENDBRANCH   7  20
TORSDOF 5
ENDMDL
MODEL 4
REMARK VINA RESULT:      -6.1      5.496      7.865
REMARK  Name = 
REMARK  7 active torsions:
REMARK  status: ('A' for Active; 'I' for Inactive)
REMARK    1  A    between atoms: C_1  and  O_2
REMARK    2  A    between atoms: O_2  and  C_3
REMARK    3  A    between atoms: C_6  and  N_7
REMARK    4  A    between atoms: C_13  and  N_14
REMARK    5  A    between atoms: C_15  and  C_17
REMARK    6  A    between atoms: C_23  and  O_24
REMARK    7  A    between atoms: O_24  and  C_25
REMARK                            x       y       z     vdW  Elec       q    Type
REMARK                         _______ _______ _______ _____ _____    ______ ____
ROOT
ATOM      1  N   UNL     1      -0.316  10.576  19.158  0.00  0.00    +0.000 N 
ATOM      2  C   UNL     1      -0.161  11.809  19.707  0.00  0.00    +0.000 A 
ATOM      3  C   UNL     1       0.860  12.438  20.284  0.00  0.00    +0.000 A 
ATOM      4  S   UNL     1       0.515  14.055  20.845  0.00  0.00    +0.000 S 
ATOM      5  S   UNL     1      -1.473  14.069  20.230  0.00  0.00    +0.000 S 
ATOM      6  C   UNL     1      -1.412  12.484  19.591  0.00  0.00    +0.000 A 
ATOM      7  C   UNL     1      -2.339  11.732  18.986  0.00  0.00    +0.000 A 
ATOM      8  C   UNL     1      -1.629  10.427  18.674  0.00  0.00    +0.000 A 
ATOM      9  O   UNL     1      -2.104   9.441  18.143  0.00  0.00    +0.000 OA
ENDROOT
BRANCH   1  13
ATOM     10  C   UNL     1       2.619   7.588  18.759  0.00  0.00    +0.000 A 
ATOM     11  C   UNL     1       2.332   8.455  17.700  0.00  0.00    +0.000 A 
ATOM     12  C   UNL     1       1.348   9.436  17.834  0.00  0.00    +0.000 A 
ATOM     13  C   UNL     1       0.647   9.559  19.037  0.00  0.00    +0.000 A 
ATOM     14  C   UNL     1       0.941   8.707  20.114  0.00  0.00    +0.000 A 
ATOM     15  C   UNL     1       1.918   7.713  19.961  0.00  0.00    +0.000 A 
BRANCH  10  17
ATOM     16  C   UNL     1       4.330   6.832  17.286  0.00  0.00    +0.000 C 
ATOM     17  O   UNL     1       3.599   6.670  18.495  0.00  0.00    +0.000 OA
ENDBRANCH  10  17
BRANCH  14  18
ATOM     18  O   UNL     1       0.198   8.866  21.260  0.00  0.00    +0.000 OA
ATOM     19  C   UNL     1       0.931   9.284  22.409  0.00  0.00    +0.000 C 
ENDBRANCH  14  18
ENDBRANCH   1  13
BRANCH   7  20
ATOM     20  N   UNL     1      -3.634  12.121  18.740  0.00  0.00    +0.000 N 
ATOM     21  C   UNL     1      -4.397  11.943  17.587  0.00  0.00    +0.000 C 
ATOM     22  O   UNL     1      -4.015  11.387  16.563  0.00  0.00    +0.000 OA
ATOM     23  H   UNL     1      -4.096  12.619  19.502  0.00  0.00    +0.000 HD
BRANCH  21  24
ATOM     24  C   UNL     1      -5.815  12.539  17.712  0.00  0.00    +0.000 C 
ATOM     25  F   UNL     1      -6.773  11.564  17.632  0.00  0.00    +0.000 F 
ATOM     26  F   UNL     1      -6.020  13.170  18.899  0.00  0.00    +0.000 F 
ATOM     27  F   UNL     1      -6.104  13.433  16.729  0.00  0.00    +0.000 F 
ENDBRANCH  21  24
ENDBRANCH   7  20
TORSDOF 5
ENDMDL
MODEL 5
REMARK VINA RESULT:      -6.1      5.519      7.915
REMARK  Name = 
REMARK  7 active torsions:
REMARK  status: ('A' for Active; 'I' for Inactive)
REMARK    1  A    between atoms: C_1  and  O_2
REMARK    2  A    between atoms: O_2  and  C_3
REMARK    3  A    between atoms: C_6  and  N_7
REMARK    4  A    between atoms: C_13  and  N_14
REMARK    5  A    between atoms: C_15  and  C_17
REMARK    6  A    between atoms: C_23  and  O_24
REMARK    7  A    between atoms: O_24  and  C_25
REMARK                            x       y       z     vdW  Elec       q    Type
REMARK                         _______ _______ _______ _____ _____    ______ ____
ROOT
ATOM      1  N   UNL     1      -0.120  10.794  19.407  0.00  0.00    +0.000 N 
ATOM      2  C   UNL     1       0.150  11.983  20.007  0.00  0.00    +0.000 A 
ATOM      3  C   UNL     1       1.236  12.503  20.572  0.00  0.00    +0.000 A 
ATOM      4  S   UNL     1       1.038  14.111  21.221  0.00  0.00    +0.000 S 
ATOM      5  S   UNL     1      -0.963  14.307  20.686  0.00  0.00    +0.000 S 
ATOM      6  C   UNL     1      -1.048  12.755  19.972  0.00  0.00    +0.000 A 
ATOM      7  C   UNL     1      -2.052  12.107  19.370  0.00  0.00    +0.000 A 
ATOM      8  C   UNL     1      -1.457  10.768  18.970  0.00  0.00    +0.000 A 
ATOM      9  O   UNL     1      -2.026   9.849  18.412  0.00  0.00    +0.000 OA
ENDROOT
BRANCH   1  13
ATOM     10  C   UNL     1       2.558   7.616  18.755  0.00  0.00    +0.000 A 
ATOM     11  C   UNL     1       2.312   8.560  17.755  0.00  0.00    +0.000 A 
ATOM     12  C   UNL     1       1.413   9.605  17.972  0.00  0.00    +0.000 A 
ATOM     13  C   UNL     1       0.757   9.714  19.201  0.00  0.00    +0.000 A 
ATOM     14  C   UNL     1       1.010   8.782  20.221  0.00  0.00    +0.000 A 
ATOM     15  C   UNL     1       1.902   7.726  19.983  0.00  0.00    +0.000 A 
BRANCH  10  17
ATOM     16  C   UNL     1       3.580   5.533  19.295  0.00  0.00    +0.000 C 
ATOM     17  O   UNL     1       3.456   6.641  18.411  0.00  0.00    +0.000 OA
ENDBRANCH  10  17
BRANCH  14  18
ATOM     18  O   UNL     1       0.314   8.933  21.396  0.00  0.00    +0.000 OA
ATOM     19  C   UNL     1       1.106   9.249  22.539  0.00  0.00    +0.000 C 
ENDBRANCH  14  18
ENDBRANCH   1  13
BRANCH   7  20
ATOM     20  N   UNL     1      -3.321  12.605  19.193  0.00  0.00    +0.000 N 
ATOM     21  C   UNL     1      -4.332  12.780  20.137  0.00  0.00    +0.000 C 
ATOM     22  O   UNL     1      -4.244  12.503  21.329  0.00  0.00    +0.000 OA
ATOM     23  H   UNL     1      -3.559  12.872  18.237  0.00  0.00    +0.000 HD
BRANCH  21  24
ATOM     24  C   UNL     1      -5.623  13.364  19.527  0.00  0.00    +0.000 C 
ATOM     25  F   UNL     1      -6.734  12.908  20.183  0.00  0.00    +0.000 F 
ATOM     26  F   UNL     1      -5.673  14.721  19.600  0.00  0.00    +0.000 F 
ATOM     27  F   UNL     1      -5.793  13.028  18.221  0.00  0.00    +0.000 F 
ENDBRANCH  21  24
ENDBRANCH   7  20
TORSDOF 5
ENDMDL
MODEL 6
REMARK VINA RESULT:      -5.9      5.348     10.175
REMARK  Name = 
REMARK  7 active torsions:
REMARK  status: ('A' for Active; 'I' for Inactive)
REMARK    1  A    between atoms: C_1  and  O_2
REMARK    2  A    between atoms: O_2  and  C_3
REMARK    3  A    between atoms: C_6  and  N_7
REMARK    4  A    between atoms: C_13  and  N_14
REMARK    5  A    between atoms: C_15  and  C_17
REMARK    6  A    between atoms: C_23  and  O_24
REMARK    7  A    between atoms: O_24  and  C_25
REMARK                            x       y       z     vdW  Elec       q    Type
REMARK                         _______ _______ _______ _____ _____    ______ ____
ROOT
ATOM      1  N   UNL     1      -0.622  11.751  20.878  0.00  0.00    +0.000 N 
ATOM      2  C   UNL     1      -1.331  11.520  19.742  0.00  0.00    +0.000 A 
ATOM      3  C   UNL     1      -2.397  12.093  19.190  0.00  0.00    +0.000 A 
ATOM      4  S   UNL     1      -2.927  11.381  17.687  0.00  0.00    +0.000 S 
ATOM      5  S   UNL     1      -1.451   9.916  17.617  0.00  0.00    +0.000 S 
ATOM      6  C   UNL     1      -0.721  10.412  19.083  0.00  0.00    +0.000 A 
ATOM      7  C   UNL     1       0.340   9.946  19.750  0.00  0.00    +0.000 A 
ATOM      8  C   UNL     1       0.441  10.835  20.977  0.00  0.00    +0.000 A 
ATOM      9  O   UNL     1       1.255  10.753  21.878  0.00  0.00    +0.000 OA
ENDROOT
BRANCH   1  13
ATOM     10  C   UNL     1      -1.281  14.676  23.830  0.00  0.00    +0.000 A 
ATOM     11  C   UNL     1      -1.925  13.437  23.894  0.00  0.00    +0.000 A 
ATOM     12  C   UNL     1      -1.712  12.475  22.906  0.00  0.00    +0.000 A 
ATOM     13  C   UNL     1      -0.844  12.748  21.844  0.00  0.00    +0.000 A 
ATOM     14  C   UNL     1      -0.177  13.983  21.779  0.00  0.00    +0.000 A 
ATOM     15  C   UNL     1      -0.414  14.947  22.769  0.00  0.00    +0.000 A 
BRANCH  10  17
ATOM     16  C   UNL     1      -2.934  15.952  24.975  0.00  0.00    +0.000 C 
ATOM     17  O   UNL     1      -1.581  15.529  24.858  0.00  0.00    +0.000 OA
ENDBRANCH  10  17
BRANCH  14  18
ATOM     18  O   UNL     1       0.643  14.195  20.697  0.00  0.00    +0.000 OA
ATOM     19  C   UNL     1       0.122  15.069  19.698  0.00  0.00    +0.000 C 
ENDBRANCH  14  18
ENDBRANCH   1  13
BRANCH   7  20
ATOM     20  N   UNL     1       1.120   8.885  19.353  0.00  0.00    +0.000 N 
ATOM     21  C   UNL     1       1.987   8.795  18.266  0.00  0.00    +0.000 C 
ATOM     22  O   UNL     1       2.201   9.689  17.453  0.00  0.00    +0.000 OA
ATOM     23  H   UNL     1       1.044   8.046  19.928  0.00  0.00    +0.000 HD
BRANCH  21  24
ATOM     24  C   UNL     1       2.674   7.418  18.163  0.00  0.00    +0.000 C 
ATOM     25  F   UNL     1       1.826   6.475  17.646  0.00  0.00    +0.000 F 
ATOM     26  F   UNL     1       3.763   7.430  17.349  0.00  0.00    +0.000 F 
ATOM     27  F   UNL     1       3.082   6.936  19.368  0.00  0.00    +0.000 F 
ENDBRANCH  21  24
ENDBRANCH   7  20
TORSDOF 5
ENDMDL
MODEL 7
REMARK VINA RESULT:      -5.8      3.299      4.009
REMARK  Name = 
REMARK  7 active torsions:
REMARK  status: ('A' for Active; 'I' for Inactive)
REMARK    1  A    between atoms: C_1  and  O_2
REMARK    2  A    between atoms: O_2  and  C_3
REMARK    3  A    between atoms: C_6  and  N_7
REMARK    4  A    between atoms: C_13  and  N_14
REMARK    5  A    between atoms: C_15  and  C_17
REMARK    6  A    between atoms: C_23  and  O_24
REMARK    7  A    between atoms: O_24  and  C_25
REMARK                            x       y       z     vdW  Elec       q    Type
REMARK                         _______ _______ _______ _____ _____    ______ ____
ROOT
ATOM      1  N   UNL     1       4.577   5.124  17.182  0.00  0.00    +0.000 N 
ATOM      2  C   UNL     1       3.864   6.217  17.562  0.00  0.00    +0.000 A 
ATOM      3  C   UNL     1       3.697   7.432  17.047  0.00  0.00    +0.000 A 
ATOM      4  S   UNL     1       2.656   8.491  17.963  0.00  0.00    +0.000 S 
ATOM      5  S   UNL     1       2.234   7.117  19.468  0.00  0.00    +0.000 S 
ATOM      6  C   UNL     1       3.197   5.884  18.777  0.00  0.00    +0.000 A 
ATOM      7  C   UNL     1       3.452   4.631  19.169  0.00  0.00    +0.000 A 
ATOM      8  C   UNL     1       4.387   4.081  18.106  0.00  0.00    +0.000 A 
ATOM      9  O   UNL     1       4.894   2.975  18.075  0.00  0.00    +0.000 OA
ENDROOT
BRANCH   1  13
ATOM     10  C   UNL     1       6.939   4.718  13.724  0.00  0.00    +0.000 A 
ATOM     11  C   UNL     1       5.593   4.340  13.720  0.00  0.00    +0.000 A 
ATOM     12  C   UNL     1       4.817   4.465  14.873  0.00  0.00    +0.000 A 
ATOM     13  C   UNL     1       5.387   4.978  16.042  0.00  0.00    +0.000 A 
ATOM     14  C   UNL     1       6.733   5.379  16.053  0.00  0.00    +0.000 A 
ATOM     15  C   UNL     1       7.506   5.231  14.893  0.00  0.00    +0.000 A 
BRANCH  10  17
ATOM     16  C   UNL     1       7.117   3.491  11.690  0.00  0.00    +0.000 C 
ATOM     17  O   UNL     1       7.586   4.538  12.531  0.00  0.00    +0.000 OA
ENDBRANCH  10  17
BRANCH  14  18
ATOM     18  O   UNL     1       7.237   5.852  17.241  0.00  0.00    +0.000 OA
ATOM     19  C   UNL     1       7.479   7.257  17.285  0.00  0.00    +0.000 C 
ENDBRANCH  14  18
ENDBRANCH   1  13
BRANCH   7  20
ATOM     20  N   UNL     1       2.948   4.039  20.302  0.00  0.00    +0.000 N 
ATOM     21  C   UNL     1       2.181   2.881  20.418  0.00  0.00    +0.000 C 
ATOM     22  O   UNL     1       1.817   2.175  19.482  0.00  0.00    +0.000 OA
ATOM     23  H   UNL     1       3.155   4.520  21.178  0.00  0.00    +0.000 HD
BRANCH  21  24
ATOM     24  C   UNL     1       1.806   2.556  21.878  0.00  0.00    +0.000 C 
ATOM     25  F   UNL     1       0.448   2.508  22.046  0.00  0.00    +0.000 F 
ATOM     26  F   UNL     1       2.278   1.348  22.288  0.00  0.00    +0.000 F 
ATOM     27  F   UNL     1       2.262   3.483  22.763  0.00  0.00    +0.000 F 
ENDBRANCH  21  24
ENDBRANCH   7  20
TORSDOF 5
ENDMDL
MODEL 8
REMARK VINA RESULT:      -5.8      3.786      7.555
REMARK  Name = 
REMARK  7 active torsions:
REMARK  status: ('A' for Active; 'I' for Inactive)
REMARK    1  A    between atoms: C_1  and  O_2
REMARK    2  A    between atoms: O_2  and  C_3
REMARK    3  A    between atoms: C_6  and  N_7
REMARK    4  A    between atoms: C_13  and  N_14
REMARK    5  A    between atoms: C_15  and  C_17
REMARK    6  A    between atoms: C_23  and  O_24
REMARK    7  A    between atoms: O_24  and  C_25
REMARK                            x       y       z     vdW  Elec       q    Type
REMARK                         _______ _______ _______ _____ _____    ______ ____
ROOT
ATOM      1  N   UNL     1       2.186   6.954  19.456  0.00  0.00    +0.000 N 
ATOM      2  C   UNL     1       1.962   5.630  19.663  0.00  0.00    +0.000 A 
ATOM      3  C   UNL     1       1.208   4.948  20.522  0.00  0.00    +0.000 A 
ATOM      4  S   UNL     1       1.292   3.211  20.366  0.00  0.00    +0.000 S 
ATOM      5  S   UNL     1       2.640   3.209  18.781  0.00  0.00    +0.000 S 
ATOM      6  C   UNL     1       2.746   4.915  18.711  0.00  0.00    +0.000 A 
ATOM      7  C   UNL     1       3.443   5.731  17.913  0.00  0.00    +0.000 A 
ATOM      8  C   UNL     1       3.086   7.128  18.389  0.00  0.00    +0.000 A 
ATOM      9  O   UNL     1       3.513   8.182  17.957  0.00  0.00    +0.000 OA
ENDROOT
BRANCH   1  13
ATOM     10  C   UNL     1       0.582  10.216  21.574  0.00  0.00    +0.000 A 
ATOM     11  C   UNL     1       1.280   9.204  22.240  0.00  0.00    +0.000 A 
ATOM     12  C   UNL     1       1.799   8.118  21.534  0.00  0.00    +0.000 A 
ATOM     13  C   UNL     1       1.627   8.042  20.149  0.00  0.00    +0.000 A 
ATOM     14  C   UNL     1       0.944   9.062  19.467  0.00  0.00    +0.000 A 
ATOM     15  C   UNL     1       0.412  10.139  20.190  0.00  0.00    +0.000 A 
BRANCH  10  17
ATOM     16  C   UNL     1      -1.131  11.011  23.024  0.00  0.00    +0.000 C 
ATOM     17  O   UNL     1       0.121  11.219  22.384  0.00  0.00    +0.000 OA
ENDBRANCH  10  17
BRANCH  14  18
ATOM     18  O   UNL     1       0.789   8.914  18.109  0.00  0.00    +0.000 OA
ATOM     19  C   UNL     1      -0.301   9.632  17.536  0.00  0.00    +0.000 C 
ENDBRANCH  14  18
ENDBRANCH   1  13
BRANCH   7  20
ATOM     20  N   UNL     1       4.285   5.322  16.906  0.00  0.00    +0.000 N 
ATOM     21  C   UNL     1       5.574   4.799  17.001  0.00  0.00    +0.000 C 
ATOM     22  O   UNL     1       6.188   4.613  18.046  0.00  0.00    +0.000 OA
ATOM     23  H   UNL     1       3.920   5.427  15.959  0.00  0.00    +0.000 HD
BRANCH  21  24
ATOM     24  C   UNL     1       6.187   4.470  15.624  0.00  0.00    +0.000 C 
ATOM     25  F   UNL     1       6.003   3.154  15.298  0.00  0.00    +0.000 F 
ATOM     26  F   UNL     1       5.630   5.189  14.613  0.00  0.00    +0.000 F 
ATOM     27  F   UNL     1       7.529   4.686  15.575  0.00  0.00    +0.000 F 
ENDBRANCH  21  24
ENDBRANCH   7  20
TORSDOF 5
ENDMDL
MODEL 9
REMARK VINA RESULT:      -5.8      5.517      7.890
REMARK  Name = 
REMARK  7 active torsions:
REMARK  status: ('A' for Active; 'I' for Inactive)
REMARK    1  A    between atoms: C_1  and  O_2
REMARK    2  A    between atoms: O_2  and  C_3
REMARK    3  A    between atoms: C_6  and  N_7
REMARK    4  A    between atoms: C_13  and  N_14
REMARK    5  A    between atoms: C_15  and  C_17
REMARK    6  A    between atoms: C_23  and  O_24
REMARK    7  A    between atoms: O_24  and  C_25
REMARK                            x       y       z     vdW  Elec       q    Type
REMARK                         _______ _______ _______ _____ _____    ______ ____
ROOT
ATOM      1  N   UNL     1       0.127  10.992  19.524  0.00  0.00    +0.000 N 
ATOM      2  C   UNL     1       0.551  12.180  20.031  0.00  0.00    +0.000 A 
ATOM      3  C   UNL     1       1.735  12.642  20.425  0.00  0.00    +0.000 A 
ATOM      4  S   UNL     1       1.730  14.282  21.023  0.00  0.00    +0.000 S 
ATOM      5  S   UNL     1      -0.308  14.599  20.747  0.00  0.00    +0.000 S 
ATOM      6  C   UNL     1      -0.588  13.033  20.119  0.00  0.00    +0.000 A 
ATOM      7  C   UNL     1      -1.703  12.436  19.682  0.00  0.00    +0.000 A 
ATOM      8  C   UNL     1      -1.255  11.046  19.267  0.00  0.00    +0.000 A 
ATOM      9  O   UNL     1      -1.952  10.150  18.830  0.00  0.00    +0.000 OA
ENDROOT
BRANCH   1  13
ATOM     10  C   UNL     1       2.484   7.614  18.669  0.00  0.00    +0.000 A 
ATOM     11  C   UNL     1       2.186   8.549  17.674  0.00  0.00    +0.000 A 
ATOM     12  C   UNL     1       1.393   9.661  17.960  0.00  0.00    +0.000 A 
ATOM     13  C   UNL     1       0.897   9.848  19.253  0.00  0.00    +0.000 A 
ATOM     14  C   UNL     1       1.205   8.924  20.266  0.00  0.00    +0.000 A 
ATOM     15  C   UNL     1       1.987   7.802  19.961  0.00  0.00    +0.000 A 
BRANCH  10  17
ATOM     16  C   UNL     1       2.643   5.292  18.165  0.00  0.00    +0.000 C 
ATOM     17  O   UNL     1       3.264   6.568  18.255  0.00  0.00    +0.000 OA
ENDBRANCH  10  17
BRANCH  14  18
ATOM     18  O   UNL     1       0.665   9.154  21.509  0.00  0.00    +0.000 OA
ATOM     19  C   UNL     1      -0.489   8.378  21.827  0.00  0.00    +0.000 C 
ENDBRANCH  14  18
ENDBRANCH   1  13
BRANCH   7  20
ATOM     20  N   UNL     1      -2.949  13.015  19.651  0.00  0.00    +0.000 N 
ATOM     21  C   UNL     1      -3.919  13.058  20.651  0.00  0.00    +0.000 C 
ATOM     22  O   UNL     1      -3.808  12.562  21.768  0.00  0.00    +0.000 OA
ATOM     23  H   UNL     1      -3.203  13.465  18.771  0.00  0.00    +0.000 HD
BRANCH  21  24
ATOM     24  C   UNL     1      -5.196  13.803  20.212  0.00  0.00    +0.000 C 
ATOM     25  F   UNL     1      -4.986  15.154  20.143  0.00  0.00    +0.000 F 
ATOM     26  F   UNL     1      -5.630  13.427  18.979  0.00  0.00    +0.000 F 
ATOM     27  F   UNL     1      -6.236  13.628  21.071  0.00  0.00    +0.000 F 
ENDBRANCH  21  24
ENDBRANCH   7  20
TORSDOF 5
ENDMDL
