MODEL 1
REMARK VINA RESULT:      -7.7      0.000      0.000
REMARK  Name = 
REMARK  5 active torsions:
REMARK  status: ('A' for Active; 'I' for Inactive)
REMARK    1  A    between atoms: C_1  and  C_2
REMARK    2  A    between atoms: C_2  and  C_3
REMARK    3  A    between atoms: C_2  and  C_4
REMARK    4  A    between atoms: C_4  and  C_5
REMARK    5  A    between atoms: C_11  and  C_12
REMARK                            x       y       z     vdW  Elec       q    Type
REMARK                         _______ _______ _______ _____ _____    ______ ____
ROOT
ATOM      1  C   UNL     1       3.800   6.511  17.744  0.00  0.00    +0.000 A 
ATOM      2  C   UNL     1       3.052   7.601  18.127  0.00  0.00    +0.000 A 
ATOM      3  N   UNL     1       2.325   7.316  19.278  0.00  0.00    +0.000 N 
ATOM      4  C   UNL     1       1.547   8.225  20.026  0.00  0.00    +0.000 A 
ATOM      5  N   UNL     1       1.026   7.953  21.202  0.00  0.00    +0.000 NA
ATOM      6  C   UNL     1       0.345   9.081  21.652  0.00  0.00    +0.000 A 
ATOM      7  C   UNL     1       0.345  10.158  20.791  0.00  0.00    +0.000 A 
ATOM      8  S   UNL     1       1.260   9.786  19.400  0.00  0.00    +0.000 S 
ATOM      9  C   UNL     1       2.531   5.959  19.562  0.00  0.00    +0.000 A 
ATOM     10  C   UNL     1       1.980   5.126  20.562  0.00  0.00    +0.000 A 
ATOM     11  C   UNL     1       2.356   3.780  20.597  0.00  0.00    +0.000 A 
ATOM     12 CL   UNL     1       1.666   2.732  21.777  0.00  0.00    +0.000 Cl
ATOM     13  C   UNL     1       3.272   3.267  19.690  0.00  0.00    +0.000 A 
ATOM     14  C   UNL     1       3.837   4.097  18.719  0.00  0.00    +0.000 A 
ATOM     15  C   UNL     1       3.451   5.453  18.630  0.00  0.00    +0.000 A 
ENDROOT
BRANCH   7  16
ATOM     16  C   UNL     1      -0.346  11.436  21.045  0.00  0.00    +0.000 C 
ATOM     17  O   UNL     1       0.036  12.104  22.054  0.00  0.00    +0.000 OA
ATOM     18  O   UNL     1      -1.263  11.751  20.228  0.00  0.00    +0.000 OA
ENDBRANCH   7  16
BRANCH   1  19
ATOM     19  C   UNL     1       4.807   6.491  16.644  0.00  0.00    +0.000 C 
BRANCH  19  21
ATOM     20  C   UNL     1       6.856   5.266  15.911  0.00  0.00    +0.000 C 
ATOM     21  C   UNL     1       6.232   6.077  17.050  0.00  0.00    +0.000 C 
ATOM     22  C   UNL     1       7.131   7.272  17.374  0.00  0.00    +0.000 C 
ENDBRANCH  19  21
ENDBRANCH   1  19
TORSDOF 3
ENDMDL
MODEL 2
REMARK VINA RESULT:      -7.6      1.245      1.477
REMARK  Name = 
REMARK  5 active torsions:
REMARK  status: ('A' for Active; 'I' for Inactive)
REMARK    1  A    between atoms: C_1  and  C_2
REMARK    2  A    between atoms: C_2  and  C_3
REMARK    3  A    between atoms: C_2  and  C_4
REMARK    4  A    between atoms: C_4  and  C_5
REMARK    5  A    between atoms: C_11  and  C_12
REMARK                            x       y       z     vdW  Elec       q    Type
REMARK                         _______ _______ _______ _____ _____    ______ ____
ROOT
ATOM      1  C   UNL     1       4.509   5.820  17.197  0.00  0.00    +0.000 A 
ATOM      2  C   UNL     1       3.778   6.981  17.300  0.00  0.00    +0.000 A 
ATOM      3  N   UNL     1       2.979   6.958  18.438  0.00  0.00    +0.000 N 
ATOM      4  C   UNL     1       2.191   8.018  18.933  0.00  0.00    +0.000 A 
ATOM      5  N   UNL     1       1.597   8.008  20.106  0.00  0.00    +0.000 NA
ATOM      6  C   UNL     1       0.930   9.219  20.271  0.00  0.00    +0.000 A 
ATOM      7  C   UNL     1       1.014  10.093  19.208  0.00  0.00    +0.000 A 
ATOM      8  S   UNL     1       1.992   9.421  17.982  0.00  0.00    +0.000 S 
ATOM      9  C   UNL     1       3.123   5.685  19.008  0.00  0.00    +0.000 A 
ATOM     10  C   UNL     1       2.489   5.090  20.123  0.00  0.00    +0.000 A 
ATOM     11  C   UNL     1       2.817   3.773  20.457  0.00  0.00    +0.000 A 
ATOM     12 CL   UNL     1       2.028   3.008  21.783  0.00  0.00    +0.000 Cl
ATOM     13  C   UNL     1       3.765   3.063  19.734  0.00  0.00    +0.000 A 
ATOM     14  C   UNL     1       4.410   3.661  18.649  0.00  0.00    +0.000 A 
ATOM     15  C   UNL     1       4.076   4.977  18.259  0.00  0.00    +0.000 A 
ENDROOT
BRANCH   7  16
ATOM     16  C   UNL     1       0.353  11.411  19.150  0.00  0.00    +0.000 C 
ATOM     17  O   UNL     1       1.027  12.409  19.548  0.00  0.00    +0.000 OA
ATOM     18  O   UNL     1      -0.835  11.425  18.705  0.00  0.00    +0.000 OA
ENDBRANCH   7  16
BRANCH   1  19
ATOM     19  C   UNL     1       5.575   5.550  16.188  0.00  0.00    +0.000 C 
BRANCH  19  21
ATOM     20  C   UNL     1       7.068   7.070  17.490  0.00  0.00    +0.000 C 
ATOM     21  C   UNL     1       7.018   5.781  16.665  0.00  0.00    +0.000 C 
ATOM     22  C   UNL     1       7.563   4.622  17.502  0.00  0.00    +0.000 C 
ENDBRANCH  19  21
ENDBRANCH   1  19
TORSDOF 3
ENDMDL
MODEL 3
REMARK VINA RESULT:      -7.5      0.827      1.182
REMARK  Name = 
REMARK  5 active torsions:
REMARK  status: ('A' for Active; 'I' for Inactive)
REMARK    1  A    between atoms: C_1  and  C_2
REMARK    2  A    between atoms: C_2  and  C_3
REMARK    3  A    between atoms: C_2  and  C_4
REMARK    4  A    between atoms: C_4  and  C_5
REMARK    5  A    between atoms: C_11  and  C_12
REMARK                            x       y       z     vdW  Elec       q    Type
REMARK                         _______ _______ _______ _____ _____    ______ ____
ROOT
ATOM      1  C   UNL     1       4.043   6.125  17.467  0.00  0.00    +0.000 A 
ATOM      2  C   UNL     1       3.297   7.222  17.831  0.00  0.00    +0.000 A 
ATOM      3  N   UNL     1       2.619   6.981  19.020  0.00  0.00    +0.000 N 
ATOM      4  C   UNL     1       1.859   7.913  19.758  0.00  0.00    +0.000 A 
ATOM      5  N   UNL     1       1.387   7.688  20.964  0.00  0.00    +0.000 NA
ATOM      6  C   UNL     1       0.710   8.827  21.391  0.00  0.00    +0.000 A 
ATOM      7  C   UNL     1       0.664   9.865  20.485  0.00  0.00    +0.000 A 
ATOM      8  S   UNL     1       1.529   9.443  19.077  0.00  0.00    +0.000 S 
ATOM      9  C   UNL     1       2.852   5.640  19.355  0.00  0.00    +0.000 A 
ATOM     10  C   UNL     1       2.349   4.845  20.411  0.00  0.00    +0.000 A 
ATOM     11  C   UNL     1       2.742   3.507  20.489  0.00  0.00    +0.000 A 
ATOM     12 CL   UNL     1       2.111   2.504  21.740  0.00  0.00    +0.000 Cl
ATOM     13  C   UNL     1       3.629   2.963  19.571  0.00  0.00    +0.000 A 
ATOM     14  C   UNL     1       4.146   3.756  18.544  0.00  0.00    +0.000 A 
ATOM     15  C   UNL     1       3.741   5.103  18.411  0.00  0.00    +0.000 A 
ENDROOT
BRANCH   7  16
ATOM     16  C   UNL     1      -0.033  11.147  20.710  0.00  0.00    +0.000 C 
ATOM     17  O   UNL     1      -0.902  11.486  19.850  0.00  0.00    +0.000 OA
ATOM     18  O   UNL     1       0.302  11.793  21.748  0.00  0.00    +0.000 OA
ENDBRANCH   7  16
BRANCH   1  19
ATOM     19  C   UNL     1       5.007   6.067  16.330  0.00  0.00    +0.000 C 
BRANCH  19  21
ATOM     20  C   UNL     1       5.549   4.380  14.570  0.00  0.00    +0.000 C 
ATOM     21  C   UNL     1       5.646   4.693  16.067  0.00  0.00    +0.000 C 
ATOM     22  C   UNL     1       7.109   4.620  16.506  0.00  0.00    +0.000 C 
ENDBRANCH  19  21
ENDBRANCH   1  19
TORSDOF 3
ENDMDL
MODEL 4
REMARK VINA RESULT:      -7.4      4.576      6.780
REMARK  Name = 
REMARK  5 active torsions:
REMARK  status: ('A' for Active; 'I' for Inactive)
REMARK    1  A    between atoms: C_1  and  C_2
REMARK    2  A    between atoms: C_2  and  C_3
REMARK    3  A    between atoms: C_2  and  C_4
REMARK    4  A    between atoms: C_4  and  C_5
REMARK    5  A    between atoms: C_11  and  C_12
REMARK                            x       y       z     vdW  Elec       q    Type
REMARK                         _______ _______ _______ _____ _____    ______ ____
ROOT
ATOM      1  C   UNL     1       2.481   7.351  18.903  0.00  0.00    +0.000 A 
ATOM      2  C   UNL     1       3.381   7.160  17.880  0.00  0.00    +0.000 A 
ATOM      3  N   UNL     1       3.824   5.842  17.858  0.00  0.00    +0.000 N 
ATOM      4  C   UNL     1       4.652   5.251  16.880  0.00  0.00    +0.000 A 
ATOM      5  N   UNL     1       4.896   3.961  16.804  0.00  0.00    +0.000 NA
ATOM      6  C   UNL     1       5.730   3.734  15.713  0.00  0.00    +0.000 A 
ATOM      7  C   UNL     1       6.115   4.861  15.016  0.00  0.00    +0.000 A 
ATOM      8  S   UNL     1       5.384   6.242  15.699  0.00  0.00    +0.000 S 
ATOM      9  C   UNL     1       3.274   5.210  18.981  0.00  0.00    +0.000 A 
ATOM     10  C   UNL     1       3.449   3.903  19.491  0.00  0.00    +0.000 A 
ATOM     11  C   UNL     1       2.780   3.544  20.664  0.00  0.00    +0.000 A 
ATOM     12 CL   UNL     1       3.010   1.974  21.331  0.00  0.00    +0.000 Cl
ATOM     13  C   UNL     1       1.934   4.436  21.309  0.00  0.00    +0.000 A 
ATOM     14  C   UNL     1       1.740   5.718  20.791  0.00  0.00    +0.000 A 
ATOM     15  C   UNL     1       2.431   6.128  19.628  0.00  0.00    +0.000 A 
ENDROOT
BRANCH   7  16
ATOM     16  C   UNL     1       7.025   4.859  13.854  0.00  0.00    +0.000 C 
ATOM     17  O   UNL     1       8.023   5.642  13.906  0.00  0.00    +0.000 OA
ATOM     18  O   UNL     1       6.726   4.071  12.907  0.00  0.00    +0.000 OA
ENDBRANCH   7  16
BRANCH   1  19
ATOM     19  C   UNL     1       1.691   8.594  19.146  0.00  0.00    +0.000 C 
BRANCH  19  21
ATOM     20  C   UNL     1      -0.087   9.753  17.830  0.00  0.00    +0.000 C 
ATOM     21  C   UNL     1       1.415   9.462  17.906  0.00  0.00    +0.000 C 
ATOM     22  C   UNL     1       2.187  10.782  17.918  0.00  0.00    +0.000 C 
ENDBRANCH  19  21
ENDBRANCH   1  19
TORSDOF 3
ENDMDL
MODEL 5
REMARK VINA RESULT:      -7.4      1.428      1.852
REMARK  Name = 
REMARK  5 active torsions:
REMARK  status: ('A' for Active; 'I' for Inactive)
REMARK    1  A    between atoms: C_1  and  C_2
REMARK    2  A    between atoms: C_2  and  C_3
REMARK    3  A    between atoms: C_2  and  C_4
REMARK    4  A    between atoms: C_4  and  C_5
REMARK    5  A    between atoms: C_11  and  C_12
REMARK                            x       y       z     vdW  Elec       q    Type
REMARK                         _______ _______ _______ _____ _____    ______ ____
ROOT
ATOM      1  C   UNL     1       4.136   4.875  17.154  0.00  0.00    +0.000 A 
ATOM      2  C   UNL     1       3.585   6.131  17.255  0.00  0.00    +0.000 A 
ATOM      3  N   UNL     1       2.863   6.256  18.437  0.00  0.00    +0.000 N 
ATOM      4  C   UNL     1       2.267   7.433  18.936  0.00  0.00    +0.000 A 
ATOM      5  N   UNL     1       1.750   7.543  20.140  0.00  0.00    +0.000 NA
ATOM      6  C   UNL     1       1.274   8.841  20.298  0.00  0.00    +0.000 A 
ATOM      7  C   UNL     1       1.416   9.663  19.199  0.00  0.00    +0.000 A 
ATOM      8  S   UNL     1       2.210   8.823  17.946  0.00  0.00    +0.000 S 
ATOM      9  C   UNL     1       2.860   4.993  19.045  0.00  0.00    +0.000 A 
ATOM     10  C   UNL     1       2.218   4.528  20.216  0.00  0.00    +0.000 A 
ATOM     11  C   UNL     1       2.375   3.188  20.579  0.00  0.00    +0.000 A 
ATOM     12 CL   UNL     1       1.569   2.584  21.976  0.00  0.00    +0.000 Cl
ATOM     13  C   UNL     1       3.166   2.328  19.830  0.00  0.00    +0.000 A 
ATOM     14  C   UNL     1       3.821   2.795  18.689  0.00  0.00    +0.000 A 
ATOM     15  C   UNL     1       3.654   4.134  18.269  0.00  0.00    +0.000 A 
ENDROOT
BRANCH   7  16
ATOM     16  C   UNL     1       0.946  11.061  19.130  0.00  0.00    +0.000 C 
ATOM     17  O   UNL     1      -0.247  11.284  19.501  0.00  0.00    +0.000 OA
ATOM     18  O   UNL     1       1.782  11.914  18.705  0.00  0.00    +0.000 OA
ENDBRANCH   7  16
BRANCH   1  19
ATOM     19  C   UNL     1       5.088   4.425  16.097  0.00  0.00    +0.000 C 
BRANCH  19  21
ATOM     20  C   UNL     1       7.313   4.601  17.217  0.00  0.00    +0.000 C 
ATOM     21  C   UNL     1       6.448   5.142  16.075  0.00  0.00    +0.000 C 
ATOM     22  C   UNL     1       7.193   4.970  14.750  0.00  0.00    +0.000 C 
ENDBRANCH  19  21
ENDBRANCH   1  19
TORSDOF 3
ENDMDL
MODEL 6
REMARK VINA RESULT:      -7.4      4.873      7.322
REMARK  Name = 
REMARK  5 active torsions:
REMARK  status: ('A' for Active; 'I' for Inactive)
REMARK    1  A    between atoms: C_1  and  C_2
REMARK    2  A    between atoms: C_2  and  C_3
REMARK    3  A    between atoms: C_2  and  C_4
REMARK    4  A    between atoms: C_4  and  C_5
REMARK    5  A    between atoms: C_11  and  C_12
REMARK                            x       y       z     vdW  Elec       q    Type
REMARK                         _______ _______ _______ _____ _____    ______ ____
ROOT
ATOM      1  C   UNL     1       2.658   5.072  20.181  0.00  0.00    +0.000 A 
ATOM      2  C   UNL     1       3.422   4.718  19.092  0.00  0.00    +0.000 A 
ATOM      3  N   UNL     1       3.599   5.806  18.243  0.00  0.00    +0.000 N 
ATOM      4  C   UNL     1       4.422   5.853  17.099  0.00  0.00    +0.000 A 
ATOM      5  N   UNL     1       4.695   6.953  16.434  0.00  0.00    +0.000 NA
ATOM      6  C   UNL     1       5.550   6.631  15.383  0.00  0.00    +0.000 A 
ATOM      7  C   UNL     1       5.871   5.295  15.267  0.00  0.00    +0.000 A 
ATOM      8  S   UNL     1       5.136   4.412  16.527  0.00  0.00    +0.000 S 
ATOM      9  C   UNL     1       2.817   6.850  18.755  0.00  0.00    +0.000 A 
ATOM     10  C   UNL     1       2.560   8.149  18.257  0.00  0.00    +0.000 A 
ATOM     11  C   UNL     1       1.707   8.988  18.978  0.00  0.00    +0.000 A 
ATOM     12 CL   UNL     1       1.342  10.558  18.373  0.00  0.00    +0.000 Cl
ATOM     13  C   UNL     1       1.138   8.577  20.176  0.00  0.00    +0.000 A 
ATOM     14  C   UNL     1       1.413   7.304  20.681  0.00  0.00    +0.000 A 
ATOM     15  C   UNL     1       2.241   6.415  19.959  0.00  0.00    +0.000 A 
ENDROOT
BRANCH   7  16
ATOM     16  C   UNL     1       6.725   4.726  14.206  0.00  0.00    +0.000 C 
ATOM     17  O   UNL     1       7.794   5.352  13.932  0.00  0.00    +0.000 OA
ATOM     18  O   UNL     1       6.310   3.657  13.664  0.00  0.00    +0.000 OA
ENDBRANCH   7  16
BRANCH   1  19
ATOM     19  C   UNL     1       2.382   4.210  21.366  0.00  0.00    +0.000 C 
BRANCH  19  21
ATOM     20  C   UNL     1       1.129   2.287  22.350  0.00  0.00    +0.000 C 
ATOM     21  C   UNL     1       1.746   2.843  21.063  0.00  0.00    +0.000 C 
ATOM     22  C   UNL     1       0.674   2.910  19.975  0.00  0.00    +0.000 C 
ENDBRANCH  19  21
ENDBRANCH   1  19
TORSDOF 3
ENDMDL
MODEL 7
REMARK VINA RESULT:      -7.3      4.842      7.259
REMARK  Name = 
REMARK  5 active torsions:
REMARK  status: ('A' for Active; 'I' for Inactive)
REMARK    1  A    between atoms: C_1  and  C_2
REMARK    2  A    between atoms: C_2  and  C_3
REMARK    3  A    between atoms: C_2  and  C_4
REMARK    4  A    between atoms: C_4  and  C_5
REMARK    5  A    between atoms: C_11  and  C_12
REMARK                            x       y       z     vdW  Elec       q    Type
REMARK                         _______ _______ _______ _____ _____    ______ ____
ROOT
ATOM      1  C   UNL     1       2.613   5.243  20.324  0.00  0.00    +0.000 A 
ATOM      2  C   UNL     1       3.369   4.848  19.244  0.00  0.00    +0.000 A 
ATOM      3  N   UNL     1       3.533   5.901  18.350  0.00  0.00    +0.000 N 
ATOM      4  C   UNL     1       4.346   5.905  17.198  0.00  0.00    +0.000 A 
ATOM      5  N   UNL     1       4.608   6.979  16.485  0.00  0.00    +0.000 NA
ATOM      6  C   UNL     1       5.454   6.618  15.441  0.00  0.00    +0.000 A 
ATOM      7  C   UNL     1       5.781   5.280  15.377  0.00  0.00    +0.000 A 
ATOM      8  S   UNL     1       5.062   4.445  16.679  0.00  0.00    +0.000 S 
ATOM      9  C   UNL     1       2.750   6.962  18.826  0.00  0.00    +0.000 A 
ATOM     10  C   UNL     1       2.483   8.238  18.278  0.00  0.00    +0.000 A 
ATOM     11  C   UNL     1       1.631   9.101  18.972  0.00  0.00    +0.000 A 
ATOM     12 CL   UNL     1       1.253  10.644  18.306  0.00  0.00    +0.000 Cl
ATOM     13  C   UNL     1       1.076   8.737  20.190  0.00  0.00    +0.000 A 
ATOM     14  C   UNL     1       1.361   7.487  20.744  0.00  0.00    +0.000 A 
ATOM     15  C   UNL     1       2.187   6.573  20.052  0.00  0.00    +0.000 A 
ENDROOT
BRANCH   7  16
ATOM     16  C   UNL     1       6.628   4.672  14.332  0.00  0.00    +0.000 C 
ATOM     17  O   UNL     1       6.196   3.609  13.789  0.00  0.00    +0.000 OA
ATOM     18  O   UNL     1       7.716   5.270  14.072  0.00  0.00    +0.000 OA
ENDBRANCH   7  16
BRANCH   1  19
ATOM     19  C   UNL     1       2.351   4.428  21.546  0.00  0.00    +0.000 C 
BRANCH  19  21
ATOM     20  C   UNL     1       0.691   3.360  20.017  0.00  0.00    +0.000 C 
ATOM     21  C   UNL     1       1.425   3.216  21.354  0.00  0.00    +0.000 C 
ATOM     22  C   UNL     1       2.173   1.882  21.380  0.00  0.00    +0.000 C 
ENDBRANCH  19  21
ENDBRANCH   1  19
TORSDOF 3
ENDMDL
MODEL 8
REMARK VINA RESULT:      -7.1      4.472      6.975
REMARK  Name = 
REMARK  5 active torsions:
REMARK  status: ('A' for Active; 'I' for Inactive)
REMARK    1  A    between atoms: C_1  and  C_2
REMARK    2  A    between atoms: C_2  and  C_3
REMARK    3  A    between atoms: C_2  and  C_4
REMARK    4  A    between atoms: C_4  and  C_5
REMARK    5  A    between atoms: C_11  and  C_12
REMARK                            x       y       z     vdW  Elec       q    Type
REMARK                         _______ _______ _______ _____ _____    ______ ____
ROOT
ATOM      1  C   UNL     1       2.415   8.331  18.408  0.00  0.00    +0.000 A 
ATOM      2  C   UNL     1       3.334   7.901  17.479  0.00  0.00    +0.000 A 
ATOM      3  N   UNL     1       3.641   6.559  17.678  0.00  0.00    +0.000 N 
ATOM      4  C   UNL     1       4.445   5.750  16.849  0.00  0.00    +0.000 A 
ATOM      5  N   UNL     1       4.560   4.446  16.980  0.00  0.00    +0.000 NA
ATOM      6  C   UNL     1       5.411   3.976  15.984  0.00  0.00    +0.000 A 
ATOM      7  C   UNL     1       5.938   4.941  15.150  0.00  0.00    +0.000 A 
ATOM      8  S   UNL     1       5.323   6.473  15.576  0.00  0.00    +0.000 S 
ATOM      9  C   UNL     1       2.982   6.163  18.850  0.00  0.00    +0.000 A 
ATOM     10  C   UNL     1       3.002   4.939  19.558  0.00  0.00    +0.000 A 
ATOM     11  C   UNL     1       2.251   4.830  20.731  0.00  0.00    +0.000 A 
ATOM     12 CL   UNL     1       2.292   3.366  21.637  0.00  0.00    +0.000 Cl
ATOM     13  C   UNL     1       1.474   5.885  21.187  0.00  0.00    +0.000 A 
ATOM     14  C   UNL     1       1.434   7.085  20.473  0.00  0.00    +0.000 A 
ATOM     15  C   UNL     1       2.211   7.244  19.304  0.00  0.00    +0.000 A 
ENDROOT
BRANCH   7  16
ATOM     16  C   UNL     1       6.891   4.674  14.056  0.00  0.00    +0.000 C 
ATOM     17  O   UNL     1       6.587   3.748  13.243  0.00  0.00    +0.000 OA
ATOM     18  O   UNL     1       7.932   5.399  14.028  0.00  0.00    +0.000 OA
ENDBRANCH   7  16
BRANCH   1  19
ATOM     19  C   UNL     1       1.747   9.665  18.418  0.00  0.00    +0.000 C 
BRANCH  19  21
ATOM     20  C   UNL     1       0.305  10.652  20.201  0.00  0.00    +0.000 C 
ATOM     21  C   UNL     1       0.326   9.695  19.005  0.00  0.00    +0.000 C 
ATOM     22  C   UNL     1      -0.731  10.131  17.989  0.00  0.00    +0.000 C 
ENDBRANCH  19  21
ENDBRANCH   1  19
TORSDOF 3
ENDMDL
MODEL 9
REMARK VINA RESULT:      -7.0      1.385      1.763
REMARK  Name = 
REMARK  5 active torsions:
REMARK  status: ('A' for Active; 'I' for Inactive)
REMARK    1  A    between atoms: C_1  and  C_2
REMARK    2  A    between atoms: C_2  and  C_3
REMARK    3  A    between atoms: C_2  and  C_4
REMARK    4  A    between atoms: C_4  and  C_5
REMARK    5  A    between atoms: C_11  and  C_12
REMARK                            x       y       z     vdW  Elec       q    Type
REMARK                         _______ _______ _______ _____ _____    ______ ____
ROOT
ATOM      1  C   UNL     1       4.786   5.900  17.503  0.00  0.00    +0.000 A 
ATOM      2  C   UNL     1       4.014   7.039  17.504  0.00  0.00    +0.000 A 
ATOM      3  N   UNL     1       3.079   6.996  18.533  0.00  0.00    +0.000 N 
ATOM      4  C   UNL     1       2.205   8.034  18.917  0.00  0.00    +0.000 A 
ATOM      5  N   UNL     1       1.468   8.011  20.006  0.00  0.00    +0.000 NA
ATOM      6  C   UNL     1       0.750   9.202  20.077  0.00  0.00    +0.000 A 
ATOM      7  C   UNL     1       0.942  10.074  19.025  0.00  0.00    +0.000 A 
ATOM      8  S   UNL     1       2.085   9.427  17.938  0.00  0.00    +0.000 S 
ATOM      9  C   UNL     1       3.187   5.730  19.126  0.00  0.00    +0.000 A 
ATOM     10  C   UNL     1       2.436   5.121  20.158  0.00  0.00    +0.000 A 
ATOM     11  C   UNL     1       2.757   3.816  20.540  0.00  0.00    +0.000 A 
ATOM     12 CL   UNL     1       1.830   3.033  21.763  0.00  0.00    +0.000 Cl
ATOM     13  C   UNL     1       3.809   3.132  19.947  0.00  0.00    +0.000 A 
ATOM     14  C   UNL     1       4.568   3.744  18.948  0.00  0.00    +0.000 A 
ATOM     15  C   UNL     1       4.247   5.048  18.508  0.00  0.00    +0.000 A 
ENDROOT
BRANCH   7  16
ATOM     16  C   UNL     1       0.255  11.372  18.875  0.00  0.00    +0.000 C 
ATOM     17  O   UNL     1       0.977  12.413  18.931  0.00  0.00    +0.000 OA
ATOM     18  O   UNL     1      -1.001  11.325  18.702  0.00  0.00    +0.000 OA
ENDBRANCH   7  16
BRANCH   1  19
ATOM     19  C   UNL     1       5.977   5.658  16.639  0.00  0.00    +0.000 C 
BRANCH  19  21
ATOM     20  C   UNL     1       6.902   5.096  14.388  0.00  0.00    +0.000 C 
ATOM     21  C   UNL     1       5.707   4.902  15.326  0.00  0.00    +0.000 C 
ATOM     22  C   UNL     1       5.465   3.407  15.537  0.00  0.00    +0.000 C 
ENDBRANCH  19  21
ENDBRANCH   1  19
TORSDOF 3
ENDMDL
