MODEL 1
REMARK VINA RESULT:      -8.2      0.000      0.000
REMARK  Name = 
REMARK  7 active torsions:
REMARK  status: ('A' for Active; 'I' for Inactive)
REMARK    1  A    between atoms: C_2  and  C_15
REMARK    2  A    between atoms: N_3  and  C_4
REMARK    3  A    between atoms: C_7  and  O_8
REMARK    4  A    between atoms: O_8  and  C_9
REMARK    5  A    between atoms: N_23  and  C_24
REMARK    6  A    between atoms: C_24  and  C_25
REMARK    7  A    between atoms: C_25  and  C_26
REMARK                            x       y       z     vdW  Elec       q    Type
REMARK                         _______ _______ _______ _____ _____    ______ ____
ROOT
ATOM      1  C   UNL     1       5.210   5.409  16.810  0.00  0.00    +0.000 A 
ATOM      2  C   UNL     1       6.345   5.918  16.213  0.00  0.00    +0.000 A 
ATOM      3  C   UNL     1       6.571   5.208  15.015  0.00  0.00    +0.000 A 
ATOM      4  C   UNL     1       7.574   5.312  14.033  0.00  0.00    +0.000 A 
ATOM      5  C   UNL     1       7.472   4.563  12.864  0.00  0.00    +0.000 A 
ATOM      6  C   UNL     1       6.371   3.736  12.667  0.00  0.00    +0.000 A 
ATOM      7  C   UNL     1       5.388   3.575  13.659  0.00  0.00    +0.000 A 
ATOM      8  C   UNL     1       5.522   4.290  14.861  0.00  0.00    +0.000 A 
ATOM      9  N   UNL     1       4.815   4.298  16.052  0.00  0.00    +0.000 N 
ENDROOT
BRANCH   1  11
ATOM     10  O   UNL     1       5.121   5.747  19.135  0.00  0.00    +0.000 OA
ATOM     11  C   UNL     1       4.570   5.852  18.043  0.00  0.00    +0.000 C 
ATOM     12  N   UNL     1       3.286   6.319  17.866  0.00  0.00    +0.000 N 
ATOM     13  H   UNL     1       2.836   6.101  16.996  0.00  0.00    +0.000 HD
BRANCH  12  14
ATOM     14  C   UNL     1       2.500   6.906  18.880  0.00  0.00    +0.000 A 
ATOM     15  C   UNL     1       2.117   6.211  20.025  0.00  0.00    +0.000 A 
ATOM     16  C   UNL     1       1.325   6.826  20.995  0.00  0.00    +0.000 A 
ATOM     17  C   UNL     1       0.927   8.152  20.839  0.00  0.00    +0.000 A 
ATOM     18  C   UNL     1       1.293   8.850  19.690  0.00  0.00    +0.000 A 
ATOM     19  C   UNL     1       2.106   8.234  18.722  0.00  0.00    +0.000 A 
BRANCH  17  20
ATOM     20  O   UNL     1       0.109   8.624  21.819  0.00  0.00    +0.000 OA
BRANCH  20  21
ATOM     21  C   UNL     1       0.610   9.563  22.749  0.00  0.00    +0.000 C 
ATOM     22  F   UNL     1       0.408  10.852  22.408  0.00  0.00    +0.000 F 
ATOM     23  F   UNL     1       0.029   9.341  23.947  0.00  0.00    +0.000 F 
ATOM     24  F   UNL     1       1.942   9.373  22.888  0.00  0.00    +0.000 F 
ENDBRANCH  20  21
ENDBRANCH  17  20
ENDBRANCH  12  14
ENDBRANCH   1  11
BRANCH   9  25
ATOM     25  C   UNL     1       3.814   3.384  16.588  0.00  0.00    +0.000 C 
BRANCH  25  26
ATOM     26  C   UNL     1       3.987   2.506  17.826  0.00  0.00    +0.000 C 
BRANCH  26  27
ATOM     27  C   UNL     1       2.991   2.667  18.941  0.00  0.00    +0.000 A 
ATOM     28  C   UNL     1       1.615   2.760  18.719  0.00  0.00    +0.000 A 
ATOM     29  C   UNL     1       0.766   2.870  19.813  0.00  0.00    +0.000 A 
ATOM     30  N   UNL     1       1.192   2.884  21.096  0.00  0.00    +0.000 NA
ATOM     31  C   UNL     1       2.521   2.767  21.289  0.00  0.00    +0.000 A 
ATOM     32  C   UNL     1       3.442   2.643  20.263  0.00  0.00    +0.000 A 
ENDBRANCH  26  27
ENDBRANCH  25  26
ENDBRANCH   9  25
TORSDOF 7
ENDMDL
MODEL 2
REMARK VINA RESULT:      -8.2      2.550      3.545
REMARK  Name = 
REMARK  7 active torsions:
REMARK  status: ('A' for Active; 'I' for Inactive)
REMARK    1  A    between atoms: C_2  and  C_15
REMARK    2  A    between atoms: N_3  and  C_4
REMARK    3  A    between atoms: C_7  and  O_8
REMARK    4  A    between atoms: O_8  and  C_9
REMARK    5  A    between atoms: N_23  and  C_24
REMARK    6  A    between atoms: C_24  and  C_25
REMARK    7  A    between atoms: C_25  and  C_26
REMARK                            x       y       z     vdW  Elec       q    Type
REMARK                         _______ _______ _______ _____ _____    ______ ____
ROOT
ATOM      1  C   UNL     1       3.480   6.850  18.077  0.00  0.00    +0.000 A 
ATOM      2  C   UNL     1       4.849   7.022  18.089  0.00  0.00    +0.000 A 
ATOM      3  C   UNL     1       5.436   5.942  17.399  0.00  0.00    +0.000 A 
ATOM      4  C   UNL     1       6.778   5.621  17.118  0.00  0.00    +0.000 A 
ATOM      5  C   UNL     1       7.067   4.544  16.283  0.00  0.00    +0.000 A 
ATOM      6  C   UNL     1       6.030   3.811  15.719  0.00  0.00    +0.000 A 
ATOM      7  C   UNL     1       4.686   4.079  16.030  0.00  0.00    +0.000 A 
ATOM      8  C   UNL     1       4.398   5.131  16.917  0.00  0.00    +0.000 A 
ATOM      9  N   UNL     1       3.233   5.597  17.501  0.00  0.00    +0.000 N 
ENDROOT
BRANCH   1  11
ATOM     10  O   UNL     1       2.035   7.593  19.777  0.00  0.00    +0.000 OA
ATOM     11  C   UNL     1       2.460   7.731  18.633  0.00  0.00    +0.000 C 
ATOM     12  N   UNL     1       1.983   8.664  17.739  0.00  0.00    +0.000 N 
ATOM     13  H   UNL     1       2.186   8.511  16.768  0.00  0.00    +0.000 HD
BRANCH  12  14
ATOM     14  C   UNL     1       1.080   9.697  18.064  0.00  0.00    +0.000 A 
ATOM     15  C   UNL     1      -0.297   9.570  17.888  0.00  0.00    +0.000 A 
ATOM     16  C   UNL     1      -1.152  10.624  18.208  0.00  0.00    +0.000 A 
ATOM     17  C   UNL     1      -0.640  11.811  18.729  0.00  0.00    +0.000 A 
ATOM     18  C   UNL     1       0.736  11.953  18.894  0.00  0.00    +0.000 A 
ATOM     19  C   UNL     1       1.595  10.882  18.589  0.00  0.00    +0.000 A 
BRANCH  17  20
ATOM     20  O   UNL     1      -1.563  12.787  18.946  0.00  0.00    +0.000 OA
BRANCH  20  21
ATOM     21  C   UNL     1      -2.380  12.727  20.097  0.00  0.00    +0.000 C 
ATOM     22  F   UNL     1      -1.879  11.978  21.101  0.00  0.00    +0.000 F 
ATOM     23  F   UNL     1      -2.579  13.980  20.556  0.00  0.00    +0.000 F 
ATOM     24  F   UNL     1      -3.583  12.211  19.754  0.00  0.00    +0.000 F 
ENDBRANCH  20  21
ENDBRANCH  17  20
ENDBRANCH  12  14
ENDBRANCH   1  11
BRANCH   9  25
ATOM     25  C   UNL     1       1.902   5.010  17.604  0.00  0.00    +0.000 C 
BRANCH  25  26
ATOM     26  C   UNL     1       1.597   3.568  18.005  0.00  0.00    +0.000 C 
BRANCH  26  27
ATOM     27  C   UNL     1       2.020   3.121  19.378  0.00  0.00    +0.000 A 
ATOM     28  C   UNL     1       3.332   2.752  19.682  0.00  0.00    +0.000 A 
ATOM     29  C   UNL     1       3.639   2.387  20.987  0.00  0.00    +0.000 A 
ATOM     30  N   UNL     1       2.738   2.375  21.995  0.00  0.00    +0.000 NA
ATOM     31  C   UNL     1       1.484   2.758  21.686  0.00  0.00    +0.000 A 
ATOM     32  C   UNL     1       1.087   3.148  20.418  0.00  0.00    +0.000 A 
ENDBRANCH  26  27
ENDBRANCH  25  26
ENDBRANCH   9  25
TORSDOF 7
ENDMDL
MODEL 3
REMARK VINA RESULT:      -8.1      4.380      8.058
REMARK  Name = 
REMARK  7 active torsions:
REMARK  status: ('A' for Active; 'I' for Inactive)
REMARK    1  A    between atoms: C_2  and  C_15
REMARK    2  A    between atoms: N_3  and  C_4
REMARK    3  A    between atoms: C_7  and  O_8
REMARK    4  A    between atoms: O_8  and  C_9
REMARK    5  A    between atoms: N_23  and  C_24
REMARK    6  A    between atoms: C_24  and  C_25
REMARK    7  A    between atoms: C_25  and  C_26
REMARK                            x       y       z     vdW  Elec       q    Type
REMARK                         _______ _______ _______ _____ _____    ______ ____
ROOT
ATOM      1  C   UNL     1       2.509   7.361  19.412  0.00  0.00    +0.000 A 
ATOM      2  C   UNL     1       2.031   8.588  19.001  0.00  0.00    +0.000 A 
ATOM      3  C   UNL     1       1.086   9.034  19.949  0.00  0.00    +0.000 A 
ATOM      4  C   UNL     1       0.303  10.202  20.020  0.00  0.00    +0.000 A 
ATOM      5  C   UNL     1      -0.458  10.450  21.160  0.00  0.00    +0.000 A 
ATOM      6  C   UNL     1      -0.421   9.556  22.223  0.00  0.00    +0.000 A 
ATOM      7  C   UNL     1       0.309   8.357  22.149  0.00  0.00    +0.000 A 
ATOM      8  C   UNL     1       1.032   8.081  20.977  0.00  0.00    +0.000 A 
ATOM      9  N   UNL     1       1.760   6.988  20.537  0.00  0.00    +0.000 N 
ENDROOT
BRANCH   1  11
ATOM     10  O   UNL     1       4.300   5.838  19.424  0.00  0.00    +0.000 OA
ATOM     11  C   UNL     1       3.526   6.534  18.773  0.00  0.00    +0.000 C 
ATOM     12  N   UNL     1       3.573   6.669  17.403  0.00  0.00    +0.000 N 
ATOM     13  H   UNL     1       3.100   7.461  17.005  0.00  0.00    +0.000 HD
BRANCH  12  14
ATOM     14  C   UNL     1       4.388   5.897  16.549  0.00  0.00    +0.000 A 
ATOM     15  C   UNL     1       5.251   6.472  15.618  0.00  0.00    +0.000 A 
ATOM     16  C   UNL     1       6.026   5.669  14.781  0.00  0.00    +0.000 A 
ATOM     17  C   UNL     1       5.963   4.281  14.884  0.00  0.00    +0.000 A 
ATOM     18  C   UNL     1       5.093   3.698  15.802  0.00  0.00    +0.000 A 
ATOM     19  C   UNL     1       4.325   4.508  16.657  0.00  0.00    +0.000 A 
BRANCH  17  20
ATOM     20  O   UNL     1       6.719   3.604  13.977  0.00  0.00    +0.000 OA
BRANCH  20  21
ATOM     21  C   UNL     1       6.293   3.533  12.632  0.00  0.00    +0.000 C 
ATOM     22  F   UNL     1       4.979   3.778  12.447  0.00  0.00    +0.000 F 
ATOM     23  F   UNL     1       7.000   4.423  11.904  0.00  0.00    +0.000 F 
ATOM     24  F   UNL     1       6.557   2.296  12.153  0.00  0.00    +0.000 F 
ENDBRANCH  20  21
ENDBRANCH  17  20
ENDBRANCH  12  14
ENDBRANCH   1  11
BRANCH   9  25
ATOM     25  C   UNL     1       1.839   5.619  21.029  0.00  0.00    +0.000 C 
BRANCH  25  26
ATOM     26  C   UNL     1       1.078   4.424  20.455  0.00  0.00    +0.000 C 
BRANCH  26  27
ATOM     27  C   UNL     1       1.871   3.380  19.719  0.00  0.00    +0.000 A 
ATOM     28  C   UNL     1       1.493   2.884  18.469  0.00  0.00    +0.000 A 
ATOM     29  C   UNL     1       2.308   1.946  17.846  0.00  0.00    +0.000 A 
ATOM     30  N   UNL     1       3.462   1.485  18.376  0.00  0.00    +0.000 NA
ATOM     31  C   UNL     1       3.821   1.994  19.571  0.00  0.00    +0.000 A 
ATOM     32  C   UNL     1       3.081   2.938  20.261  0.00  0.00    +0.000 A 
ENDBRANCH  26  27
ENDBRANCH  25  26
ENDBRANCH   9  25
TORSDOF 7
ENDMDL
MODEL 4
REMARK VINA RESULT:      -8.1      2.499      3.383
REMARK  Name = 
REMARK  7 active torsions:
REMARK  status: ('A' for Active; 'I' for Inactive)
REMARK    1  A    between atoms: C_2  and  C_15
REMARK    2  A    between atoms: N_3  and  C_4
REMARK    3  A    between atoms: C_7  and  O_8
REMARK    4  A    between atoms: O_8  and  C_9
REMARK    5  A    between atoms: N_23  and  C_24
REMARK    6  A    between atoms: C_24  and  C_25
REMARK    7  A    between atoms: C_25  and  C_26
REMARK                            x       y       z     vdW  Elec       q    Type
REMARK                         _______ _______ _______ _____ _____    ______ ____
ROOT
ATOM      1  C   UNL     1       3.518   6.897  17.979  0.00  0.00    +0.000 A 
ATOM      2  C   UNL     1       4.881   7.103  17.926  0.00  0.00    +0.000 A 
ATOM      3  C   UNL     1       5.465   6.023  17.232  0.00  0.00    +0.000 A 
ATOM      4  C   UNL     1       6.801   5.730  16.898  0.00  0.00    +0.000 A 
ATOM      5  C   UNL     1       7.081   4.643  16.073  0.00  0.00    +0.000 A 
ATOM      6  C   UNL     1       6.039   3.872  15.570  0.00  0.00    +0.000 A 
ATOM      7  C   UNL     1       4.704   4.114  15.937  0.00  0.00    +0.000 A 
ATOM      8  C   UNL     1       4.428   5.176  16.814  0.00  0.00    +0.000 A 
ATOM      9  N   UNL     1       3.278   5.625  17.440  0.00  0.00    +0.000 N 
ENDROOT
BRANCH   1  11
ATOM     10  O   UNL     1       2.105   7.616  19.715  0.00  0.00    +0.000 OA
ATOM     11  C   UNL     1       2.501   7.764  18.562  0.00  0.00    +0.000 C 
ATOM     12  N   UNL     1       1.992   8.694  17.683  0.00  0.00    +0.000 N 
ATOM     13  H   UNL     1       2.174   8.547  16.707  0.00  0.00    +0.000 HD
BRANCH  12  14
ATOM     14  C   UNL     1       1.085   9.715  18.034  0.00  0.00    +0.000 A 
ATOM     15  C   UNL     1      -0.292   9.582  17.866  0.00  0.00    +0.000 A 
ATOM     16  C   UNL     1      -1.152  10.625  18.211  0.00  0.00    +0.000 A 
ATOM     17  C   UNL     1      -0.644  11.805  18.749  0.00  0.00    +0.000 A 
ATOM     18  C   UNL     1       0.733  11.953  18.907  0.00  0.00    +0.000 A 
ATOM     19  C   UNL     1       1.597  10.894  18.575  0.00  0.00    +0.000 A 
BRANCH  17  20
ATOM     20  O   UNL     1      -1.571  12.772  18.991  0.00  0.00    +0.000 OA
BRANCH  20  21
ATOM     21  C   UNL     1      -2.164  12.861  20.271  0.00  0.00    +0.000 C 
ATOM     22  F   UNL     1      -3.511  12.807  20.268  0.00  0.00    +0.000 F 
ATOM     23  F   UNL     1      -1.697  11.852  21.037  0.00  0.00    +0.000 F 
ATOM     24  F   UNL     1      -1.794  14.028  20.845  0.00  0.00    +0.000 F 
ENDBRANCH  20  21
ENDBRANCH  17  20
ENDBRANCH  12  14
ENDBRANCH   1  11
BRANCH   9  25
ATOM     25  C   UNL     1       1.969   5.008  17.614  0.00  0.00    +0.000 C 
BRANCH  25  26
ATOM     26  C   UNL     1       1.719   3.558  18.026  0.00  0.00    +0.000 C 
BRANCH  26  27
ATOM     27  C   UNL     1       2.057   3.165  19.438  0.00  0.00    +0.000 A 
ATOM     28  C   UNL     1       1.109   3.143  20.464  0.00  0.00    +0.000 A 
ATOM     29  C   UNL     1       1.504   2.731  21.731  0.00  0.00    +0.000 A 
ATOM     30  N   UNL     1       2.760   2.337  22.035  0.00  0.00    +0.000 NA
ATOM     31  C   UNL     1       3.653   2.342  21.025  0.00  0.00    +0.000 A 
ATOM     32  C   UNL     1       3.351   2.726  19.730  0.00  0.00    +0.000 A 
ENDBRANCH  26  27
ENDBRANCH  25  26
ENDBRANCH   9  25
TORSDOF 7
ENDMDL
MODEL 5
REMARK VINA RESULT:      -8.0      4.144      8.030
REMARK  Name = 
REMARK  7 active torsions:
REMARK  status: ('A' for Active; 'I' for Inactive)
REMARK    1  A    between atoms: C_2  and  C_15
REMARK    2  A    between atoms: N_3  and  C_4
REMARK    3  A    between atoms: C_7  and  O_8
REMARK    4  A    between atoms: O_8  and  C_9
REMARK    5  A    between atoms: N_23  and  C_24
REMARK    6  A    between atoms: C_24  and  C_25
REMARK    7  A    between atoms: C_25  and  C_26
REMARK                            x       y       z     vdW  Elec       q    Type
REMARK                         _______ _______ _______ _____ _____    ______ ____
ROOT
ATOM      1  C   UNL     1       1.706   8.682  19.103  0.00  0.00    +0.000 A 
ATOM      2  C   UNL     1       0.938   9.826  19.047  0.00  0.00    +0.000 A 
ATOM      3  C   UNL     1       0.349  10.026  20.312  0.00  0.00    +0.000 A 
ATOM      4  C   UNL     1      -0.516  11.023  20.803  0.00  0.00    +0.000 A 
ATOM      5  C   UNL     1      -0.838  11.048  22.157  0.00  0.00    +0.000 A 
ATOM      6  C   UNL     1      -0.287  10.104  23.016  0.00  0.00    +0.000 A 
ATOM      7  C   UNL     1       0.532   9.067  22.538  0.00  0.00    +0.000 A 
ATOM      8  C   UNL     1       0.811   9.010  21.162  0.00  0.00    +0.000 A 
ATOM      9  N   UNL     1       1.480   8.102  20.359  0.00  0.00    +0.000 N 
ENDROOT
BRANCH   1  11
ATOM     10  O   UNL     1       2.722   8.678  16.983  0.00  0.00    +0.000 OA
ATOM     11  C   UNL     1       2.530   8.101  18.049  0.00  0.00    +0.000 C 
ATOM     12  N   UNL     1       2.998   6.839  18.341  0.00  0.00    +0.000 N 
ATOM     13  H   UNL     1       2.558   6.353  19.101  0.00  0.00    +0.000 HD
BRANCH  12  14
ATOM     14  C   UNL     1       3.903   6.115  17.538  0.00  0.00    +0.000 A 
ATOM     15  C   UNL     1       5.013   6.709  16.939  0.00  0.00    +0.000 A 
ATOM     16  C   UNL     1       5.873   5.958  16.138  0.00  0.00    +0.000 A 
ATOM     17  C   UNL     1       5.644   4.598  15.945  0.00  0.00    +0.000 A 
ATOM     18  C   UNL     1       4.529   3.998  16.528  0.00  0.00    +0.000 A 
ATOM     19  C   UNL     1       3.673   4.752  17.349  0.00  0.00    +0.000 A 
BRANCH  17  20
ATOM     20  O   UNL     1       6.514   3.984  15.098  0.00  0.00    +0.000 OA
BRANCH  20  21
ATOM     21  C   UNL     1       6.312   4.083  13.703  0.00  0.00    +0.000 C 
ATOM     22  F   UNL     1       5.050   4.391  13.341  0.00  0.00    +0.000 F 
ATOM     23  F   UNL     1       7.141   5.026  13.209  0.00  0.00    +0.000 F 
ATOM     24  F   UNL     1       6.632   2.901  13.128  0.00  0.00    +0.000 F 
ENDBRANCH  20  21
ENDBRANCH  17  20
ENDBRANCH  12  14
ENDBRANCH   1  11
BRANCH   9  25
ATOM     25  C   UNL     1       1.931   6.739  20.610  0.00  0.00    +0.000 C 
BRANCH  25  26
ATOM     26  C   UNL     1       1.024   5.521  20.781  0.00  0.00    +0.000 C 
BRANCH  26  27
ATOM     27  C   UNL     1       1.528   4.198  20.274  0.00  0.00    +0.000 A 
ATOM     28  C   UNL     1       0.826   3.427  19.345  0.00  0.00    +0.000 A 
ATOM     29  C   UNL     1       1.387   2.234  18.906  0.00  0.00    +0.000 A 
ATOM     30  N   UNL     1       2.588   1.771  19.319  0.00  0.00    +0.000 NA
ATOM     31  C   UNL     1       3.260   2.543  20.196  0.00  0.00    +0.000 A 
ATOM     32  C   UNL     1       2.787   3.749  20.682  0.00  0.00    +0.000 A 
ENDBRANCH  26  27
ENDBRANCH  25  26
ENDBRANCH   9  25
TORSDOF 7
ENDMDL
MODEL 6
REMARK VINA RESULT:      -8.0      4.055      8.072
REMARK  Name = 
REMARK  7 active torsions:
REMARK  status: ('A' for Active; 'I' for Inactive)
REMARK    1  A    between atoms: C_2  and  C_15
REMARK    2  A    between atoms: N_3  and  C_4
REMARK    3  A    between atoms: C_7  and  O_8
REMARK    4  A    between atoms: O_8  and  C_9
REMARK    5  A    between atoms: N_23  and  C_24
REMARK    6  A    between atoms: C_24  and  C_25
REMARK    7  A    between atoms: C_25  and  C_26
REMARK                            x       y       z     vdW  Elec       q    Type
REMARK                         _______ _______ _______ _____ _____    ______ ____
ROOT
ATOM      1  C   UNL     1       1.601   8.648  19.236  0.00  0.00    +0.000 A 
ATOM      2  C   UNL     1       0.844   9.799  19.196  0.00  0.00    +0.000 A 
ATOM      3  C   UNL     1       0.264   9.993  20.467  0.00  0.00    +0.000 A 
ATOM      4  C   UNL     1      -0.588  10.994  20.972  0.00  0.00    +0.000 A 
ATOM      5  C   UNL     1      -0.901  11.010  22.329  0.00  0.00    +0.000 A 
ATOM      6  C   UNL     1      -0.352  10.053  23.175  0.00  0.00    +0.000 A 
ATOM      7  C   UNL     1       0.455   9.013  22.682  0.00  0.00    +0.000 A 
ATOM      8  C   UNL     1       0.724   8.966  21.304  0.00  0.00    +0.000 A 
ATOM      9  N   UNL     1       1.379   8.059  20.488  0.00  0.00    +0.000 N 
ENDROOT
BRANCH   1  11
ATOM     10  O   UNL     1       2.406   8.522  17.031  0.00  0.00    +0.000 OA
ATOM     11  C   UNL     1       2.413   8.069  18.172  0.00  0.00    +0.000 C 
ATOM     12  N   UNL     1       3.113   6.946  18.554  0.00  0.00    +0.000 N 
ATOM     13  H   UNL     1       2.834   6.502  19.410  0.00  0.00    +0.000 HD
BRANCH  12  14
ATOM     14  C   UNL     1       4.052   6.273  17.744  0.00  0.00    +0.000 A 
ATOM     15  C   UNL     1       5.256   6.856  17.353  0.00  0.00    +0.000 A 
ATOM     16  C   UNL     1       6.147   6.160  16.536  0.00  0.00    +0.000 A 
ATOM     17  C   UNL     1       5.853   4.863  16.121  0.00  0.00    +0.000 A 
ATOM     18  C   UNL     1       4.645   4.278  16.495  0.00  0.00    +0.000 A 
ATOM     19  C   UNL     1       3.756   4.974  17.333  0.00  0.00    +0.000 A 
BRANCH  17  20
ATOM     20  O   UNL     1       6.769   4.308  15.281  0.00  0.00    +0.000 OA
BRANCH  20  21
ATOM     21  C   UNL     1       6.500   4.263  13.894  0.00  0.00    +0.000 C 
ATOM     22  F   UNL     1       6.569   3.031  13.350  0.00  0.00    +0.000 F 
ATOM     23  F   UNL     1       5.265   4.760  13.673  0.00  0.00    +0.000 F 
ATOM     24  F   UNL     1       7.390   5.053  13.250  0.00  0.00    +0.000 F 
ENDBRANCH  20  21
ENDBRANCH  17  20
ENDBRANCH  12  14
ENDBRANCH   1  11
BRANCH   9  25
ATOM     25  C   UNL     1       1.820   6.689  20.725  0.00  0.00    +0.000 C 
BRANCH  25  26
ATOM     26  C   UNL     1       0.943   5.443  20.611  0.00  0.00    +0.000 C 
BRANCH  26  27
ATOM     27  C   UNL     1       1.584   4.183  20.099  0.00  0.00    +0.000 A 
ATOM     28  C   UNL     1       2.806   3.706  20.579  0.00  0.00    +0.000 A 
ATOM     29  C   UNL     1       3.304   2.513  20.071  0.00  0.00    +0.000 A 
ATOM     30  N   UNL     1       2.670   1.770  19.138  0.00  0.00    +0.000 NA
ATOM     31  C   UNL     1       1.481   2.235  18.707  0.00  0.00    +0.000 A 
ATOM     32  C   UNL     1       0.900   3.407  19.160  0.00  0.00    +0.000 A 
ENDBRANCH  26  27
ENDBRANCH  25  26
ENDBRANCH   9  25
TORSDOF 7
ENDMDL
MODEL 7
REMARK VINA RESULT:      -8.0      4.354      8.090
REMARK  Name = 
REMARK  7 active torsions:
REMARK  status: ('A' for Active; 'I' for Inactive)
REMARK    1  A    between atoms: C_2  and  C_15
REMARK    2  A    between atoms: N_3  and  C_4
REMARK    3  A    between atoms: C_7  and  O_8
REMARK    4  A    between atoms: O_8  and  C_9
REMARK    5  A    between atoms: N_23  and  C_24
REMARK    6  A    between atoms: C_24  and  C_25
REMARK    7  A    between atoms: C_25  and  C_26
REMARK                            x       y       z     vdW  Elec       q    Type
REMARK                         _______ _______ _______ _____ _____    ______ ____
ROOT
ATOM      1  C   UNL     1       2.483   7.425  19.435  0.00  0.00    +0.000 A 
ATOM      2  C   UNL     1       2.003   8.648  19.017  0.00  0.00    +0.000 A 
ATOM      3  C   UNL     1       1.049   9.093  19.956  0.00  0.00    +0.000 A 
ATOM      4  C   UNL     1       0.259  10.257  20.019  0.00  0.00    +0.000 A 
ATOM      5  C   UNL     1      -0.512  10.504  21.152  0.00  0.00    +0.000 A 
ATOM      6  C   UNL     1      -0.478   9.613  22.218  0.00  0.00    +0.000 A 
ATOM      7  C   UNL     1       0.258   8.418  22.152  0.00  0.00    +0.000 A 
ATOM      8  C   UNL     1       0.992   8.142  20.986  0.00  0.00    +0.000 A 
ATOM      9  N   UNL     1       1.728   7.052  20.554  0.00  0.00    +0.000 N 
ENDROOT
BRANCH   1  11
ATOM     10  O   UNL     1       4.316   5.953  19.465  0.00  0.00    +0.000 OA
ATOM     11  C   UNL     1       3.509   6.601  18.806  0.00  0.00    +0.000 C 
ATOM     12  N   UNL     1       3.523   6.684  17.430  0.00  0.00    +0.000 N 
ATOM     13  H   UNL     1       3.020   7.446  17.013  0.00  0.00    +0.000 HD
BRANCH  12  14
ATOM     14  C   UNL     1       4.341   5.901  16.589  0.00  0.00    +0.000 A 
ATOM     15  C   UNL     1       5.215   6.464  15.661  0.00  0.00    +0.000 A 
ATOM     16  C   UNL     1       5.993   5.651  14.837  0.00  0.00    +0.000 A 
ATOM     17  C   UNL     1       5.922   4.264  14.949  0.00  0.00    +0.000 A 
ATOM     18  C   UNL     1       5.040   3.692  15.865  0.00  0.00    +0.000 A 
ATOM     19  C   UNL     1       4.270   4.513  16.707  0.00  0.00    +0.000 A 
BRANCH  17  20
ATOM     20  O   UNL     1       6.681   3.576  14.054  0.00  0.00    +0.000 OA
BRANCH  20  21
ATOM     21  C   UNL     1       6.285   3.529  12.698  0.00  0.00    +0.000 C 
ATOM     22  F   UNL     1       6.487   2.339  12.097  0.00  0.00    +0.000 F 
ATOM     23  F   UNL     1       4.972   3.831  12.618  0.00  0.00    +0.000 F 
ATOM     24  F   UNL     1       6.973   4.467  12.008  0.00  0.00    +0.000 F 
ENDBRANCH  20  21
ENDBRANCH  17  20
ENDBRANCH  12  14
ENDBRANCH   1  11
BRANCH   9  25
ATOM     25  C   UNL     1       1.809   5.684  21.051  0.00  0.00    +0.000 C 
BRANCH  25  26
ATOM     26  C   UNL     1       1.098   4.475  20.444  0.00  0.00    +0.000 C 
BRANCH  26  27
ATOM     27  C   UNL     1       1.942   3.451  19.736  0.00  0.00    +0.000 A 
ATOM     28  C   UNL     1       3.161   2.995  20.242  0.00  0.00    +0.000 A 
ATOM     29  C   UNL     1       3.856   2.020  19.537  0.00  0.00    +0.000 A 
ATOM     30  N   UNL     1       3.416   1.471  18.383  0.00  0.00    +0.000 NA
ATOM     31  C   UNL     1       2.226   1.907  17.925  0.00  0.00    +0.000 A 
ATOM     32  C   UNL     1       1.459   2.867  18.563  0.00  0.00    +0.000 A 
ENDBRANCH  26  27
ENDBRANCH  25  26
ENDBRANCH   9  25
TORSDOF 7
ENDMDL
MODEL 8
REMARK VINA RESULT:      -7.9      2.017      2.918
REMARK  Name = 
REMARK  7 active torsions:
REMARK  status: ('A' for Active; 'I' for Inactive)
REMARK    1  A    between atoms: C_2  and  C_15
REMARK    2  A    between atoms: N_3  and  C_4
REMARK    3  A    between atoms: C_7  and  O_8
REMARK    4  A    between atoms: O_8  and  C_9
REMARK    5  A    between atoms: N_23  and  C_24
REMARK    6  A    between atoms: C_24  and  C_25
REMARK    7  A    between atoms: C_25  and  C_26
REMARK                            x       y       z     vdW  Elec       q    Type
REMARK                         _______ _______ _______ _____ _____    ______ ____
ROOT
ATOM      1  C   UNL     1       3.521   6.203  18.729  0.00  0.00    +0.000 A 
ATOM      2  C   UNL     1       4.884   6.284  18.922  0.00  0.00    +0.000 A 
ATOM      3  C   UNL     1       5.517   5.487  17.946  0.00  0.00    +0.000 A 
ATOM      4  C   UNL     1       6.874   5.212  17.689  0.00  0.00    +0.000 A 
ATOM      5  C   UNL     1       7.225   4.485  16.554  0.00  0.00    +0.000 A 
ATOM      6  C   UNL     1       6.237   4.057  15.675  0.00  0.00    +0.000 A 
ATOM      7  C   UNL     1       4.874   4.272  15.943  0.00  0.00    +0.000 A 
ATOM      8  C   UNL     1       4.518   4.956  17.117  0.00  0.00    +0.000 A 
ATOM      9  N   UNL     1       3.308   5.249  17.724  0.00  0.00    +0.000 N 
ENDROOT
BRANCH   1  11
ATOM     10  O   UNL     1       1.884   6.353  20.410  0.00  0.00    +0.000 OA
ATOM     11  C   UNL     1       2.467   6.885  19.470  0.00  0.00    +0.000 C 
ATOM     12  N   UNL     1       2.151   8.130  18.971  0.00  0.00    +0.000 N 
ATOM     13  H   UNL     1       2.480   8.348  18.047  0.00  0.00    +0.000 HD
BRANCH  12  14
ATOM     14  C   UNL     1       1.251   9.031  19.575  0.00  0.00    +0.000 A 
ATOM     15  C   UNL     1       1.016   9.046  20.949  0.00  0.00    +0.000 A 
ATOM     16  C   UNL     1       0.103   9.943  21.502  0.00  0.00    +0.000 A 
ATOM     17  C   UNL     1      -0.569  10.852  20.688  0.00  0.00    +0.000 A 
ATOM     18  C   UNL     1      -0.352  10.835  19.312  0.00  0.00    +0.000 A 
ATOM     19  C   UNL     1       0.582   9.942  18.758  0.00  0.00    +0.000 A 
BRANCH  17  20
ATOM     20  O   UNL     1      -1.477  11.636  21.331  0.00  0.00    +0.000 OA
BRANCH  20  21
ATOM     21  C   UNL     1      -1.026  12.735  22.098  0.00  0.00    +0.000 C 
ATOM     22  F   UNL     1       0.238  13.122  21.832  0.00  0.00    +0.000 F 
ATOM     23  F   UNL     1      -1.849  13.782  21.882  0.00  0.00    +0.000 F 
ATOM     24  F   UNL     1      -1.096  12.411  23.410  0.00  0.00    +0.000 F 
ENDBRANCH  20  21
ENDBRANCH  17  20
ENDBRANCH  12  14
ENDBRANCH   1  11
BRANCH   9  25
ATOM     25  C   UNL     1       1.963   4.739  17.492  0.00  0.00    +0.000 C 
BRANCH  25  26
ATOM     26  C   UNL     1       1.376   3.471  18.111  0.00  0.00    +0.000 C 
BRANCH  26  27
ATOM     27  C   UNL     1       1.832   3.093  19.494  0.00  0.00    +0.000 A 
ATOM     28  C   UNL     1       0.975   3.082  20.596  0.00  0.00    +0.000 A 
ATOM     29  C   UNL     1       1.476   2.684  21.830  0.00  0.00    +0.000 A 
ATOM     30  N   UNL     1       2.754   2.294  22.030  0.00  0.00    +0.000 NA
ATOM     31  C   UNL     1       3.558   2.288  20.949  0.00  0.00    +0.000 A 
ATOM     32  C   UNL     1       3.146   2.657  19.680  0.00  0.00    +0.000 A 
ENDBRANCH  26  27
ENDBRANCH  25  26
ENDBRANCH   9  25
TORSDOF 7
ENDMDL
MODEL 9
REMARK VINA RESULT:      -7.9      1.952      2.906
REMARK  Name = 
REMARK  7 active torsions:
REMARK  status: ('A' for Active; 'I' for Inactive)
REMARK    1  A    between atoms: C_2  and  C_15
REMARK    2  A    between atoms: N_3  and  C_4
REMARK    3  A    between atoms: C_7  and  O_8
REMARK    4  A    between atoms: O_8  and  C_9
REMARK    5  A    between atoms: N_23  and  C_24
REMARK    6  A    between atoms: C_24  and  C_25
REMARK    7  A    between atoms: C_25  and  C_26
REMARK                            x       y       z     vdW  Elec       q    Type
REMARK                         _______ _______ _______ _____ _____    ______ ____
ROOT
ATOM      1  C   UNL     1       3.557   6.093  18.767  0.00  0.00    +0.000 A 
ATOM      2  C   UNL     1       4.929   6.184  18.877  0.00  0.00    +0.000 A 
ATOM      3  C   UNL     1       5.508   5.459  17.815  0.00  0.00    +0.000 A 
ATOM      4  C   UNL     1       6.848   5.223  17.454  0.00  0.00    +0.000 A 
ATOM      5  C   UNL     1       7.134   4.574  16.256  0.00  0.00    +0.000 A 
ATOM      6  C   UNL     1       6.096   4.185  15.417  0.00  0.00    +0.000 A 
ATOM      7  C   UNL     1       4.750   4.360  15.784  0.00  0.00    +0.000 A 
ATOM      8  C   UNL     1       4.463   4.965  17.020  0.00  0.00    +0.000 A 
ATOM      9  N   UNL     1       3.292   5.200  17.720  0.00  0.00    +0.000 N 
ENDROOT
BRANCH   1  11
ATOM     10  O   UNL     1       2.030   6.111  20.555  0.00  0.00    +0.000 OA
ATOM     11  C   UNL     1       2.545   6.711  19.616  0.00  0.00    +0.000 C 
ATOM     12  N   UNL     1       2.185   7.980  19.218  0.00  0.00    +0.000 N 
ATOM     13  H   UNL     1       2.451   8.261  18.292  0.00  0.00    +0.000 HD
BRANCH  12  14
ATOM     14  C   UNL     1       1.315   8.827  19.936  0.00  0.00    +0.000 A 
ATOM     15  C   UNL     1       1.202   8.781  21.324  0.00  0.00    +0.000 A 
ATOM     16  C   UNL     1       0.316   9.626  21.991  0.00  0.00    +0.000 A 
ATOM     17  C   UNL     1      -0.453  10.543  21.276  0.00  0.00    +0.000 A 
ATOM     18  C   UNL     1      -0.358  10.586  19.887  0.00  0.00    +0.000 A 
ATOM     19  C   UNL     1       0.550   9.746  19.218  0.00  0.00    +0.000 A 
BRANCH  17  20
ATOM     20  O   UNL     1      -1.323  11.271  22.027  0.00  0.00    +0.000 OA
BRANCH  20  21
ATOM     21  C   UNL     1      -1.063  12.641  22.259  0.00  0.00    +0.000 C 
ATOM     22  F   UNL     1      -1.411  13.078  23.486  0.00  0.00    +0.000 F 
ATOM     23  F   UNL     1       0.255  12.869  22.082  0.00  0.00    +0.000 F 
ATOM     24  F   UNL     1      -1.741  13.376  21.347  0.00  0.00    +0.000 F 
ENDBRANCH  20  21
ENDBRANCH  17  20
ENDBRANCH  12  14
ENDBRANCH   1  11
BRANCH   9  25
ATOM     25  C   UNL     1       1.941   4.682  17.544  0.00  0.00    +0.000 C 
BRANCH  25  26
ATOM     26  C   UNL     1       1.419   3.358  18.098  0.00  0.00    +0.000 C 
BRANCH  26  27
ATOM     27  C   UNL     1       1.880   2.944  19.468  0.00  0.00    +0.000 A 
ATOM     28  C   UNL     1       3.201   2.582  19.744  0.00  0.00    +0.000 A 
ATOM     29  C   UNL     1       3.544   2.249  21.049  0.00  0.00    +0.000 A 
ATOM     30  N   UNL     1       2.673   2.261  22.081  0.00  0.00    +0.000 NA
ATOM     31  C   UNL     1       1.410   2.636  21.798  0.00  0.00    +0.000 A 
ATOM     32  C   UNL     1       0.977   2.995  20.533  0.00  0.00    +0.000 A 
ENDBRANCH  26  27
ENDBRANCH  25  26
ENDBRANCH   9  25
TORSDOF 7
ENDMDL
