MODEL 1
REMARK VINA RESULT:      -7.0      0.000      0.000
REMARK  Name = 
REMARK  8 active torsions:
REMARK  status: ('A' for Active; 'I' for Inactive)
REMARK    1  A    between atoms: C_1  and  O_2
REMARK    2  A    between atoms: O_2  and  C_3
REMARK    3  A    between atoms: C_7  and  C_8
REMARK    4  A    between atoms: C_8  and  S_9
REMARK    5  A    between atoms: S_9  and  N_12
REMARK    6  A    between atoms: N_12  and  C_13
REMARK    7  A    between atoms: C_13  and  C_14
REMARK    8  A    between atoms: C_14  and  N_15
REMARK                            x       y       z     vdW  Elec       q    Type
REMARK                         _______ _______ _______ _____ _____    ______ ____
ROOT
ATOM      1  C   UNL     1       3.509   3.462  18.393  0.00  0.00    +0.000 C 
ENDROOT
BRANCH   1   6
ATOM      2  C   UNL     1       6.748   4.659  14.365  0.00  0.00    +0.000 A 
ATOM      3  C   UNL     1       5.525   3.993  14.444  0.00  0.00    +0.000 A 
ATOM      4  C   UNL     1       4.894   3.781  15.680  0.00  0.00    +0.000 A 
ATOM      5  C   UNL     1       5.475   4.237  16.868  0.00  0.00    +0.000 A 
ATOM      6  C   UNL     1       4.873   4.082  18.204  0.00  0.00    +0.000 A 
ATOM      7  C   UNL     1       5.561   4.542  19.262  0.00  0.00    +0.000 A 
ATOM      8  C   UNL     1       6.863   5.219  19.162  0.00  0.00    +0.000 A 
ATOM      9  O   UNL     1       7.444   5.607  20.170  0.00  0.00    +0.000 OA
ATOM     10  O   UNL     1       7.378   5.389  17.893  0.00  0.00    +0.000 OA
ATOM     11  C   UNL     1       6.701   4.898  16.761  0.00  0.00    +0.000 A 
ATOM     12  C   UNL     1       7.339   5.117  15.536  0.00  0.00    +0.000 A 
BRANCH   2  14
ATOM     13  C   UNL     1       6.812   3.853  12.134  0.00  0.00    +0.000 C 
ATOM     14  O   UNL     1       7.255   4.798  13.104  0.00  0.00    +0.000 OA
ENDBRANCH   2  14
ENDBRANCH   1   6
BRANCH   1  15
ATOM     15  S   UNL     1       2.290   4.772  18.158  0.00  0.00    +0.000 S 
ATOM     16  O   UNL     1       2.974   6.005  17.845  0.00  0.00    +0.000 OA
ATOM     17  O   UNL     1       1.225   4.258  17.328  0.00  0.00    +0.000 OA
BRANCH  15  18
ATOM     18  N   UNL     1       1.650   4.991  19.722  0.00  0.00    +0.000 NA
ATOM     19  H   UNL     1       1.803   4.156  20.292  0.00  0.00    +0.000 HD
BRANCH  18  20
ATOM     20  C   UNL     1       2.213   6.181  20.457  0.00  0.00    +0.000 C 
BRANCH  20  21
ATOM     21  C   UNL     1       1.156   7.258  20.772  0.00  0.00    +0.000 C 
BRANCH  21  22
ATOM     22  N   UNL     1       1.649   8.644  20.924  0.00  0.00    +0.000 NA
ATOM     23  C   UNL     1       1.380   9.106  22.316  0.00  0.00    +0.000 C 
ATOM     24  C   UNL     1      -0.110   9.379  22.625  0.00  0.00    +0.000 C 
ATOM     25  O   UNL     1      -0.689  10.291  21.682  0.00  0.00    +0.000 OA
ATOM     26  C   UNL     1      -0.524   9.816  20.341  0.00  0.00    +0.000 C 
ATOM     27  C   UNL     1       0.965   9.602  20.020  0.00  0.00    +0.000 C 
ENDBRANCH  21  22
ENDBRANCH  20  21
ENDBRANCH  18  20
ENDBRANCH  15  18
ENDBRANCH   1  15
TORSDOF 7
ENDMDL
MODEL 2
REMARK VINA RESULT:      -6.9      3.433      9.033
REMARK  Name = 
REMARK  8 active torsions:
REMARK  status: ('A' for Active; 'I' for Inactive)
REMARK    1  A    between atoms: C_1  and  O_2
REMARK    2  A    between atoms: O_2  and  C_3
REMARK    3  A    between atoms: C_7  and  C_8
REMARK    4  A    between atoms: C_8  and  S_9
REMARK    5  A    between atoms: S_9  and  N_12
REMARK    6  A    between atoms: N_12  and  C_13
REMARK    7  A    between atoms: C_13  and  C_14
REMARK    8  A    between atoms: C_14  and  N_15
REMARK                            x       y       z     vdW  Elec       q    Type
REMARK                         _______ _______ _______ _____ _____    ______ ____
ROOT
ATOM      1  C   UNL     1       0.959  10.119  20.150  0.00  0.00    +0.000 C 
ENDROOT
BRANCH   1   6
ATOM      2  C   UNL     1      -3.204  10.734  16.919  0.00  0.00    +0.000 A 
ATOM      3  C   UNL     1      -2.009  10.022  16.815  0.00  0.00    +0.000 A 
ATOM      4  C   UNL     1      -1.046  10.070  17.835  0.00  0.00    +0.000 A 
ATOM      5  C   UNL     1      -1.261  10.835  18.986  0.00  0.00    +0.000 A 
ATOM      6  C   UNL     1      -0.319  10.924  20.116  0.00  0.00    +0.000 A 
ATOM      7  C   UNL     1      -0.643  11.723  21.145  0.00  0.00    +0.000 A 
ATOM      8  C   UNL     1      -1.896  12.489  21.226  0.00  0.00    +0.000 A 
ATOM      9  O   UNL     1      -2.127  13.210  22.191  0.00  0.00    +0.000 OA
ATOM     10  O   UNL     1      -2.778  12.348  20.173  0.00  0.00    +0.000 OA
ATOM     11  C   UNL     1      -2.463  11.541  19.064  0.00  0.00    +0.000 A 
ATOM     12  C   UNL     1      -3.431  11.499  18.055  0.00  0.00    +0.000 A 
BRANCH   2  14
ATOM     13  C   UNL     1      -3.466  10.224  14.616  0.00  0.00    +0.000 C 
ATOM     14  O   UNL     1      -4.054  10.602  15.857  0.00  0.00    +0.000 OA
ENDBRANCH   2  14
ENDBRANCH   1   6
BRANCH   1  15
ATOM     15  S   UNL     1       0.785   8.894  21.465  0.00  0.00    +0.000 S 
ATOM     16  O   UNL     1       1.440   9.382  22.656  0.00  0.00    +0.000 OA
ATOM     17  O   UNL     1      -0.586   8.438  21.480  0.00  0.00    +0.000 OA
BRANCH  15  18
ATOM     18  N   UNL     1       1.743   7.597  20.916  0.00  0.00    +0.000 NA
ATOM     19  H   UNL     1       1.247   6.711  21.031  0.00  0.00    +0.000 HD
BRANCH  18  20
ATOM     20  C   UNL     1       2.177   7.718  19.476  0.00  0.00    +0.000 C 
BRANCH  20  21
ATOM     21  C   UNL     1       2.316   6.357  18.766  0.00  0.00    +0.000 C 
BRANCH  21  22
ATOM     22  N   UNL     1       3.608   5.656  18.930  0.00  0.00    +0.000 NA
ATOM     23  C   UNL     1       3.967   4.990  17.644  0.00  0.00    +0.000 C 
ATOM     24  C   UNL     1       3.102   3.758  17.296  0.00  0.00    +0.000 C 
ATOM     25  O   UNL     1       3.092   2.798  18.362  0.00  0.00    +0.000 OA
ATOM     26  C   UNL     1       2.657   3.398  19.588  0.00  0.00    +0.000 C 
ATOM     27  C   UNL     1       3.557   4.588  19.959  0.00  0.00    +0.000 C 
ENDBRANCH  21  22
ENDBRANCH  20  21
ENDBRANCH  18  20
ENDBRANCH  15  18
ENDBRANCH   1  15
TORSDOF 7
ENDMDL
MODEL 3
REMARK VINA RESULT:      -6.8      2.471      3.968
REMARK  Name = 
REMARK  8 active torsions:
REMARK  status: ('A' for Active; 'I' for Inactive)
REMARK    1  A    between atoms: C_1  and  O_2
REMARK    2  A    between atoms: O_2  and  C_3
REMARK    3  A    between atoms: C_7  and  C_8
REMARK    4  A    between atoms: C_8  and  S_9
REMARK    5  A    between atoms: S_9  and  N_12
REMARK    6  A    between atoms: N_12  and  C_13
REMARK    7  A    between atoms: C_13  and  C_14
REMARK    8  A    between atoms: C_14  and  N_15
REMARK                            x       y       z     vdW  Elec       q    Type
REMARK                         _______ _______ _______ _____ _____    ______ ____
ROOT
ATOM      1  C   UNL     1       4.416   5.452  18.901  0.00  0.00    +0.000 C 
ENDROOT
BRANCH   1   6
ATOM      2  C   UNL     1       6.212   4.028  14.116  0.00  0.00    +0.000 A 
ATOM      3  C   UNL     1       5.171   3.568  14.923  0.00  0.00    +0.000 A 
ATOM      4  C   UNL     1       4.942   4.121  16.193  0.00  0.00    +0.000 A 
ATOM      5  C   UNL     1       5.752   5.151  16.683  0.00  0.00    +0.000 A 
ATOM      6  C   UNL     1       5.569   5.806  17.990  0.00  0.00    +0.000 A 
ATOM      7  C   UNL     1       6.443   6.762  18.343  0.00  0.00    +0.000 A 
ATOM      8  C   UNL     1       7.552   7.215  17.491  0.00  0.00    +0.000 A 
ATOM      9  O   UNL     1       8.322   8.087  17.878  0.00  0.00    +0.000 OA
ATOM     10  O   UNL     1       7.669   6.614  16.253  0.00  0.00    +0.000 OA
ATOM     11  C   UNL     1       6.788   5.590  15.856  0.00  0.00    +0.000 A 
ATOM     12  C   UNL     1       7.026   5.049  14.589  0.00  0.00    +0.000 A 
BRANCH   2  14
ATOM     13  C   UNL     1       7.143   4.052  11.933  0.00  0.00    +0.000 C 
ATOM     14  O   UNL     1       6.327   3.405  12.905  0.00  0.00    +0.000 OA
ENDBRANCH   2  14
ENDBRANCH   1   6
BRANCH   1  15
ATOM     15  S   UNL     1       3.021   6.494  18.426  0.00  0.00    +0.000 S 
ATOM     16  O   UNL     1       3.521   7.723  17.854  0.00  0.00    +0.000 OA
ATOM     17  O   UNL     1       2.053   5.671  17.739  0.00  0.00    +0.000 OA
BRANCH  15  18
ATOM     18  N   UNL     1       2.338   6.933  19.924  0.00  0.00    +0.000 NA
ATOM     19  H   UNL     1       1.785   7.787  19.830  0.00  0.00    +0.000 HD
BRANCH  18  20
ATOM     20  C   UNL     1       1.468   5.866  20.540  0.00  0.00    +0.000 C 
BRANCH  20  21
ATOM     21  C   UNL     1       2.273   4.741  21.219  0.00  0.00    +0.000 C 
BRANCH  21  22
ATOM     22  N   UNL     1       1.632   3.409  21.272  0.00  0.00    +0.000 NA
ATOM     23  C   UNL     1       2.673   2.379  21.553  0.00  0.00    +0.000 C 
ATOM     24  C   UNL     1       3.637   2.101  20.377  0.00  0.00    +0.000 C 
ATOM     25  O   UNL     1       2.927   1.769  19.176  0.00  0.00    +0.000 OA
ATOM     26  C   UNL     1       1.986   2.795  18.836  0.00  0.00    +0.000 C 
ATOM     27  C   UNL     1       0.994   3.026  19.987  0.00  0.00    +0.000 C 
ENDBRANCH  21  22
ENDBRANCH  20  21
ENDBRANCH  18  20
ENDBRANCH  15  18
ENDBRANCH   1  15
TORSDOF 7
ENDMDL
MODEL 4
REMARK VINA RESULT:      -6.8      4.623      7.077
REMARK  Name = 
REMARK  8 active torsions:
REMARK  status: ('A' for Active; 'I' for Inactive)
REMARK    1  A    between atoms: C_1  and  O_2
REMARK    2  A    between atoms: O_2  and  C_3
REMARK    3  A    between atoms: C_7  and  C_8
REMARK    4  A    between atoms: C_8  and  S_9
REMARK    5  A    between atoms: S_9  and  N_12
REMARK    6  A    between atoms: N_12  and  C_13
REMARK    7  A    between atoms: C_13  and  C_14
REMARK    8  A    between atoms: C_14  and  N_15
REMARK                            x       y       z     vdW  Elec       q    Type
REMARK                         _______ _______ _______ _____ _____    ______ ____
ROOT
ATOM      1  C   UNL     1       5.109   6.461  16.114  0.00  0.00    +0.000 C 
ENDROOT
BRANCH   1   6
ATOM      2  C   UNL     1       2.350   3.469  19.517  0.00  0.00    +0.000 A 
ATOM      3  C   UNL     1       3.308   3.177  18.545  0.00  0.00    +0.000 A 
ATOM      4  C   UNL     1       3.858   4.190  17.744  0.00  0.00    +0.000 A 
ATOM      5  C   UNL     1       3.459   5.522  17.900  0.00  0.00    +0.000 A 
ATOM      6  C   UNL     1       4.001   6.651  17.122  0.00  0.00    +0.000 A 
ATOM      7  C   UNL     1       3.501   7.875  17.358  0.00  0.00    +0.000 A 
ATOM      8  C   UNL     1       2.470   8.160  18.368  0.00  0.00    +0.000 A 
ATOM      9  O   UNL     1       2.049   9.301  18.527  0.00  0.00    +0.000 OA
ATOM     10  O   UNL     1       2.017   7.089  19.111  0.00  0.00    +0.000 OA
ATOM     11  C   UNL     1       2.497   5.786  18.877  0.00  0.00    +0.000 A 
ATOM     12  C   UNL     1       1.943   4.786  19.683  0.00  0.00    +0.000 A 
BRANCH   2  14
ATOM     13  C   UNL     1       1.657   2.603  21.615  0.00  0.00    +0.000 C 
ATOM     14  O   UNL     1       1.895   2.393  20.227  0.00  0.00    +0.000 OA
ENDBRANCH   2  14
ENDBRANCH   1   6
BRANCH   1  15
ATOM     15  S   UNL     1       6.671   6.546  17.015  0.00  0.00    +0.000 S 
ATOM     16  O   UNL     1       6.446   6.158  18.389  0.00  0.00    +0.000 OA
ATOM     17  O   UNL     1       7.696   5.928  16.206  0.00  0.00    +0.000 OA
BRANCH  15  18
ATOM     18  N   UNL     1       7.002   8.216  17.061  0.00  0.00    +0.000 NA
ATOM     19  H   UNL     1       6.175   8.738  17.359  0.00  0.00    +0.000 HD
BRANCH  18  20
ATOM     20  C   UNL     1       8.153   8.591  17.961  0.00  0.00    +0.000 C 
BRANCH  20  21
ATOM     21  C   UNL     1       8.226  10.103  18.257  0.00  0.00    +0.000 C 
BRANCH  21  22
ATOM     22  N   UNL     1       9.578  10.700  18.311  0.00  0.00    +0.000 NA
ATOM     23  C   UNL     1      10.008  10.802  19.735  0.00  0.00    +0.000 C 
ATOM     24  C   UNL     1       9.268  11.884  20.554  0.00  0.00    +0.000 C 
ATOM     25  O   UNL     1       9.343  13.170  19.924  0.00  0.00    +0.000 OA
ATOM     26  C   UNL     1       8.843  13.113  18.582  0.00  0.00    +0.000 C 
ATOM     27  C   UNL     1       9.623  12.076  17.756  0.00  0.00    +0.000 C 
ENDBRANCH  21  22
ENDBRANCH  20  21
ENDBRANCH  18  20
ENDBRANCH  15  18
ENDBRANCH   1  15
TORSDOF 7
ENDMDL
MODEL 5
REMARK VINA RESULT:      -6.8      4.402      7.221
REMARK  Name = 
REMARK  8 active torsions:
REMARK  status: ('A' for Active; 'I' for Inactive)
REMARK    1  A    between atoms: C_1  and  O_2
REMARK    2  A    between atoms: O_2  and  C_3
REMARK    3  A    between atoms: C_7  and  C_8
REMARK    4  A    between atoms: C_8  and  S_9
REMARK    5  A    between atoms: S_9  and  N_12
REMARK    6  A    between atoms: N_12  and  C_13
REMARK    7  A    between atoms: C_13  and  C_14
REMARK    8  A    between atoms: C_14  and  N_15
REMARK                            x       y       z     vdW  Elec       q    Type
REMARK                         _______ _______ _______ _____ _____    ______ ____
ROOT
ATOM      1  C   UNL     1       5.697   5.961  16.282  0.00  0.00    +0.000 C 
ENDROOT
BRANCH   1   6
ATOM      2  C   UNL     1       2.389   3.314  19.475  0.00  0.00    +0.000 A 
ATOM      3  C   UNL     1       3.468   2.925  18.680  0.00  0.00    +0.000 A 
ATOM      4  C   UNL     1       4.157   3.858  17.889  0.00  0.00    +0.000 A 
ATOM      5  C   UNL     1       3.781   5.205  17.878  0.00  0.00    +0.000 A 
ATOM      6  C   UNL     1       4.462   6.255  17.100  0.00  0.00    +0.000 A 
ATOM      7  C   UNL     1       3.970   7.503  17.163  0.00  0.00    +0.000 A 
ATOM      8  C   UNL     1       2.815   7.890  17.985  0.00  0.00    +0.000 A 
ATOM      9  O   UNL     1       2.411   9.048  17.990  0.00  0.00    +0.000 OA
ATOM     10  O   UNL     1       2.228   6.893  18.739  0.00  0.00    +0.000 OA
ATOM     11  C   UNL     1       2.697   5.567  18.681  0.00  0.00    +0.000 A 
ATOM     12  C   UNL     1       2.003   4.648  19.475  0.00  0.00    +0.000 A 
BRANCH   2  14
ATOM     13  C   UNL     1       1.500   2.599  21.556  0.00  0.00    +0.000 C 
ATOM     14  O   UNL     1       1.806   2.310  20.195  0.00  0.00    +0.000 OA
ENDBRANCH   2  14
ENDBRANCH   1   6
BRANCH   1  15
ATOM     15  S   UNL     1       7.105   5.992  17.411  0.00  0.00    +0.000 S 
ATOM     16  O   UNL     1       6.632   6.257  18.750  0.00  0.00    +0.000 OA
ATOM     17  O   UNL     1       7.953   4.862  17.110  0.00  0.00    +0.000 OA
BRANCH  15  18
ATOM     18  N   UNL     1       7.949   7.395  16.940  0.00  0.00    +0.000 NA
ATOM     19  H   UNL     1       7.801   7.586  15.946  0.00  0.00    +0.000 HD
BRANCH  18  20
ATOM     20  C   UNL     1       7.576   8.630  17.723  0.00  0.00    +0.000 C 
BRANCH  20  21
ATOM     21  C   UNL     1       8.792   9.346  18.344  0.00  0.00    +0.000 C 
BRANCH  21  22
ATOM     22  N   UNL     1       8.771  10.825  18.320  0.00  0.00    +0.000 NA
ATOM     23  C   UNL     1      10.072  11.321  17.786  0.00  0.00    +0.000 C 
ATOM     24  C   UNL     1      11.270  11.144  18.746  0.00  0.00    +0.000 C 
ATOM     25  O   UNL     1      11.010  11.726  20.031  0.00  0.00    +0.000 OA
ATOM     26  C   UNL     1       9.812  11.190  20.604  0.00  0.00    +0.000 C 
ATOM     27  C   UNL     1       8.613  11.421  19.670  0.00  0.00    +0.000 C 
ENDBRANCH  21  22
ENDBRANCH  20  21
ENDBRANCH  18  20
ENDBRANCH  15  18
ENDBRANCH   1  15
TORSDOF 7
ENDMDL
MODEL 6
REMARK VINA RESULT:      -6.8      3.459      9.289
REMARK  Name = 
REMARK  8 active torsions:
REMARK  status: ('A' for Active; 'I' for Inactive)
REMARK    1  A    between atoms: C_1  and  O_2
REMARK    2  A    between atoms: O_2  and  C_3
REMARK    3  A    between atoms: C_7  and  C_8
REMARK    4  A    between atoms: C_8  and  S_9
REMARK    5  A    between atoms: S_9  and  N_12
REMARK    6  A    between atoms: N_12  and  C_13
REMARK    7  A    between atoms: C_13  and  C_14
REMARK    8  A    between atoms: C_14  and  N_15
REMARK                            x       y       z     vdW  Elec       q    Type
REMARK                         _______ _______ _______ _____ _____    ______ ____
ROOT
ATOM      1  C   UNL     1       0.995   9.760  19.962  0.00  0.00    +0.000 C 
ENDROOT
BRANCH   1   6
ATOM      2  C   UNL     1      -3.652  11.119  17.791  0.00  0.00    +0.000 A 
ATOM      3  C   UNL     1      -2.716  10.125  17.504  0.00  0.00    +0.000 A 
ATOM      4  C   UNL     1      -1.525  10.018  18.240  0.00  0.00    +0.000 A 
ATOM      5  C   UNL     1      -1.246  10.906  19.284  0.00  0.00    +0.000 A 
ATOM      6  C   UNL     1      -0.036  10.852  20.124  0.00  0.00    +0.000 A 
ATOM      7  C   UNL     1       0.114  11.791  21.072  0.00  0.00    +0.000 A 
ATOM      8  C   UNL     1      -0.871  12.848  21.343  0.00  0.00    +0.000 A 
ATOM      9  O   UNL     1      -0.668  13.682  22.220  0.00  0.00    +0.000 OA
ATOM     10  O   UNL     1      -2.015  12.844  20.571  0.00  0.00    +0.000 OA
ATOM     11  C   UNL     1      -2.198  11.893  19.549  0.00  0.00    +0.000 A 
ATOM     12  C   UNL     1      -3.389  12.009  18.825  0.00  0.00    +0.000 A 
BRANCH   2  14
ATOM     13  C   UNL     1      -5.649  12.224  17.139  0.00  0.00    +0.000 C 
ATOM     14  O   UNL     1      -4.767  11.114  17.001  0.00  0.00    +0.000 OA
ENDBRANCH   2  14
ENDBRANCH   1   6
BRANCH   1  15
ATOM     15  S   UNL     1       0.905   8.718  21.433  0.00  0.00    +0.000 S 
ATOM     16  O   UNL     1       1.677   9.327  22.492  0.00  0.00    +0.000 OA
ATOM     17  O   UNL     1      -0.470   8.319  21.624  0.00  0.00    +0.000 OA
BRANCH  15  18
ATOM     18  N   UNL     1       1.776   7.327  20.977  0.00  0.00    +0.000 NA
ATOM     19  H   UNL     1       1.212   6.487  21.121  0.00  0.00    +0.000 HD
BRANCH  18  20
ATOM     20  C   UNL     1       2.253   7.342  19.546  0.00  0.00    +0.000 C 
BRANCH  20  21
ATOM     21  C   UNL     1       3.201   6.173  19.209  0.00  0.00    +0.000 C 
BRANCH  21  22
ATOM     22  N   UNL     1       2.845   4.852  19.770  0.00  0.00    +0.000 NA
ATOM     23  C   UNL     1       3.929   3.879  19.449  0.00  0.00    +0.000 C 
ATOM     24  C   UNL     1       3.999   3.463  17.962  0.00  0.00    +0.000 C 
ATOM     25  O   UNL     1       2.738   2.969  17.490  0.00  0.00    +0.000 OA
ATOM     26  C   UNL     1       1.698   3.931  17.703  0.00  0.00    +0.000 C 
ATOM     27  C   UNL     1       1.595   4.298  19.193  0.00  0.00    +0.000 C 
ENDBRANCH  21  22
ENDBRANCH  20  21
ENDBRANCH  18  20
ENDBRANCH  15  18
ENDBRANCH   1  15
TORSDOF 7
ENDMDL
MODEL 7
REMARK VINA RESULT:      -6.8      0.776      1.197
REMARK  Name = 
REMARK  8 active torsions:
REMARK  status: ('A' for Active; 'I' for Inactive)
REMARK    1  A    between atoms: C_1  and  O_2
REMARK    2  A    between atoms: O_2  and  C_3
REMARK    3  A    between atoms: C_7  and  C_8
REMARK    4  A    between atoms: C_8  and  S_9
REMARK    5  A    between atoms: S_9  and  N_12
REMARK    6  A    between atoms: N_12  and  C_13
REMARK    7  A    between atoms: C_13  and  C_14
REMARK    8  A    between atoms: C_14  and  N_15
REMARK                            x       y       z     vdW  Elec       q    Type
REMARK                         _______ _______ _______ _____ _____    ______ ____
ROOT
ATOM      1  C   UNL     1       3.615   3.865  18.395  0.00  0.00    +0.000 C 
ENDROOT
BRANCH   1   6
ATOM      2  C   UNL     1       6.898   4.730  14.318  0.00  0.00    +0.000 A 
ATOM      3  C   UNL     1       5.608   4.207  14.414  0.00  0.00    +0.000 A 
ATOM      4  C   UNL     1       4.979   4.056  15.659  0.00  0.00    +0.000 A 
ATOM      5  C   UNL     1       5.631   4.427  16.840  0.00  0.00    +0.000 A 
ATOM      6  C   UNL     1       5.039   4.327  18.186  0.00  0.00    +0.000 A 
ATOM      7  C   UNL     1       5.794   4.692  19.235  0.00  0.00    +0.000 A 
ATOM      8  C   UNL     1       7.163   5.215  19.117  0.00  0.00    +0.000 A 
ATOM      9  O   UNL     1       7.803   5.522  20.118  0.00  0.00    +0.000 OA
ATOM     10  O   UNL     1       7.672   5.340  17.840  0.00  0.00    +0.000 OA
ATOM     11  C   UNL     1       6.922   4.944  16.717  0.00  0.00    +0.000 A 
ATOM     12  C   UNL     1       7.558   5.102  15.481  0.00  0.00    +0.000 A 
BRANCH   2  14
ATOM     13  C   UNL     1       6.876   3.903  12.093  0.00  0.00    +0.000 C 
ATOM     14  O   UNL     1       7.394   4.824  13.048  0.00  0.00    +0.000 OA
ENDBRANCH   2  14
ENDBRANCH   1   6
BRANCH   1  15
ATOM     15  S   UNL     1       2.592   5.344  18.550  0.00  0.00    +0.000 S 
ATOM     16  O   UNL     1       3.170   6.405  17.757  0.00  0.00    +0.000 OA
ATOM     17  O   UNL     1       1.208   4.955  18.411  0.00  0.00    +0.000 OA
BRANCH  15  18
ATOM     18  N   UNL     1       2.825   5.809  20.172  0.00  0.00    +0.000 NA
ATOM     19  H   UNL     1       3.597   6.475  20.247  0.00  0.00    +0.000 HD
BRANCH  18  20
ATOM     20  C   UNL     1       1.606   6.416  20.820  0.00  0.00    +0.000 C 
BRANCH  20  21
ATOM     21  C   UNL     1       1.536   7.949  20.670  0.00  0.00    +0.000 C 
BRANCH  21  22
ATOM     22  N   UNL     1       0.185   8.544  20.585  0.00  0.00    +0.000 NA
ATOM     23  C   UNL     1       0.298   9.934  20.057  0.00  0.00    +0.000 C 
ATOM     24  C   UNL     1       0.911  10.949  21.048  0.00  0.00    +0.000 C 
ATOM     25  O   UNL     1       0.216  10.953  22.302  0.00  0.00    +0.000 OA
ATOM     26  C   UNL     1       0.180   9.639  22.873  0.00  0.00    +0.000 C 
ATOM     27  C   UNL     1      -0.484   8.645  21.906  0.00  0.00    +0.000 C 
ENDBRANCH  21  22
ENDBRANCH  20  21
ENDBRANCH  18  20
ENDBRANCH  15  18
ENDBRANCH   1  15
TORSDOF 7
ENDMDL
MODEL 8
REMARK VINA RESULT:      -6.7      5.093      7.407
REMARK  Name = 
REMARK  8 active torsions:
REMARK  status: ('A' for Active; 'I' for Inactive)
REMARK    1  A    between atoms: C_1  and  O_2
REMARK    2  A    between atoms: O_2  and  C_3
REMARK    3  A    between atoms: C_7  and  C_8
REMARK    4  A    between atoms: C_8  and  S_9
REMARK    5  A    between atoms: S_9  and  N_12
REMARK    6  A    between atoms: N_12  and  C_13
REMARK    7  A    between atoms: C_13  and  C_14
REMARK    8  A    between atoms: C_14  and  N_15
REMARK                            x       y       z     vdW  Elec       q    Type
REMARK                         _______ _______ _______ _____ _____    ______ ____
ROOT
ATOM      1  C   UNL     1       7.439   5.892  18.583  0.00  0.00    +0.000 C 
ENDROOT
BRANCH   1   6
ATOM      2  C   UNL     1       2.548   3.877  18.985  0.00  0.00    +0.000 A 
ATOM      3  C   UNL     1       3.362   4.595  19.861  0.00  0.00    +0.000 A 
ATOM      4  C   UNL     1       4.661   4.978  19.493  0.00  0.00    +0.000 A 
ATOM      5  C   UNL     1       5.174   4.652  18.233  0.00  0.00    +0.000 A 
ATOM      6  C   UNL     1       6.514   5.034  17.753  0.00  0.00    +0.000 A 
ATOM      7  C   UNL     1       6.885   4.624  16.529  0.00  0.00    +0.000 A 
ATOM      8  C   UNL     1       6.023   3.845  15.629  0.00  0.00    +0.000 A 
ATOM      9  O   UNL     1       6.427   3.493  14.525  0.00  0.00    +0.000 OA
ATOM     10  O   UNL     1       4.757   3.542  16.089  0.00  0.00    +0.000 OA
ATOM     11  C   UNL     1       4.340   3.931  17.376  0.00  0.00    +0.000 A 
ATOM     12  C   UNL     1       3.043   3.544  17.731  0.00  0.00    +0.000 A 
BRANCH   2  14
ATOM     13  C   UNL     1       0.609   2.521  18.795  0.00  0.00    +0.000 C 
ATOM     14  O   UNL     1       1.307   3.566  19.466  0.00  0.00    +0.000 OA
ENDBRANCH   2  14
ENDBRANCH   1   6
BRANCH   1  15
ATOM     15  S   UNL     1       7.573   7.490  17.754  0.00  0.00    +0.000 S 
ATOM     16  O   UNL     1       8.285   7.319  16.509  0.00  0.00    +0.000 OA
ATOM     17  O   UNL     1       6.285   8.142  17.814  0.00  0.00    +0.000 OA
BRANCH  15  18
ATOM     18  N   UNL     1       8.628   8.364  18.766  0.00  0.00    +0.000 NA
ATOM     19  H   UNL     1       9.572   7.975  18.723  0.00  0.00    +0.000 HD
BRANCH  18  20
ATOM     20  C   UNL     1       8.704   9.838  18.451  0.00  0.00    +0.000 C 
BRANCH  20  21
ATOM     21  C   UNL     1       9.489  10.646  19.503  0.00  0.00    +0.000 C 
BRANCH  21  22
ATOM     22  N   UNL     1      10.819  11.146  19.094  0.00  0.00    +0.000 NA
ATOM     23  C   UNL     1      11.334  12.074  20.143  0.00  0.00    +0.000 C 
ATOM     24  C   UNL     1      10.607  13.436  20.208  0.00  0.00    +0.000 C 
ATOM     25  O   UNL     1      10.596  14.092  18.933  0.00  0.00    +0.000 OA
ATOM     26  C   UNL     1      10.017  13.252  17.928  0.00  0.00    +0.000 C 
ATOM     27  C   UNL     1      10.780  11.920  17.828  0.00  0.00    +0.000 C 
ENDBRANCH  21  22
ENDBRANCH  20  21
ENDBRANCH  18  20
ENDBRANCH  15  18
ENDBRANCH   1  15
TORSDOF 7
ENDMDL
MODEL 9
REMARK VINA RESULT:      -6.7      4.022      8.907
REMARK  Name = 
REMARK  8 active torsions:
REMARK  status: ('A' for Active; 'I' for Inactive)
REMARK    1  A    between atoms: C_1  and  O_2
REMARK    2  A    between atoms: O_2  and  C_3
REMARK    3  A    between atoms: C_7  and  C_8
REMARK    4  A    between atoms: C_8  and  S_9
REMARK    5  A    between atoms: S_9  and  N_12
REMARK    6  A    between atoms: N_12  and  C_13
REMARK    7  A    between atoms: C_13  and  C_14
REMARK    8  A    between atoms: C_14  and  N_15
REMARK                            x       y       z     vdW  Elec       q    Type
REMARK                         _______ _______ _______ _____ _____    ______ ____
ROOT
ATOM      1  C   UNL     1       1.108   9.472  19.684  0.00  0.00    +0.000 C 
ENDROOT
BRANCH   1   6
ATOM      2  C   UNL     1      -3.135  10.827  16.801  0.00  0.00    +0.000 A 
ATOM      3  C   UNL     1      -2.089   9.925  16.600  0.00  0.00    +0.000 A 
ATOM      4  C   UNL     1      -1.054   9.796  17.539  0.00  0.00    +0.000 A 
ATOM      5  C   UNL     1      -1.044  10.569  18.705  0.00  0.00    +0.000 A 
ATOM      6  C   UNL     1      -0.014  10.481  19.755  0.00  0.00    +0.000 A 
ATOM      7  C   UNL     1      -0.116  11.309  20.807  0.00  0.00    +0.000 A 
ATOM      8  C   UNL     1      -1.210  12.273  20.990  0.00  0.00    +0.000 A 
ATOM      9  O   UNL     1      -1.239  13.008  21.971  0.00  0.00    +0.000 OA
ATOM     10  O   UNL     1      -2.184  12.298  20.012  0.00  0.00    +0.000 OA
ATOM     11  C   UNL     1      -2.100  11.466  18.880  0.00  0.00    +0.000 A 
ATOM     12  C   UNL     1      -3.138  11.603  17.953  0.00  0.00    +0.000 A 
BRANCH   2  14
ATOM     13  C   UNL     1      -3.785  10.109  14.634  0.00  0.00    +0.000 C 
ATOM     14  O   UNL     1      -4.077  10.856  15.811  0.00  0.00    +0.000 OA
ENDBRANCH   2  14
ENDBRANCH   1   6
BRANCH   1  15
ATOM     15  S   UNL     1       1.034   8.484  21.192  0.00  0.00    +0.000 S 
ATOM     16  O   UNL     1       1.696   9.199  22.259  0.00  0.00    +0.000 OA
ATOM     17  O   UNL     1      -0.310   7.973  21.335  0.00  0.00    +0.000 OA
BRANCH  15  18
ATOM     18  N   UNL     1       2.043   7.158  20.838  0.00  0.00    +0.000 NA
ATOM     19  H   UNL     1       2.856   7.149  21.458  0.00  0.00    +0.000 HD
BRANCH  18  20
ATOM     20  C   UNL     1       1.356   5.819  20.931  0.00  0.00    +0.000 C 
BRANCH  20  21
ATOM     21  C   UNL     1       1.817   4.821  19.850  0.00  0.00    +0.000 C 
BRANCH  21  22
ATOM     22  N   UNL     1       1.570   3.389  20.125  0.00  0.00    +0.000 NA
ATOM     23  C   UNL     1       2.780   2.801  20.770  0.00  0.00    +0.000 C 
ATOM     24  C   UNL     1       3.991   2.628  19.826  0.00  0.00    +0.000 C 
ATOM     25  O   UNL     1       3.646   1.880  18.652  0.00  0.00    +0.000 OA
ATOM     26  C   UNL     1       2.544   2.484  17.964  0.00  0.00    +0.000 C 
ATOM     27  C   UNL     1       1.323   2.600  18.891  0.00  0.00    +0.000 C 
ENDBRANCH  21  22
ENDBRANCH  20  21
ENDBRANCH  18  20
ENDBRANCH  15  18
ENDBRANCH   1  15
TORSDOF 7
ENDMDL
