MODEL 1
REMARK VINA RESULT:      -6.8      0.000      0.000
REMARK  Name = 
REMARK  11 active torsions:
REMARK  status: ('A' for Active; 'I' for Inactive)
REMARK    1  A    between atoms: C_2  and  C_20
REMARK    2  A    between atoms: N_3  and  C_4
REMARK    3  A    between atoms: C_4  and  C_5
REMARK    4  A    between atoms: C_5  and  C_6
REMARK    5  A    between atoms: C_6  and  C_7
REMARK    6  A    between atoms: C_7  and  C_8
REMARK    7  A    between atoms: C_8  and  C_9
REMARK    8  A    between atoms: C_9  and  C_10
REMARK    9  A    between atoms: C_10  and  C_11
REMARK   10  A    between atoms: C_11  and  N_12
REMARK   11  A    between atoms: C_13  and  C_15
REMARK                            x       y       z     vdW  Elec       q    Type
REMARK                         _______ _______ _______ _____ _____    ______ ____
ROOT
ATOM      1  C   UNL     1       2.129   5.161  20.898  0.00  0.00    +0.000 C 
ENDROOT
BRANCH   1   2
ATOM      2  C   UNL     1       2.184   6.431  20.054  0.00  0.00    +0.000 C 
BRANCH   2   3
ATOM      3  C   UNL     1       1.480   7.603  20.742  0.00  0.00    +0.000 C 
BRANCH   3   4
ATOM      4  C   UNL     1       1.554   8.846  19.859  0.00  0.00    +0.000 C 
BRANCH   4   7
ATOM      5  N   UNL     1       0.857  11.198  18.260  0.00  0.00    +0.000 NA
ATOM      6  C   UNL     1      -0.043  10.424  18.783  0.00  0.00    +0.000 C 
ATOM      7  N   UNL     1       0.273   9.516  19.770  0.00  0.00    +0.000 N 
ATOM      8  H   UNL     1       1.756  11.035  18.707  0.00  0.00    +0.000 HD
ATOM      9  H   UNL     1      -0.524   9.005  20.143  0.00  0.00    +0.000 HD
BRANCH   6  10
ATOM     10  C   UNL     1      -1.392  10.614  18.265  0.00  0.00    +0.000 A 
ATOM     11  C   UNL     1      -2.008   9.914  17.245  0.00  0.00    +0.000 A 
ATOM     12  C   UNL     1      -3.336  10.360  16.996  0.00  0.00    +0.000 A 
ATOM     13  C   UNL     1      -3.684  11.408  17.819  0.00  0.00    +0.000 A 
ATOM     14  S   UNL     1      -2.434  11.806  18.918  0.00  0.00    +0.000 S 
ENDBRANCH   6  10
ENDBRANCH   4   7
ENDBRANCH   3   4
ENDBRANCH   2   3
ENDBRANCH   1   2
BRANCH   1  15
ATOM     15  C   UNL     1       1.021   4.224  20.413  0.00  0.00    +0.000 C 
BRANCH  15  16
ATOM     16  C   UNL     1       1.459   2.768  20.530  0.00  0.00    +0.000 C 
BRANCH  16  17
ATOM     17  C   UNL     1       1.385   2.038  19.190  0.00  0.00    +0.000 C 
BRANCH  17  18
ATOM     18  C   UNL     1       2.786   1.649  18.731  0.00  0.00    +0.000 C 
BRANCH  18  19
ATOM     19  N   UNL     1       3.305   2.615  17.802  0.00  0.00    +0.000 N 
ATOM     20  C   UNL     1       4.396   3.417  17.981  0.00  0.00    +0.000 C 
ATOM     21  N   UNL     1       5.128   3.368  19.057  0.00  0.00    +0.000 NA
ATOM     22  H   UNL     1       2.987   2.542  16.837  0.00  0.00    +0.000 HD
ATOM     23  H   UNL     1       4.752   2.678  19.693  0.00  0.00    +0.000 HD
BRANCH  20  24
ATOM     24  C   UNL     1       4.799   4.386  16.975  0.00  0.00    +0.000 A 
ATOM     25  C   UNL     1       5.479   4.158  15.791  0.00  0.00    +0.000 A 
ATOM     26  C   UNL     1       5.755   5.354  15.074  0.00  0.00    +0.000 A 
ATOM     27  C   UNL     1       5.271   6.465  15.728  0.00  0.00    +0.000 A 
ATOM     28  S   UNL     1       4.469   6.057  17.181  0.00  0.00    +0.000 S 
ENDBRANCH  20  24
ENDBRANCH  18  19
ENDBRANCH  17  18
ENDBRANCH  16  17
ENDBRANCH  15  16
ENDBRANCH   1  15
TORSDOF 11
ENDMDL
MODEL 2
REMARK VINA RESULT:      -6.7      1.715      8.087
REMARK  Name = 
REMARK  11 active torsions:
REMARK  status: ('A' for Active; 'I' for Inactive)
REMARK    1  A    between atoms: C_2  and  C_20
REMARK    2  A    between atoms: N_3  and  C_4
REMARK    3  A    between atoms: C_4  and  C_5
REMARK    4  A    between atoms: C_5  and  C_6
REMARK    5  A    between atoms: C_6  and  C_7
REMARK    6  A    between atoms: C_7  and  C_8
REMARK    7  A    between atoms: C_8  and  C_9
REMARK    8  A    between atoms: C_9  and  C_10
REMARK    9  A    between atoms: C_10  and  C_11
REMARK   10  A    between atoms: C_11  and  N_12
REMARK   11  A    between atoms: C_13  and  C_15
REMARK                            x       y       z     vdW  Elec       q    Type
REMARK                         _______ _______ _______ _____ _____    ______ ____
ROOT
ATOM      1  C   UNL     1       1.019   4.612  20.317  0.00  0.00    +0.000 C 
ENDROOT
BRANCH   1   2
ATOM      2  C   UNL     1       1.239   3.103  20.356  0.00  0.00    +0.000 C 
BRANCH   2   3
ATOM      3  C   UNL     1       1.010   2.459  18.986  0.00  0.00    +0.000 C 
BRANCH   3   4
ATOM      4  C   UNL     1       2.350   2.092  18.353  0.00  0.00    +0.000 C 
BRANCH   4   7
ATOM      5  N   UNL     1       4.984   2.950  19.299  0.00  0.00    +0.000 NA
ATOM      6  C   UNL     1       4.438   3.443  18.231  0.00  0.00    +0.000 C 
ATOM      7  N   UNL     1       3.098   3.270  17.962  0.00  0.00    +0.000 N 
ATOM      8  H   UNL     1       4.281   2.480  19.863  0.00  0.00    +0.000 HD
ATOM      9  H   UNL     1       2.770   3.748  17.126  0.00  0.00    +0.000 HD
BRANCH   6  10
ATOM     10  C   UNL     1       5.340   4.200  17.372  0.00  0.00    +0.000 A 
ATOM     11  C   UNL     1       5.581   4.005  16.026  0.00  0.00    +0.000 A 
ATOM     12  C   UNL     1       6.524   4.930  15.496  0.00  0.00    +0.000 A 
ATOM     13  C   UNL     1       6.993   5.789  16.465  0.00  0.00    +0.000 A 
ATOM     14  S   UNL     1       6.256   5.511  17.984  0.00  0.00    +0.000 S 
ENDBRANCH   6  10
ENDBRANCH   4   7
ENDBRANCH   3   4
ENDBRANCH   2   3
ENDBRANCH   1   2
BRANCH   1  15
ATOM     15  C   UNL     1       2.302   5.365  20.675  0.00  0.00    +0.000 C 
BRANCH  15  16
ATOM     16  C   UNL     1       2.313   6.746  20.029  0.00  0.00    +0.000 C 
BRANCH  16  17
ATOM     17  C   UNL     1       2.681   6.683  18.548  0.00  0.00    +0.000 C 
BRANCH  17  18
ATOM     18  C   UNL     1       2.510   8.058  17.910  0.00  0.00    +0.000 C 
BRANCH  18  19
ATOM     19  N   UNL     1       1.554   8.844  18.639  0.00  0.00    +0.000 N 
ATOM     20  C   UNL     1       1.364  10.193  18.546  0.00  0.00    +0.000 C 
ATOM     21  N   UNL     1       2.050  10.939  17.727  0.00  0.00    +0.000 NA
ATOM     22  H   UNL     1       0.793   8.340  19.090  0.00  0.00    +0.000 HD
ATOM     23  H   UNL     1       2.710  10.366  17.219  0.00  0.00    +0.000 HD
BRANCH  20  24
ATOM     24  C   UNL     1       0.384  10.881  19.371  0.00  0.00    +0.000 A 
ATOM     25  C   UNL     1      -0.666  11.684  18.960  0.00  0.00    +0.000 A 
ATOM     26  C   UNL     1      -1.393  12.240  20.048  0.00  0.00    +0.000 A 
ATOM     27  C   UNL     1      -0.881  11.840  21.262  0.00  0.00    +0.000 A 
ATOM     28  S   UNL     1       0.449  10.781  21.082  0.00  0.00    +0.000 S 
ENDBRANCH  20  24
ENDBRANCH  18  19
ENDBRANCH  17  18
ENDBRANCH  16  17
ENDBRANCH  15  16
ENDBRANCH   1  15
TORSDOF 11
ENDMDL
MODEL 3
REMARK VINA RESULT:      -6.4      1.707      2.130
REMARK  Name = 
REMARK  11 active torsions:
REMARK  status: ('A' for Active; 'I' for Inactive)
REMARK    1  A    between atoms: C_2  and  C_20
REMARK    2  A    between atoms: N_3  and  C_4
REMARK    3  A    between atoms: C_4  and  C_5
REMARK    4  A    between atoms: C_5  and  C_6
REMARK    5  A    between atoms: C_6  and  C_7
REMARK    6  A    between atoms: C_7  and  C_8
REMARK    7  A    between atoms: C_8  and  C_9
REMARK    8  A    between atoms: C_9  and  C_10
REMARK    9  A    between atoms: C_10  and  C_11
REMARK   10  A    between atoms: C_11  and  N_12
REMARK   11  A    between atoms: C_13  and  C_15
REMARK                            x       y       z     vdW  Elec       q    Type
REMARK                         _______ _______ _______ _____ _____    ______ ____
ROOT
ATOM      1  C   UNL     1       1.668   4.558  18.983  0.00  0.00    +0.000 C 
ENDROOT
BRANCH   1   2
ATOM      2  C   UNL     1       2.151   5.632  18.013  0.00  0.00    +0.000 C 
BRANCH   2   3
ATOM      3  C   UNL     1       2.966   6.716  18.724  0.00  0.00    +0.000 C 
BRANCH   3   4
ATOM      4  C   UNL     1       2.952   8.001  17.901  0.00  0.00    +0.000 C 
BRANCH   4   7
ATOM      5  N   UNL     1       1.324   9.155  20.044  0.00  0.00    +0.000 NA
ATOM      6  C   UNL     1       1.049   9.339  18.789  0.00  0.00    +0.000 C 
ATOM      7  N   UNL     1       1.619   8.561  17.806  0.00  0.00    +0.000 N 
ATOM      8  H   UNL     1       1.962   8.370  20.147  0.00  0.00    +0.000 HD
ATOM      9  H   UNL     1       1.286   8.760  16.865  0.00  0.00    +0.000 HD
BRANCH   6  10
ATOM     10  C   UNL     1       0.087  10.400  18.521  0.00  0.00    +0.000 A 
ATOM     11  C   UNL     1      -1.166  10.275  17.950  0.00  0.00    +0.000 A 
ATOM     12  C   UNL     1      -1.845  11.519  17.835  0.00  0.00    +0.000 A 
ATOM     13  C   UNL     1      -1.076  12.563  18.298  0.00  0.00    +0.000 A 
ATOM     14  S   UNL     1       0.428  12.031  18.917  0.00  0.00    +0.000 S 
ENDBRANCH   6  10
ENDBRANCH   4   7
ENDBRANCH   3   4
ENDBRANCH   2   3
ENDBRANCH   1   2
BRANCH   1  15
ATOM     15  C   UNL     1       1.508   3.210  18.278  0.00  0.00    +0.000 C 
BRANCH  15  16
ATOM     16  C   UNL     1       2.189   2.102  19.075  0.00  0.00    +0.000 C 
BRANCH  16  17
ATOM     17  C   UNL     1       2.887   2.640  20.322  0.00  0.00    +0.000 C 
BRANCH  17  18
ATOM     18  C   UNL     1       4.388   2.387  20.229  0.00  0.00    +0.000 C 
BRANCH  18  19
ATOM     19  N   UNL     1       4.902   2.833  18.963  0.00  0.00    +0.000 N 
ATOM     20  C   UNL     1       5.560   4.004  18.715  0.00  0.00    +0.000 C 
ATOM     21  N   UNL     1       5.821   4.869  19.653  0.00  0.00    +0.000 NA
ATOM     22  H   UNL     1       5.001   2.129  18.233  0.00  0.00    +0.000 HD
ATOM     23  H   UNL     1       5.460   4.533  20.535  0.00  0.00    +0.000 HD
BRANCH  20  24
ATOM     24  C   UNL     1       6.000   4.359  17.375  0.00  0.00    +0.000 A 
ATOM     25  C   UNL     1       7.243   4.819  16.977  0.00  0.00    +0.000 A 
ATOM     26  C   UNL     1       7.302   5.119  15.589  0.00  0.00    +0.000 A 
ATOM     27  C   UNL     1       6.101   4.872  14.962  0.00  0.00    +0.000 A 
ATOM     28  S   UNL     1       4.925   4.259  16.041  0.00  0.00    +0.000 S 
ENDBRANCH  20  24
ENDBRANCH  18  19
ENDBRANCH  17  18
ENDBRANCH  16  17
ENDBRANCH  15  16
ENDBRANCH   1  15
TORSDOF 11
ENDMDL
MODEL 4
REMARK VINA RESULT:      -6.4      2.523      4.403
REMARK  Name = 
REMARK  11 active torsions:
REMARK  status: ('A' for Active; 'I' for Inactive)
REMARK    1  A    between atoms: C_2  and  C_20
REMARK    2  A    between atoms: N_3  and  C_4
REMARK    3  A    between atoms: C_4  and  C_5
REMARK    4  A    between atoms: C_5  and  C_6
REMARK    5  A    between atoms: C_6  and  C_7
REMARK    6  A    between atoms: C_7  and  C_8
REMARK    7  A    between atoms: C_8  and  C_9
REMARK    8  A    between atoms: C_9  and  C_10
REMARK    9  A    between atoms: C_10  and  C_11
REMARK   10  A    between atoms: C_11  and  N_12
REMARK   11  A    between atoms: C_13  and  C_15
REMARK                            x       y       z     vdW  Elec       q    Type
REMARK                         _______ _______ _______ _____ _____    ______ ____
ROOT
ATOM      1  C   UNL     1       2.572   7.121  18.290  0.00  0.00    +0.000 C 
ENDROOT
BRANCH   1   2
ATOM      2  C   UNL     1       2.034   8.368  18.983  0.00  0.00    +0.000 C 
BRANCH   2   3
ATOM      3  C   UNL     1       1.478   9.383  17.980  0.00  0.00    +0.000 C 
BRANCH   3   4
ATOM      4  C   UNL     1       1.205  10.711  18.681  0.00  0.00    +0.000 C 
BRANCH   4   7
ATOM      5  N   UNL     1       1.083  10.795  21.605  0.00  0.00    +0.000 NA
ATOM      6  C   UNL     1       0.035  10.977  20.863  0.00  0.00    +0.000 C 
ATOM      7  N   UNL     1       0.032  10.639  19.527  0.00  0.00    +0.000 N 
ATOM      8  H   UNL     1       1.824  10.362  21.060  0.00  0.00    +0.000 HD
ATOM      9  H   UNL     1      -0.863  10.774  19.061  0.00  0.00    +0.000 HD
BRANCH   6  10
ATOM     10  C   UNL     1      -1.120  11.533  21.556  0.00  0.00    +0.000 A 
ATOM     11  C   UNL     1      -1.434  11.414  22.897  0.00  0.00    +0.000 A 
ATOM     12  C   UNL     1      -2.640  12.085  23.241  0.00  0.00    +0.000 A 
ATOM     13  C   UNL     1      -3.225  12.675  22.143  0.00  0.00    +0.000 A 
ATOM     14  S   UNL     1      -2.292  12.464  20.724  0.00  0.00    +0.000 S 
ENDBRANCH   6  10
ENDBRANCH   4   7
ENDBRANCH   3   4
ENDBRANCH   2   3
ENDBRANCH   1   2
BRANCH   1  15
ATOM     15  C   UNL     1       3.620   7.484  17.237  0.00  0.00    +0.000 C 
BRANCH  15  16
ATOM     16  C   UNL     1       4.887   6.658  17.432  0.00  0.00    +0.000 C 
BRANCH  16  17
ATOM     17  C   UNL     1       5.245   5.854  16.184  0.00  0.00    +0.000 C 
BRANCH  17  18
ATOM     18  C   UNL     1       5.175   4.362  16.488  0.00  0.00    +0.000 C 
BRANCH  18  19
ATOM     19  N   UNL     1       4.075   4.071  17.366  0.00  0.00    +0.000 N 
ATOM     20  C   UNL     1       4.151   3.548  18.625  0.00  0.00    +0.000 C 
ATOM     21  N   UNL     1       5.288   3.268  19.197  0.00  0.00    +0.000 NA
ATOM     22  H   UNL     1       3.180   4.500  17.139  0.00  0.00    +0.000 HD
ATOM     23  H   UNL     1       6.047   3.487  18.567  0.00  0.00    +0.000 HD
BRANCH  20  24
ATOM     24  C   UNL     1       2.956   3.262  19.402  0.00  0.00    +0.000 A 
ATOM     25  C   UNL     1       1.633   3.428  19.029  0.00  0.00    +0.000 A 
ATOM     26  C   UNL     1       0.722   3.096  20.067  0.00  0.00    +0.000 A 
ATOM     27  C   UNL     1       1.374   2.678  21.206  0.00  0.00    +0.000 A 
ATOM     28  S   UNL     1       3.071   2.665  21.007  0.00  0.00    +0.000 S 
ENDBRANCH  20  24
ENDBRANCH  18  19
ENDBRANCH  17  18
ENDBRANCH  16  17
ENDBRANCH  15  16
ENDBRANCH   1  15
TORSDOF 11
ENDMDL
MODEL 5
REMARK VINA RESULT:      -6.4      2.369      8.360
REMARK  Name = 
REMARK  11 active torsions:
REMARK  status: ('A' for Active; 'I' for Inactive)
REMARK    1  A    between atoms: C_2  and  C_20
REMARK    2  A    between atoms: N_3  and  C_4
REMARK    3  A    between atoms: C_4  and  C_5
REMARK    4  A    between atoms: C_5  and  C_6
REMARK    5  A    between atoms: C_6  and  C_7
REMARK    6  A    between atoms: C_7  and  C_8
REMARK    7  A    between atoms: C_8  and  C_9
REMARK    8  A    between atoms: C_9  and  C_10
REMARK    9  A    between atoms: C_10  and  C_11
REMARK   10  A    between atoms: C_11  and  N_12
REMARK   11  A    between atoms: C_13  and  C_15
REMARK                            x       y       z     vdW  Elec       q    Type
REMARK                         _______ _______ _______ _____ _____    ______ ____
ROOT
ATOM      1  C   UNL     1       5.703   6.393  17.776  0.00  0.00    +0.000 C 
ENDROOT
BRANCH   1   2
ATOM      2  C   UNL     1       6.038   5.762  16.428  0.00  0.00    +0.000 C 
BRANCH   2   3
ATOM      3  C   UNL     1       4.984   4.737  16.002  0.00  0.00    +0.000 C 
BRANCH   3   4
ATOM      4  C   UNL     1       5.354   3.356  16.538  0.00  0.00    +0.000 C 
BRANCH   4   7
ATOM      5  N   UNL     1       5.352   3.193  19.461  0.00  0.00    +0.000 NA
ATOM      6  C   UNL     1       4.271   3.049  18.759  0.00  0.00    +0.000 C 
ATOM      7  N   UNL     1       4.320   2.822  17.400  0.00  0.00    +0.000 N 
ATOM      8  H   UNL     1       6.169   3.083  18.867  0.00  0.00    +0.000 HD
ATOM      9  H   UNL     1       3.413   2.669  16.965  0.00  0.00    +0.000 HD
BRANCH   6  10
ATOM     10  C   UNL     1       3.030   3.119  19.519  0.00  0.00    +0.000 A 
ATOM     11  C   UNL     1       2.821   2.724  20.827  0.00  0.00    +0.000 A 
ATOM     12  C   UNL     1       1.483   2.935  21.258  0.00  0.00    +0.000 A 
ATOM     13  C   UNL     1       0.702   3.463  20.254  0.00  0.00    +0.000 A 
ATOM     14  S   UNL     1       1.597   3.750  18.825  0.00  0.00    +0.000 S 
ENDBRANCH   6  10
ENDBRANCH   4   7
ENDBRANCH   3   4
ENDBRANCH   2   3
ENDBRANCH   1   2
BRANCH   1  15
ATOM     15  C   UNL     1       4.190   6.460  17.993  0.00  0.00    +0.000 C 
BRANCH  15  16
ATOM     16  C   UNL     1       3.622   7.757  17.426  0.00  0.00    +0.000 C 
BRANCH  16  17
ATOM     17  C   UNL     1       2.114   7.864  17.641  0.00  0.00    +0.000 C 
BRANCH  17  18
ATOM     18  C   UNL     1       1.715   9.325  17.814  0.00  0.00    +0.000 C 
BRANCH  18  19
ATOM     19  N   UNL     1       1.223   9.566  19.142  0.00  0.00    +0.000 N 
ATOM     20  C   UNL     1       0.000  10.070  19.482  0.00  0.00    +0.000 C 
ATOM     21  N   UNL     1      -0.899  10.378  18.592  0.00  0.00    +0.000 NA
ATOM     22  H   UNL     1       1.720   9.111  19.906  0.00  0.00    +0.000 HD
ATOM     23  H   UNL     1      -0.537  10.193  17.666  0.00  0.00    +0.000 HD
BRANCH  20  24
ATOM     24  C   UNL     1      -0.366  10.304  20.870  0.00  0.00    +0.000 A 
ATOM     25  C   UNL     1      -0.865  11.463  21.439  0.00  0.00    +0.000 A 
ATOM     26  C   UNL     1      -1.061  11.348  22.842  0.00  0.00    +0.000 A 
ATOM     27  C   UNL     1      -0.711  10.100  23.306  0.00  0.00    +0.000 A 
ATOM     28  S   UNL     1      -0.178   9.072  22.049  0.00  0.00    +0.000 S 
ENDBRANCH  20  24
ENDBRANCH  18  19
ENDBRANCH  17  18
ENDBRANCH  16  17
ENDBRANCH  15  16
ENDBRANCH   1  15
TORSDOF 11
ENDMDL
MODEL 6
REMARK VINA RESULT:      -6.3      1.819      2.083
REMARK  Name = 
REMARK  11 active torsions:
REMARK  status: ('A' for Active; 'I' for Inactive)
REMARK    1  A    between atoms: C_2  and  C_20
REMARK    2  A    between atoms: N_3  and  C_4
REMARK    3  A    between atoms: C_4  and  C_5
REMARK    4  A    between atoms: C_5  and  C_6
REMARK    5  A    between atoms: C_6  and  C_7
REMARK    6  A    between atoms: C_7  and  C_8
REMARK    7  A    between atoms: C_8  and  C_9
REMARK    8  A    between atoms: C_9  and  C_10
REMARK    9  A    between atoms: C_10  and  C_11
REMARK   10  A    between atoms: C_11  and  N_12
REMARK   11  A    between atoms: C_13  and  C_15
REMARK                            x       y       z     vdW  Elec       q    Type
REMARK                         _______ _______ _______ _____ _____    ______ ____
ROOT
ATOM      1  C   UNL     1       1.748   4.610  20.116  0.00  0.00    +0.000 C 
ENDROOT
BRANCH   1   2
ATOM      2  C   UNL     1       1.999   6.113  20.154  0.00  0.00    +0.000 C 
BRANCH   2   3
ATOM      3  C   UNL     1       3.136   6.525  19.215  0.00  0.00    +0.000 C 
BRANCH   3   4
ATOM      4  C   UNL     1       2.639   7.573  18.223  0.00  0.00    +0.000 C 
BRANCH   4   7
ATOM      5  N   UNL     1       2.096  10.365  17.528  0.00  0.00    +0.000 NA
ATOM      6  C   UNL     1       1.288   9.664  18.261  0.00  0.00    +0.000 C 
ATOM      7  N   UNL     1       1.682   8.475  18.833  0.00  0.00    +0.000 N 
ATOM      8  H   UNL     1       3.007   9.916  17.489  0.00  0.00    +0.000 HD
ATOM      9  H   UNL     1       0.983   8.043  19.432  0.00  0.00    +0.000 HD
BRANCH   6  10
ATOM     10  C   UNL     1      -0.036  10.246  18.445  0.00  0.00    +0.000 A 
ATOM     11  C   UNL     1      -1.179   9.983  17.713  0.00  0.00    +0.000 A 
ATOM     12  C   UNL     1      -2.304  10.728  18.164  0.00  0.00    +0.000 A 
ATOM     13  C   UNL     1      -1.977  11.560  19.211  0.00  0.00    +0.000 A 
ATOM     14  S   UNL     1      -0.338  11.395  19.678  0.00  0.00    +0.000 S 
ENDBRANCH   6  10
ENDBRANCH   4   7
ENDBRANCH   3   4
ENDBRANCH   2   3
ENDBRANCH   1   2
BRANCH   1  15
ATOM     15  C   UNL     1       1.080   4.195  18.804  0.00  0.00    +0.000 C 
BRANCH  15  16
ATOM     16  C   UNL     1       2.123   3.722  17.796  0.00  0.00    +0.000 C 
BRANCH  16  17
ATOM     17  C   UNL     1       2.386   2.221  17.906  0.00  0.00    +0.000 C 
BRANCH  17  18
ATOM     18  C   UNL     1       3.885   1.961  18.010  0.00  0.00    +0.000 C 
BRANCH  18  19
ATOM     19  N   UNL     1       4.611   3.197  18.110  0.00  0.00    +0.000 N 
ATOM     20  C   UNL     1       5.473   3.715  17.186  0.00  0.00    +0.000 C 
ATOM     21  N   UNL     1       5.719   3.123  16.052  0.00  0.00    +0.000 NA
ATOM     22  H   UNL     1       4.291   3.864  18.810  0.00  0.00    +0.000 HD
ATOM     23  H   UNL     1       5.192   2.262  15.998  0.00  0.00    +0.000 HD
BRANCH  20  24
ATOM     24  C   UNL     1       6.180   4.964  17.423  0.00  0.00    +0.000 A 
ATOM     25  C   UNL     1       7.189   5.215  18.336  0.00  0.00    +0.000 A 
ATOM     26  C   UNL     1       7.612   6.572  18.330  0.00  0.00    +0.000 A 
ATOM     27  C   UNL     1       6.918   7.320  17.406  0.00  0.00    +0.000 A 
ATOM     28  S   UNL     1       5.785   6.380  16.537  0.00  0.00    +0.000 S 
ENDBRANCH  20  24
ENDBRANCH  18  19
ENDBRANCH  17  18
ENDBRANCH  16  17
ENDBRANCH  15  16
ENDBRANCH   1  15
TORSDOF 11
ENDMDL
MODEL 7
REMARK VINA RESULT:      -6.3      6.355     10.160
REMARK  Name = 
REMARK  11 active torsions:
REMARK  status: ('A' for Active; 'I' for Inactive)
REMARK    1  A    between atoms: C_2  and  C_20
REMARK    2  A    between atoms: N_3  and  C_4
REMARK    3  A    between atoms: C_4  and  C_5
REMARK    4  A    between atoms: C_5  and  C_6
REMARK    5  A    between atoms: C_6  and  C_7
REMARK    6  A    between atoms: C_7  and  C_8
REMARK    7  A    between atoms: C_8  and  C_9
REMARK    8  A    between atoms: C_9  and  C_10
REMARK    9  A    between atoms: C_10  and  C_11
REMARK   10  A    between atoms: C_11  and  N_12
REMARK   11  A    between atoms: C_13  and  C_15
REMARK                            x       y       z     vdW  Elec       q    Type
REMARK                         _______ _______ _______ _____ _____    ______ ____
ROOT
ATOM      1  C   UNL     1       7.822   9.102  17.858  0.00  0.00    +0.000 C 
ENDROOT
BRANCH   1   2
ATOM      2  C   UNL     1       7.884   7.598  18.106  0.00  0.00    +0.000 C 
BRANCH   2   3
ATOM      3  C   UNL     1       7.009   6.821  17.118  0.00  0.00    +0.000 C 
BRANCH   3   4
ATOM      4  C   UNL     1       6.750   5.414  17.648  0.00  0.00    +0.000 C 
BRANCH   4   7
ATOM      5  N   UNL     1       5.485   3.282  19.207  0.00  0.00    +0.000 NA
ATOM      6  C   UNL     1       4.832   4.329  18.808  0.00  0.00    +0.000 C 
ATOM      7  N   UNL     1       5.335   5.164  17.834  0.00  0.00    +0.000 N 
ATOM      8  H   UNL     1       6.350   3.192  18.682  0.00  0.00    +0.000 HD
ATOM      9  H   UNL     1       4.710   5.920  17.562  0.00  0.00    +0.000 HD
BRANCH   6  10
ATOM     10  C   UNL     1       3.536   4.526  19.446  0.00  0.00    +0.000 A 
ATOM     11  C   UNL     1       2.990   5.715  19.892  0.00  0.00    +0.000 A 
ATOM     12  C   UNL     1       1.700   5.546  20.467  0.00  0.00    +0.000 A 
ATOM     13  C   UNL     1       1.312   4.225  20.467  0.00  0.00    +0.000 A 
ATOM     14  S   UNL     1       2.475   3.212  19.726  0.00  0.00    +0.000 S 
ENDBRANCH   6  10
ENDBRANCH   4   7
ENDBRANCH   3   4
ENDBRANCH   2   3
ENDBRANCH   1   2
BRANCH   1  15
ATOM     15  C   UNL     1       8.887   9.839  18.672  0.00  0.00    +0.000 C 
BRANCH  15  16
ATOM     16  C   UNL     1       9.009  11.288  18.211  0.00  0.00    +0.000 C 
BRANCH  16  17
ATOM     17  C   UNL     1      10.418  11.615  17.720  0.00  0.00    +0.000 C 
BRANCH  17  18
ATOM     18  C   UNL     1      10.522  13.100  17.390  0.00  0.00    +0.000 C 
BRANCH  18  19
ATOM     19  N   UNL     1       9.279  13.770  17.656  0.00  0.00    +0.000 N 
ATOM     20  C   UNL     1       9.108  15.099  17.924  0.00  0.00    +0.000 C 
ATOM     21  N   UNL     1      10.102  15.940  17.943  0.00  0.00    +0.000 NA
ATOM     22  H   UNL     1       8.426  13.278  17.397  0.00  0.00    +0.000 HD
ATOM     23  H   UNL     1      10.964  15.451  17.745  0.00  0.00    +0.000 HD
BRANCH  20  24
ATOM     24  C   UNL     1       7.795  15.652  18.215  0.00  0.00    +0.000 A 
ATOM     25  C   UNL     1       7.489  16.890  18.753  0.00  0.00    +0.000 A 
ATOM     26  C   UNL     1       6.094  17.075  18.953  0.00  0.00    +0.000 A 
ATOM     27  C   UNL     1       5.371  15.973  18.556  0.00  0.00    +0.000 A 
ATOM     28  S   UNL     1       6.371  14.740  17.923  0.00  0.00    +0.000 S 
ENDBRANCH  20  24
ENDBRANCH  18  19
ENDBRANCH  17  18
ENDBRANCH  16  17
ENDBRANCH  15  16
ENDBRANCH   1  15
TORSDOF 11
ENDMDL
MODEL 8
REMARK VINA RESULT:      -6.3      1.883      8.139
REMARK  Name = 
REMARK  11 active torsions:
REMARK  status: ('A' for Active; 'I' for Inactive)
REMARK    1  A    between atoms: C_2  and  C_20
REMARK    2  A    between atoms: N_3  and  C_4
REMARK    3  A    between atoms: C_4  and  C_5
REMARK    4  A    between atoms: C_5  and  C_6
REMARK    5  A    between atoms: C_6  and  C_7
REMARK    6  A    between atoms: C_7  and  C_8
REMARK    7  A    between atoms: C_8  and  C_9
REMARK    8  A    between atoms: C_9  and  C_10
REMARK    9  A    between atoms: C_10  and  C_11
REMARK   10  A    between atoms: C_11  and  N_12
REMARK   11  A    between atoms: C_13  and  C_15
REMARK                            x       y       z     vdW  Elec       q    Type
REMARK                         _______ _______ _______ _____ _____    ______ ____
ROOT
ATOM      1  C   UNL     1       1.578   4.419  20.295  0.00  0.00    +0.000 C 
ENDROOT
BRANCH   1   2
ATOM      2  C   UNL     1       1.939   3.219  21.164  0.00  0.00    +0.000 C 
BRANCH   2   3
ATOM      3  C   UNL     1       3.187   2.498  20.648  0.00  0.00    +0.000 C 
BRANCH   3   4
ATOM      4  C   UNL     1       2.914   1.906  19.268  0.00  0.00    +0.000 C 
BRANCH   4   7
ATOM      5  N   UNL     1       2.709   3.647  16.923  0.00  0.00    +0.000 NA
ATOM      6  C   UNL     1       3.851   3.297  17.428  0.00  0.00    +0.000 C 
ATOM      7  N   UNL     1       3.954   2.253  18.321  0.00  0.00    +0.000 N 
ATOM      8  H   UNL     1       1.975   3.031  17.264  0.00  0.00    +0.000 HD
ATOM      9  H   UNL     1       4.906   2.035  18.606  0.00  0.00    +0.000 HD
BRANCH   6  10
ATOM     10  C   UNL     1       4.993   4.070  16.957  0.00  0.00    +0.000 A 
ATOM     11  C   UNL     1       5.341   4.345  15.648  0.00  0.00    +0.000 A 
ATOM     12  C   UNL     1       6.521   5.132  15.547  0.00  0.00    +0.000 A 
ATOM     13  C   UNL     1       7.054   5.413  16.785  0.00  0.00    +0.000 A 
ATOM     14  S   UNL     1       6.101   4.776  18.056  0.00  0.00    +0.000 S 
ENDBRANCH   6  10
ENDBRANCH   4   7
ENDBRANCH   3   4
ENDBRANCH   2   3
ENDBRANCH   1   2
BRANCH   1  15
ATOM     15  C   UNL     1       2.729   5.425  20.238  0.00  0.00    +0.000 C 
BRANCH  15  16
ATOM     16  C   UNL     1       2.249   6.760  19.677  0.00  0.00    +0.000 C 
BRANCH  16  17
ATOM     17  C   UNL     1       3.004   7.153  18.409  0.00  0.00    +0.000 C 
BRANCH  17  18
ATOM     18  C   UNL     1       2.211   8.199  17.633  0.00  0.00    +0.000 C 
BRANCH  18  19
ATOM     19  N   UNL     1       1.360   8.951  18.515  0.00  0.00    +0.000 N 
ATOM     20  C   UNL     1       1.333  10.308  18.663  0.00  0.00    +0.000 C 
ATOM     21  N   UNL     1       2.098  11.101  17.969  0.00  0.00    +0.000 NA
ATOM     22  H   UNL     1       0.547   8.468  18.891  0.00  0.00    +0.000 HD
ATOM     23  H   UNL     1       2.681  10.554  17.350  0.00  0.00    +0.000 HD
BRANCH  20  24
ATOM     24  C   UNL     1       0.447  10.950  19.621  0.00  0.00    +0.000 A 
ATOM     25  C   UNL     1       0.653  11.148  20.976  0.00  0.00    +0.000 A 
ATOM     26  C   UNL     1      -0.456  11.766  21.616  0.00  0.00    +0.000 A 
ATOM     27  C   UNL     1      -1.477  12.029  20.731  0.00  0.00    +0.000 A 
ATOM     28  S   UNL     1      -1.083  11.556  19.136  0.00  0.00    +0.000 S 
ENDBRANCH  20  24
ENDBRANCH  18  19
ENDBRANCH  17  18
ENDBRANCH  16  17
ENDBRANCH  15  16
ENDBRANCH   1  15
TORSDOF 11
ENDMDL
MODEL 9
REMARK VINA RESULT:      -6.3      2.447      8.271
REMARK  Name = 
REMARK  11 active torsions:
REMARK  status: ('A' for Active; 'I' for Inactive)
REMARK    1  A    between atoms: C_2  and  C_20
REMARK    2  A    between atoms: N_3  and  C_4
REMARK    3  A    between atoms: C_4  and  C_5
REMARK    4  A    between atoms: C_5  and  C_6
REMARK    5  A    between atoms: C_6  and  C_7
REMARK    6  A    between atoms: C_7  and  C_8
REMARK    7  A    between atoms: C_8  and  C_9
REMARK    8  A    between atoms: C_9  and  C_10
REMARK    9  A    between atoms: C_10  and  C_11
REMARK   10  A    between atoms: C_11  and  N_12
REMARK   11  A    between atoms: C_13  and  C_15
REMARK                            x       y       z     vdW  Elec       q    Type
REMARK                         _______ _______ _______ _____ _____    ______ ____
ROOT
ATOM      1  C   UNL     1       5.578   6.693  17.052  0.00  0.00    +0.000 C 
ENDROOT
BRANCH   1   2
ATOM      2  C   UNL     1       5.009   6.103  15.766  0.00  0.00    +0.000 C 
BRANCH   2   3
ATOM      3  C   UNL     1       5.830   4.907  15.275  0.00  0.00    +0.000 C 
BRANCH   3   4
ATOM      4  C   UNL     1       6.261   4.050  16.463  0.00  0.00    +0.000 C 
BRANCH   4   7
ATOM      5  N   UNL     1       5.517   3.607  19.260  0.00  0.00    +0.000 NA
ATOM      6  C   UNL     1       4.711   3.343  18.279  0.00  0.00    +0.000 C 
ATOM      7  N   UNL     1       5.161   3.260  16.979  0.00  0.00    +0.000 N 
ATOM      8  H   UNL     1       6.468   3.702  18.912  0.00  0.00    +0.000 HD
ATOM      9  H   UNL     1       4.450   2.992  16.303  0.00  0.00    +0.000 HD
BRANCH   6  10
ATOM     10  C   UNL     1       3.324   3.119  18.666  0.00  0.00    +0.000 A 
ATOM     11  C   UNL     1       2.248   2.869  17.835  0.00  0.00    +0.000 A 
ATOM     12  C   UNL     1       1.030   2.696  18.549  0.00  0.00    +0.000 A 
ATOM     13  C   UNL     1       1.210   2.846  19.906  0.00  0.00    +0.000 A 
ATOM     14  S   UNL     1       2.847   3.137  20.311  0.00  0.00    +0.000 S 
ENDBRANCH   6  10
ENDBRANCH   4   7
ENDBRANCH   3   4
ENDBRANCH   2   3
ENDBRANCH   1   2
BRANCH   1  15
ATOM     15  C   UNL     1       4.519   7.502  17.803  0.00  0.00    +0.000 C 
BRANCH  15  16
ATOM     16  C   UNL     1       3.248   6.680  17.993  0.00  0.00    +0.000 C 
BRANCH  16  17
ATOM     17  C   UNL     1       2.005   7.428  17.519  0.00  0.00    +0.000 C 
BRANCH  17  18
ATOM     18  C   UNL     1       2.131   8.911  17.850  0.00  0.00    +0.000 C 
BRANCH  18  19
ATOM     19  N   UNL     1       1.512   9.207  19.112  0.00  0.00    +0.000 N 
ATOM     20  C   UNL     1       0.530  10.127  19.345  0.00  0.00    +0.000 C 
ATOM     21  N   UNL     1       0.012  10.851  18.393  0.00  0.00    +0.000 NA
ATOM     22  H   UNL     1       1.635   8.523  19.857  0.00  0.00    +0.000 HD
ATOM     23  H   UNL     1       0.455  10.621  17.514  0.00  0.00    +0.000 HD
BRANCH  20  24
ATOM     24  C   UNL     1       0.009  10.361  20.682  0.00  0.00    +0.000 A 
ATOM     25  C   UNL     1      -0.409  11.557  21.240  0.00  0.00    +0.000 A 
ATOM     26  C   UNL     1      -0.810  11.421  22.597  0.00  0.00    +0.000 A 
ATOM     27  C   UNL     1      -0.693  10.122  23.037  0.00  0.00    +0.000 A 
ATOM     28  S   UNL     1      -0.129   9.075  21.809  0.00  0.00    +0.000 S 
ENDBRANCH  20  24
ENDBRANCH  18  19
ENDBRANCH  17  18
ENDBRANCH  16  17
ENDBRANCH  15  16
ENDBRANCH   1  15
TORSDOF 11
ENDMDL
