MODEL 1
REMARK VINA RESULT:      -8.6      0.000      0.000
REMARK  Name = 
REMARK  6 active torsions:
REMARK  status: ('A' for Active; 'I' for Inactive)
REMARK    1  A    between atoms: C_1  and  O_2
REMARK    2  A    between atoms: O_2  and  C_3
REMARK    3  A    between atoms: C_5  and  O_6
REMARK    4  A    between atoms: O_6  and  C_7
REMARK    5  A    between atoms: C_9  and  C_10
REMARK    6  A    between atoms: N_14  and  C_15
REMARK                            x       y       z     vdW  Elec       q    Type
REMARK                         _______ _______ _______ _____ _____    ______ ____
ROOT
ATOM      1  C   UNL     1       2.445   7.239  18.732  0.00  0.00    +0.000 A 
ATOM      2  C   UNL     1       2.078   8.481  18.257  0.00  0.00    +0.000 A 
ATOM      3  C   UNL     1       1.499   9.215  19.324  0.00  0.00    +0.000 A 
ATOM      4  C   UNL     1       0.979  10.519  19.432  0.00  0.00    +0.000 A 
ATOM      5  N   UNL     1       0.963  11.396  18.339  0.00  0.00    +0.000 N 
ATOM      6  N   UNL     1       0.502  10.916  20.649  0.00  0.00    +0.000 NA
ATOM      7  C   UNL     1       0.560  10.092  21.717  0.00  0.00    +0.000 A 
ATOM      8  C   UNL     1       1.071   8.812  21.695  0.00  0.00    +0.000 A 
ATOM      9  C   UNL     1       1.539   8.397  20.453  0.00  0.00    +0.000 A 
ATOM     10  N   UNL     1       2.117   7.213  20.068  0.00  0.00    +0.000 N 
ATOM     11  H   UNL     1       1.228  11.014  17.446  0.00  0.00    +0.000 HD
ATOM     12  H   UNL     1       2.305   6.444  20.694  0.00  0.00    +0.000 HD
ENDROOT
BRANCH   5  13
ATOM     13  C   UNL     1       0.931  12.795  18.430  0.00  0.00    +0.000 A 
ATOM     14  C   UNL     1      -0.306  13.470  18.530  0.00  0.00    +0.000 A 
ATOM     15  C   UNL     1      -0.355  14.810  18.931  0.00  0.00    +0.000 A 
ATOM     16  C   UNL     1       0.843  15.422  19.233  0.00  0.00    +0.000 A 
ATOM     17  C   UNL     1       2.051  14.797  19.032  0.00  0.00    +0.000 A 
ATOM     18  C   UNL     1       2.128  13.506  18.594  0.00  0.00    +0.000 A 
ATOM     19  O   UNL     1       3.105  15.542  19.462  0.00  0.00    +0.000 OA
ATOM     20  C   UNL     1       2.383  16.482  20.275  0.00  0.00    +0.000 C 
ATOM     21  O   UNL     1       1.008  16.626  19.852  0.00  0.00    +0.000 OA
ENDBRANCH   5  13
BRANCH   1  26
ATOM     22  C   UNL     1       4.898   5.274  16.673  0.00  0.00    +0.000 A 
ATOM     23  C   UNL     1       4.338   4.001  16.756  0.00  0.00    +0.000 A 
ATOM     24  C   UNL     1       3.155   3.781  17.454  0.00  0.00    +0.000 A 
ATOM     25  C   UNL     1       2.541   4.845  18.112  0.00  0.00    +0.000 A 
ATOM     26  C   UNL     1       3.093   6.132  18.046  0.00  0.00    +0.000 A 
ATOM     27  C   UNL     1       4.274   6.339  17.326  0.00  0.00    +0.000 A 
BRANCH  22  29
ATOM     28  C   UNL     1       7.129   4.533  16.314  0.00  0.00    +0.000 C 
ATOM     29  O   UNL     1       6.042   5.368  15.930  0.00  0.00    +0.000 OA
ENDBRANCH  22  29
BRANCH  24  30
ATOM     30  O   UNL     1       2.694   2.493  17.460  0.00  0.00    +0.000 OA
ATOM     31  C   UNL     1       3.260   1.640  18.450  0.00  0.00    +0.000 C 
ENDBRANCH  24  30
ENDBRANCH   1  26
TORSDOF 4
ENDMDL
MODEL 2
REMARK VINA RESULT:      -8.6      0.364      2.090
REMARK  Name = 
REMARK  6 active torsions:
REMARK  status: ('A' for Active; 'I' for Inactive)
REMARK    1  A    between atoms: C_1  and  O_2
REMARK    2  A    between atoms: O_2  and  C_3
REMARK    3  A    between atoms: C_5  and  O_6
REMARK    4  A    between atoms: O_6  and  C_7
REMARK    5  A    between atoms: C_9  and  C_10
REMARK    6  A    between atoms: N_14  and  C_15
REMARK                            x       y       z     vdW  Elec       q    Type
REMARK                         _______ _______ _______ _____ _____    ______ ____
ROOT
ATOM      1  C   UNL     1       2.588   7.211  18.628  0.00  0.00    +0.000 A 
ATOM      2  C   UNL     1       2.182   8.453  18.185  0.00  0.00    +0.000 A 
ATOM      3  C   UNL     1       1.549   9.126  19.262  0.00  0.00    +0.000 A 
ATOM      4  C   UNL     1       0.974  10.403  19.400  0.00  0.00    +0.000 A 
ATOM      5  N   UNL     1       0.947  11.316  18.337  0.00  0.00    +0.000 N 
ATOM      6  N   UNL     1       0.453  10.739  20.618  0.00  0.00    +0.000 NA
ATOM      7  C   UNL     1       0.520   9.882  21.659  0.00  0.00    +0.000 A 
ATOM      8  C   UNL     1       1.083   8.625  21.606  0.00  0.00    +0.000 A 
ATOM      9  C   UNL     1       1.597   8.272  20.363  0.00  0.00    +0.000 A 
ATOM     10  N   UNL     1       2.232   7.126  19.954  0.00  0.00    +0.000 N 
ATOM     11  H   UNL     1       1.248  10.976  17.439  0.00  0.00    +0.000 HD
ATOM     12  H   UNL     1       2.436   6.343  20.558  0.00  0.00    +0.000 HD
ENDROOT
BRANCH   5  13
ATOM     13  C   UNL     1       0.856  12.709  18.474  0.00  0.00    +0.000 A 
ATOM     14  C   UNL     1      -0.407  13.324  18.623  0.00  0.00    +0.000 A 
ATOM     15  C   UNL     1      -0.505  14.648  19.068  0.00  0.00    +0.000 A 
ATOM     16  C   UNL     1       0.671  15.303  19.364  0.00  0.00    +0.000 A 
ATOM     17  C   UNL     1       1.900  14.739  19.116  0.00  0.00    +0.000 A 
ATOM     18  C   UNL     1       2.024  13.466  18.635  0.00  0.00    +0.000 A 
ATOM     19  O   UNL     1       2.931  15.516  19.546  0.00  0.00    +0.000 OA
ATOM     20  C   UNL     1       2.188  16.398  20.405  0.00  0.00    +0.000 C 
ATOM     21  O   UNL     1       0.798  16.493  20.017  0.00  0.00    +0.000 OA
ENDBRANCH   5  13
BRANCH   1  26
ATOM     22  C   UNL     1       3.549   3.813  17.343  0.00  0.00    +0.000 A 
ATOM     23  C   UNL     1       4.642   4.143  16.544  0.00  0.00    +0.000 A 
ATOM     24  C   UNL     1       5.088   5.458  16.442  0.00  0.00    +0.000 A 
ATOM     25  C   UNL     1       4.403   6.465  17.119  0.00  0.00    +0.000 A 
ATOM     26  C   UNL     1       3.296   6.154  17.921  0.00  0.00    +0.000 A 
ATOM     27  C   UNL     1       2.873   4.826  18.026  0.00  0.00    +0.000 A 
BRANCH  22  29
ATOM     28  C   UNL     1       3.447   1.812  18.624  0.00  0.00    +0.000 C 
ATOM     29  O   UNL     1       3.231   2.484  17.388  0.00  0.00    +0.000 OA
ENDBRANCH  22  29
BRANCH  24  30
ATOM     30  O   UNL     1       6.175   5.660  15.637  0.00  0.00    +0.000 OA
ATOM     31  C   UNL     1       6.705   4.496  15.012  0.00  0.00    +0.000 C 
ENDBRANCH  24  30
ENDBRANCH   1  26
TORSDOF 4
ENDMDL
MODEL 3
REMARK VINA RESULT:      -8.5      3.252      9.206
REMARK  Name = 
REMARK  6 active torsions:
REMARK  status: ('A' for Active; 'I' for Inactive)
REMARK    1  A    between atoms: C_1  and  O_2
REMARK    2  A    between atoms: O_2  and  C_3
REMARK    3  A    between atoms: C_5  and  O_6
REMARK    4  A    between atoms: O_6  and  C_7
REMARK    5  A    between atoms: C_9  and  C_10
REMARK    6  A    between atoms: N_14  and  C_15
REMARK                            x       y       z     vdW  Elec       q    Type
REMARK                         _______ _______ _______ _____ _____    ______ ____
ROOT
ATOM      1  C   UNL     1       1.882   7.643  20.049  0.00  0.00    +0.000 A 
ATOM      2  C   UNL     1       2.867   7.450  19.102  0.00  0.00    +0.000 A 
ATOM      3  C   UNL     1       3.314   6.107  19.190  0.00  0.00    +0.000 A 
ATOM      4  C   UNL     1       4.263   5.355  18.472  0.00  0.00    +0.000 A 
ATOM      5  N   UNL     1       5.002   5.915  17.420  0.00  0.00    +0.000 N 
ATOM      6  N   UNL     1       4.435   4.045  18.822  0.00  0.00    +0.000 NA
ATOM      7  C   UNL     1       3.693   3.488  19.802  0.00  0.00    +0.000 A 
ATOM      8  C   UNL     1       2.733   4.153  20.534  0.00  0.00    +0.000 A 
ATOM      9  C   UNL     1       2.569   5.492  20.195  0.00  0.00    +0.000 A 
ATOM     10  N   UNL     1       1.711   6.440  20.694  0.00  0.00    +0.000 N 
ATOM     11  H   UNL     1       4.910   6.907  17.279  0.00  0.00    +0.000 HD
ATOM     12  H   UNL     1       1.026   6.262  21.413  0.00  0.00    +0.000 HD
ENDROOT
BRANCH   5  13
ATOM     13  C   UNL     1       5.583   5.189  16.370  0.00  0.00    +0.000 A 
ATOM     14  C   UNL     1       4.849   4.172  15.721  0.00  0.00    +0.000 A 
ATOM     15  C   UNL     1       5.279   3.659  14.492  0.00  0.00    +0.000 A 
ATOM     16  C   UNL     1       6.425   4.198  13.949  0.00  0.00    +0.000 A 
ATOM     17  C   UNL     1       7.195   5.110  14.632  0.00  0.00    +0.000 A 
ATOM     18  C   UNL     1       6.824   5.590  15.856  0.00  0.00    +0.000 A 
ATOM     19  O   UNL     1       8.240   5.572  13.894  0.00  0.00    +0.000 OA
ATOM     20  C   UNL     1       7.791   5.141  12.598  0.00  0.00    +0.000 C 
ATOM     21  O   UNL     1       6.889   4.015  12.680  0.00  0.00    +0.000 OA
ENDBRANCH   5  13
BRANCH   1  26
ATOM     22  C   UNL     1      -0.072  10.822  19.610  0.00  0.00    +0.000 A 
ATOM     23  C   UNL     1      -0.431  11.085  20.930  0.00  0.00    +0.000 A 
ATOM     24  C   UNL     1      -0.019  10.252  21.966  0.00  0.00    +0.000 A 
ATOM     25  C   UNL     1       0.731   9.115  21.671  0.00  0.00    +0.000 A 
ATOM     26  C   UNL     1       1.095   8.830  20.349  0.00  0.00    +0.000 A 
ATOM     27  C   UNL     1       0.688   9.687  19.321  0.00  0.00    +0.000 A 
BRANCH  22  29
ATOM     28  C   UNL     1      -1.757  11.466  18.060  0.00  0.00    +0.000 C 
ATOM     29  O   UNL     1      -0.508  11.733  18.687  0.00  0.00    +0.000 OA
ENDBRANCH  22  29
BRANCH  24  30
ATOM     30  O   UNL     1      -0.422  10.615  23.222  0.00  0.00    +0.000 OA
ATOM     31  C   UNL     1      -1.545  11.489  23.281  0.00  0.00    +0.000 C 
ENDBRANCH  24  30
ENDBRANCH   1  26
TORSDOF 4
ENDMDL
MODEL 4
REMARK VINA RESULT:      -8.5      3.233      9.319
REMARK  Name = 
REMARK  6 active torsions:
REMARK  status: ('A' for Active; 'I' for Inactive)
REMARK    1  A    between atoms: C_1  and  O_2
REMARK    2  A    between atoms: O_2  and  C_3
REMARK    3  A    between atoms: C_5  and  O_6
REMARK    4  A    between atoms: O_6  and  C_7
REMARK    5  A    between atoms: C_9  and  C_10
REMARK    6  A    between atoms: N_14  and  C_15
REMARK                            x       y       z     vdW  Elec       q    Type
REMARK                         _______ _______ _______ _____ _____    ______ ____
ROOT
ATOM      1  C   UNL     1       1.862   7.606  20.064  0.00  0.00    +0.000 A 
ATOM      2  C   UNL     1       2.852   7.417  19.122  0.00  0.00    +0.000 A 
ATOM      3  C   UNL     1       3.294   6.071  19.202  0.00  0.00    +0.000 A 
ATOM      4  C   UNL     1       4.244   5.321  18.484  0.00  0.00    +0.000 A 
ATOM      5  N   UNL     1       4.991   5.885  17.440  0.00  0.00    +0.000 N 
ATOM      6  N   UNL     1       4.409   4.008  18.825  0.00  0.00    +0.000 NA
ATOM      7  C   UNL     1       3.658   3.446  19.797  0.00  0.00    +0.000 A 
ATOM      8  C   UNL     1       2.697   4.110  20.529  0.00  0.00    +0.000 A 
ATOM      9  C   UNL     1       2.540   5.451  20.198  0.00  0.00    +0.000 A 
ATOM     10  N   UNL     1       1.682   6.399  20.699  0.00  0.00    +0.000 N 
ATOM     11  H   UNL     1       4.903   6.879  17.306  0.00  0.00    +0.000 HD
ATOM     12  H   UNL     1       0.993   6.219  21.413  0.00  0.00    +0.000 HD
ENDROOT
BRANCH   5  13
ATOM     13  C   UNL     1       5.575   5.165  16.388  0.00  0.00    +0.000 A 
ATOM     14  C   UNL     1       4.841   4.156  15.728  0.00  0.00    +0.000 A 
ATOM     15  C   UNL     1       5.276   3.649  14.498  0.00  0.00    +0.000 A 
ATOM     16  C   UNL     1       6.427   4.188  13.965  0.00  0.00    +0.000 A 
ATOM     17  C   UNL     1       7.196   5.093  14.659  0.00  0.00    +0.000 A 
ATOM     18  C   UNL     1       6.820   5.566  15.884  0.00  0.00    +0.000 A 
ATOM     19  O   UNL     1       8.247   5.556  13.929  0.00  0.00    +0.000 OA
ATOM     20  C   UNL     1       7.804   5.136  12.628  0.00  0.00    +0.000 C 
ATOM     21  O   UNL     1       6.896   4.012  12.697  0.00  0.00    +0.000 OA
ENDBRANCH   5  13
BRANCH   1  26
ATOM     22  C   UNL     1      -0.031  10.227  21.979  0.00  0.00    +0.000 A 
ATOM     23  C   UNL     1      -0.400  11.082  20.943  0.00  0.00    +0.000 A 
ATOM     24  C   UNL     1      -0.063  10.800  19.623  0.00  0.00    +0.000 A 
ATOM     25  C   UNL     1       0.690   9.662  19.339  0.00  0.00    +0.000 A 
ATOM     26  C   UNL     1       1.078   8.794  20.368  0.00  0.00    +0.000 A 
ATOM     27  C   UNL     1       0.716   9.084  21.688  0.00  0.00    +0.000 A 
BRANCH  22  29
ATOM     28  C   UNL     1      -1.549  11.498  23.297  0.00  0.00    +0.000 C 
ATOM     29  O   UNL     1      -0.451  10.596  23.227  0.00  0.00    +0.000 OA
ENDBRANCH  22  29
BRANCH  24  30
ATOM     30  O   UNL     1      -0.488  11.705  18.690  0.00  0.00    +0.000 OA
ATOM     31  C   UNL     1      -1.899  11.804  18.525  0.00  0.00    +0.000 C 
ENDBRANCH  24  30
ENDBRANCH   1  26
TORSDOF 4
ENDMDL
MODEL 5
REMARK VINA RESULT:      -8.3      1.197      1.204
REMARK  Name = 
REMARK  6 active torsions:
REMARK  status: ('A' for Active; 'I' for Inactive)
REMARK    1  A    between atoms: C_1  and  O_2
REMARK    2  A    between atoms: O_2  and  C_3
REMARK    3  A    between atoms: C_5  and  O_6
REMARK    4  A    between atoms: O_6  and  C_7
REMARK    5  A    between atoms: C_9  and  C_10
REMARK    6  A    between atoms: N_14  and  C_15
REMARK                            x       y       z     vdW  Elec       q    Type
REMARK                         _______ _______ _______ _____ _____    ______ ____
ROOT
ATOM      1  C   UNL     1       2.195   7.143  19.604  0.00  0.00    +0.000 A 
ATOM      2  C   UNL     1       1.949   8.327  18.940  0.00  0.00    +0.000 A 
ATOM      3  C   UNL     1       1.307   9.218  19.837  0.00  0.00    +0.000 A 
ATOM      4  C   UNL     1       0.854  10.546  19.724  0.00  0.00    +0.000 A 
ATOM      5  N   UNL     1       0.998  11.273  18.534  0.00  0.00    +0.000 N 
ATOM      6  N   UNL     1       0.279  11.119  20.823  0.00  0.00    +0.000 NA
ATOM      7  C   UNL     1       0.182  10.441  21.986  0.00  0.00    +0.000 A 
ATOM      8  C   UNL     1       0.619   9.147  22.180  0.00  0.00    +0.000 A 
ATOM      9  C   UNL     1       1.187   8.554  21.058  0.00  0.00    +0.000 A 
ATOM     10  N   UNL     1       1.733   7.305  20.889  0.00  0.00    +0.000 N 
ATOM     11  H   UNL     1       1.331  10.766  17.730  0.00  0.00    +0.000 HD
ATOM     12  H   UNL     1       1.812   6.617  21.623  0.00  0.00    +0.000 HD
ENDROOT
BRANCH   5  13
ATOM     13  C   UNL     1       1.036  12.672  18.445  0.00  0.00    +0.000 A 
ATOM     14  C   UNL     1      -0.162  13.417  18.498  0.00  0.00    +0.000 A 
ATOM     15  C   UNL     1      -0.131  14.798  18.724  0.00  0.00    +0.000 A 
ATOM     16  C   UNL     1       1.105  15.381  18.905  0.00  0.00    +0.000 A 
ATOM     17  C   UNL     1       2.273  14.673  18.747  0.00  0.00    +0.000 A 
ATOM     18  C   UNL     1       2.271  13.334  18.477  0.00  0.00    +0.000 A 
ATOM     19  O   UNL     1       3.378  15.410  19.042  0.00  0.00    +0.000 OA
ATOM     20  C   UNL     1       2.734  16.483  19.751  0.00  0.00    +0.000 C 
ATOM     21  O   UNL     1       1.351  16.643  19.358  0.00  0.00    +0.000 OA
ENDBRANCH   5  13
BRANCH   1  26
ATOM     22  C   UNL     1       4.860   4.638  18.742  0.00  0.00    +0.000 A 
ATOM     23  C   UNL     1       4.078   3.590  18.260  0.00  0.00    +0.000 A 
ATOM     24  C   UNL     1       2.693   3.701  18.188  0.00  0.00    +0.000 A 
ATOM     25  C   UNL     1       2.077   4.866  18.641  0.00  0.00    +0.000 A 
ATOM     26  C   UNL     1       2.845   5.928  19.136  0.00  0.00    +0.000 A 
ATOM     27  C   UNL     1       4.238   5.807  19.185  0.00  0.00    +0.000 A 
BRANCH  22  29
ATOM     28  C   UNL     1       7.042   5.520  19.085  0.00  0.00    +0.000 C 
ATOM     29  O   UNL     1       6.210   4.421  18.731  0.00  0.00    +0.000 OA
ENDBRANCH  22  29
BRANCH  24  30
ATOM     30  O   UNL     1       2.030   2.613  17.690  0.00  0.00    +0.000 OA
ATOM     31  C   UNL     1       1.072   2.022  18.562  0.00  0.00    +0.000 C 
ENDBRANCH  24  30
ENDBRANCH   1  26
TORSDOF 4
ENDMDL
MODEL 6
REMARK VINA RESULT:      -8.3      1.110      2.303
REMARK  Name = 
REMARK  6 active torsions:
REMARK  status: ('A' for Active; 'I' for Inactive)
REMARK    1  A    between atoms: C_1  and  O_2
REMARK    2  A    between atoms: O_2  and  C_3
REMARK    3  A    between atoms: C_5  and  O_6
REMARK    4  A    between atoms: O_6  and  C_7
REMARK    5  A    between atoms: C_9  and  C_10
REMARK    6  A    between atoms: N_14  and  C_15
REMARK                            x       y       z     vdW  Elec       q    Type
REMARK                         _______ _______ _______ _____ _____    ______ ____
ROOT
ATOM      1  C   UNL     1       2.252   7.105  19.641  0.00  0.00    +0.000 A 
ATOM      2  C   UNL     1       2.013   8.284  18.966  0.00  0.00    +0.000 A 
ATOM      3  C   UNL     1       1.339   9.172  19.844  0.00  0.00    +0.000 A 
ATOM      4  C   UNL     1       0.877  10.495  19.714  0.00  0.00    +0.000 A 
ATOM      5  N   UNL     1       1.046  11.219  18.526  0.00  0.00    +0.000 N 
ATOM      6  N   UNL     1       0.268  11.066  20.795  0.00  0.00    +0.000 NA
ATOM      7  C   UNL     1       0.146  10.391  21.958  0.00  0.00    +0.000 A 
ATOM      8  C   UNL     1       0.590   9.102  22.167  0.00  0.00    +0.000 A 
ATOM      9  C   UNL     1       1.193   8.510  21.063  0.00  0.00    +0.000 A 
ATOM     10  N   UNL     1       1.755   7.267  20.913  0.00  0.00    +0.000 N 
ATOM     11  H   UNL     1       1.405  10.713  17.733  0.00  0.00    +0.000 HD
ATOM     12  H   UNL     1       1.821   6.582  21.651  0.00  0.00    +0.000 HD
ENDROOT
BRANCH   5  13
ATOM     13  C   UNL     1       1.074  12.618  18.433  0.00  0.00    +0.000 A 
ATOM     14  C   UNL     1      -0.131  13.355  18.480  0.00  0.00    +0.000 A 
ATOM     15  C   UNL     1      -0.111  14.736  18.703  0.00  0.00    +0.000 A 
ATOM     16  C   UNL     1       1.120  15.329  18.886  0.00  0.00    +0.000 A 
ATOM     17  C   UNL     1       2.294  14.629  18.732  0.00  0.00    +0.000 A 
ATOM     18  C   UNL     1       2.303  13.290  18.465  0.00  0.00    +0.000 A 
ATOM     19  O   UNL     1       3.392  15.376  19.028  0.00  0.00    +0.000 OA
ATOM     20  C   UNL     1       2.738  16.446  19.731  0.00  0.00    +0.000 C 
ATOM     21  O   UNL     1       1.356  16.594  19.335  0.00  0.00    +0.000 OA
ENDBRANCH   5  13
BRANCH   1  26
ATOM     22  C   UNL     1       2.837   3.667  18.239  0.00  0.00    +0.000 A 
ATOM     23  C   UNL     1       4.226   3.593  18.320  0.00  0.00    +0.000 A 
ATOM     24  C   UNL     1       4.973   4.640  18.852  0.00  0.00    +0.000 A 
ATOM     25  C   UNL     1       4.322   5.797  19.275  0.00  0.00    +0.000 A 
ATOM     26  C   UNL     1       2.926   5.894  19.195  0.00  0.00    +0.000 A 
ATOM     27  C   UNL     1       2.189   4.826  18.673  0.00  0.00    +0.000 A 
BRANCH  22  29
ATOM     28  C   UNL     1       1.440   1.784  18.635  0.00  0.00    +0.000 C 
ATOM     29  O   UNL     1       2.215   2.562  17.730  0.00  0.00    +0.000 OA
ENDBRANCH  22  29
BRANCH  24  30
ATOM     30  O   UNL     1       6.327   4.450  18.890  0.00  0.00    +0.000 OA
ATOM     31  C   UNL     1       7.026   4.750  17.686  0.00  0.00    +0.000 C 
ENDBRANCH  24  30
ENDBRANCH   1  26
TORSDOF 4
ENDMDL
MODEL 7
REMARK VINA RESULT:      -8.3      1.019      2.579
REMARK  Name = 
REMARK  6 active torsions:
REMARK  status: ('A' for Active; 'I' for Inactive)
REMARK    1  A    between atoms: C_1  and  O_2
REMARK    2  A    between atoms: O_2  and  C_3
REMARK    3  A    between atoms: C_5  and  O_6
REMARK    4  A    between atoms: O_6  and  C_7
REMARK    5  A    between atoms: C_9  and  C_10
REMARK    6  A    between atoms: N_14  and  C_15
REMARK                            x       y       z     vdW  Elec       q    Type
REMARK                         _______ _______ _______ _____ _____    ______ ____
ROOT
ATOM      1  C   UNL     1       2.863   7.084  18.395  0.00  0.00    +0.000 A 
ATOM      2  C   UNL     1       2.643   8.400  18.048  0.00  0.00    +0.000 A 
ATOM      3  C   UNL     1       1.876   9.010  19.073  0.00  0.00    +0.000 A 
ATOM      4  C   UNL     1       1.386  10.315  19.269  0.00  0.00    +0.000 A 
ATOM      5  N   UNL     1       1.626  11.338  18.340  0.00  0.00    +0.000 N 
ATOM      6  N   UNL     1       0.676  10.566  20.409  0.00  0.00    +0.000 NA
ATOM      7  C   UNL     1       0.483   9.598  21.330  0.00  0.00    +0.000 A 
ATOM      8  C   UNL     1       0.947   8.304  21.219  0.00  0.00    +0.000 A 
ATOM      9  C   UNL     1       1.653   8.040  20.051  0.00  0.00    +0.000 A 
ATOM     10  N   UNL     1       2.262   6.889  19.617  0.00  0.00    +0.000 N 
ATOM     11  H   UNL     1       2.061  11.069  17.473  0.00  0.00    +0.000 HD
ATOM     12  H   UNL     1       2.290   6.029  20.145  0.00  0.00    +0.000 HD
ENDROOT
BRANCH   5  13
ATOM     13  C   UNL     1       1.619  12.709  18.633  0.00  0.00    +0.000 A 
ATOM     14  C   UNL     1       2.768  13.492  18.384  0.00  0.00    +0.000 A 
ATOM     15  C   UNL     1       2.688  14.889  18.371  0.00  0.00    +0.000 A 
ATOM     16  C   UNL     1       1.449  15.452  18.593  0.00  0.00    +0.000 A 
ATOM     17  C   UNL     1       0.357  14.693  18.940  0.00  0.00    +0.000 A 
ATOM     18  C   UNL     1       0.420  13.330  19.009  0.00  0.00    +0.000 A 
ATOM     19  O   UNL     1      -0.783  15.430  19.042  0.00  0.00    +0.000 OA
ATOM     20  C   UNL     1      -0.335  16.609  18.352  0.00  0.00    +0.000 C 
ATOM     21  O   UNL     1       1.102  16.756  18.401  0.00  0.00    +0.000 OA
ENDBRANCH   5  13
BRANCH   1  26
ATOM     22  C   UNL     1       4.022   3.701  17.239  0.00  0.00    +0.000 A 
ATOM     23  C   UNL     1       5.016   4.068  16.334  0.00  0.00    +0.000 A 
ATOM     24  C   UNL     1       5.332   5.406  16.116  0.00  0.00    +0.000 A 
ATOM     25  C   UNL     1       4.614   6.395  16.787  0.00  0.00    +0.000 A 
ATOM     26  C   UNL     1       3.606   6.046  17.696  0.00  0.00    +0.000 A 
ATOM     27  C   UNL     1       3.313   4.696  17.916  0.00  0.00    +0.000 A 
BRANCH  22  29
ATOM     28  C   UNL     1       3.295   1.918  18.634  0.00  0.00    +0.000 C 
ATOM     29  O   UNL     1       3.829   2.356  17.390  0.00  0.00    +0.000 OA
ENDBRANCH  22  29
BRANCH  24  30
ATOM     30  O   UNL     1       6.330   5.646  15.214  0.00  0.00    +0.000 OA
ATOM     31  C   UNL     1       6.585   4.600  14.282  0.00  0.00    +0.000 C 
ENDBRANCH  24  30
ENDBRANCH   1  26
TORSDOF 4
ENDMDL
MODEL 8
REMARK VINA RESULT:      -8.2      0.964      1.505
REMARK  Name = 
REMARK  6 active torsions:
REMARK  status: ('A' for Active; 'I' for Inactive)
REMARK    1  A    between atoms: C_1  and  O_2
REMARK    2  A    between atoms: O_2  and  C_3
REMARK    3  A    between atoms: C_5  and  O_6
REMARK    4  A    between atoms: O_6  and  C_7
REMARK    5  A    between atoms: C_9  and  C_10
REMARK    6  A    between atoms: N_14  and  C_15
REMARK                            x       y       z     vdW  Elec       q    Type
REMARK                         _______ _______ _______ _____ _____    ______ ____
ROOT
ATOM      1  C   UNL     1       2.284   7.308  18.888  0.00  0.00    +0.000 A 
ATOM      2  C   UNL     1       2.069   8.602  18.463  0.00  0.00    +0.000 A 
ATOM      3  C   UNL     1       1.498   9.336  19.534  0.00  0.00    +0.000 A 
ATOM      4  C   UNL     1       1.101  10.678  19.684  0.00  0.00    +0.000 A 
ATOM      5  N   UNL     1       1.238  11.606  18.643  0.00  0.00    +0.000 N 
ATOM      6  N   UNL     1       0.588  11.059  20.892  0.00  0.00    +0.000 NA
ATOM      7  C   UNL     1       0.499  10.182  21.914  0.00  0.00    +0.000 A 
ATOM      8  C   UNL     1       0.884   8.859  21.849  0.00  0.00    +0.000 A 
ATOM      9  C   UNL     1       1.388   8.462  20.616  0.00  0.00    +0.000 A 
ATOM     10  N   UNL     1       1.872   7.247  20.199  0.00  0.00    +0.000 N 
ATOM     11  H   UNL     1       1.521  11.244  17.747  0.00  0.00    +0.000 HD
ATOM     12  H   UNL     1       1.944   6.433  20.790  0.00  0.00    +0.000 HD
ENDROOT
BRANCH   5  13
ATOM     13  C   UNL     1       1.336  12.995  18.811  0.00  0.00    +0.000 A 
ATOM     14  C   UNL     1       2.546  13.660  18.516  0.00  0.00    +0.000 A 
ATOM     15  C   UNL     1       2.576  15.052  18.375  0.00  0.00    +0.000 A 
ATOM     16  C   UNL     1       1.384  15.728  18.520  0.00  0.00    +0.000 A 
ATOM     17  C   UNL     1       0.230  15.091  18.913  0.00  0.00    +0.000 A 
ATOM     18  C   UNL     1       0.185  13.739  19.105  0.00  0.00    +0.000 A 
ATOM     19  O   UNL     1      -0.849  15.920  18.925  0.00  0.00    +0.000 OA
ATOM     20  C   UNL     1      -0.301  16.993  18.141  0.00  0.00    +0.000 C 
ATOM     21  O   UNL     1       1.144  17.032  18.204  0.00  0.00    +0.000 OA
ENDBRANCH   5  13
BRANCH   1  26
ATOM     22  C   UNL     1       4.645   5.223  16.838  0.00  0.00    +0.000 A 
ATOM     23  C   UNL     1       3.976   4.000  16.846  0.00  0.00    +0.000 A 
ATOM     24  C   UNL     1       2.751   3.854  17.489  0.00  0.00    +0.000 A 
ATOM     25  C   UNL     1       2.203   4.941  18.169  0.00  0.00    +0.000 A 
ATOM     26  C   UNL     1       2.863   6.177  18.179  0.00  0.00    +0.000 A 
ATOM     27  C   UNL     1       4.086   6.310  17.513  0.00  0.00    +0.000 A 
BRANCH  22  29
ATOM     28  C   UNL     1       5.948   4.338  15.057  0.00  0.00    +0.000 C 
ATOM     29  O   UNL     1       5.822   5.247  16.144  0.00  0.00    +0.000 OA
ENDBRANCH  22  29
BRANCH  24  30
ATOM     30  O   UNL     1       2.183   2.612  17.421  0.00  0.00    +0.000 OA
ATOM     31  C   UNL     1       1.379   2.240  18.536  0.00  0.00    +0.000 C 
ENDBRANCH  24  30
ENDBRANCH   1  26
TORSDOF 4
ENDMDL
MODEL 9
REMARK VINA RESULT:      -8.1      1.209      2.422
REMARK  Name = 
REMARK  6 active torsions:
REMARK  status: ('A' for Active; 'I' for Inactive)
REMARK    1  A    between atoms: C_1  and  O_2
REMARK    2  A    between atoms: O_2  and  C_3
REMARK    3  A    between atoms: C_5  and  O_6
REMARK    4  A    between atoms: O_6  and  C_7
REMARK    5  A    between atoms: C_9  and  C_10
REMARK    6  A    between atoms: N_14  and  C_15
REMARK                            x       y       z     vdW  Elec       q    Type
REMARK                         _______ _______ _______ _____ _____    ______ ____
ROOT
ATOM      1  C   UNL     1       2.061   7.370  19.737  0.00  0.00    +0.000 A 
ATOM      2  C   UNL     1       1.833   8.553  19.065  0.00  0.00    +0.000 A 
ATOM      3  C   UNL     1       1.165   9.444  19.942  0.00  0.00    +0.000 A 
ATOM      4  C   UNL     1       0.715  10.772  19.815  0.00  0.00    +0.000 A 
ATOM      5  N   UNL     1       0.893  11.498  18.629  0.00  0.00    +0.000 N 
ATOM      6  N   UNL     1       0.107  11.345  20.896  0.00  0.00    +0.000 NA
ATOM      7  C   UNL     1      -0.024  10.667  22.056  0.00  0.00    +0.000 A 
ATOM      8  C   UNL     1       0.408   9.375  22.263  0.00  0.00    +0.000 A 
ATOM      9  C   UNL     1       1.009   8.781  21.159  0.00  0.00    +0.000 A 
ATOM     10  N   UNL     1       1.561   7.533  21.008  0.00  0.00    +0.000 N 
ATOM     11  H   UNL     1       1.250  10.990  17.836  0.00  0.00    +0.000 HD
ATOM     12  H   UNL     1       1.619   6.845  21.744  0.00  0.00    +0.000 HD
ENDROOT
BRANCH   5  13
ATOM     13  C   UNL     1       0.933  12.897  18.540  0.00  0.00    +0.000 A 
ATOM     14  C   UNL     1      -0.267  13.641  18.541  0.00  0.00    +0.000 A 
ATOM     15  C   UNL     1      -0.248  15.022  18.767  0.00  0.00    +0.000 A 
ATOM     16  C   UNL     1       0.979  15.606  19.000  0.00  0.00    +0.000 A 
ATOM     17  C   UNL     1       2.153  14.900  18.892  0.00  0.00    +0.000 A 
ATOM     18  C   UNL     1       2.165  13.561  18.623  0.00  0.00    +0.000 A 
ATOM     19  O   UNL     1       3.243  15.639  19.232  0.00  0.00    +0.000 OA
ATOM     20  C   UNL     1       2.569  16.712  19.912  0.00  0.00    +0.000 C 
ATOM     21  O   UNL     1       1.204  16.869  19.461  0.00  0.00    +0.000 OA
ENDBRANCH   5  13
BRANCH   1  26
ATOM     22  C   UNL     1       3.282   3.818  19.617  0.00  0.00    +0.000 A 
ATOM     23  C   UNL     1       3.979   3.829  18.411  0.00  0.00    +0.000 A 
ATOM     24  C   UNL     1       4.079   4.989  17.649  0.00  0.00    +0.000 A 
ATOM     25  C   UNL     1       3.437   6.148  18.082  0.00  0.00    +0.000 A 
ATOM     26  C   UNL     1       2.725   6.155  19.289  0.00  0.00    +0.000 A 
ATOM     27  C   UNL     1       2.649   4.985  20.051  0.00  0.00    +0.000 A 
BRANCH  22  29
ATOM     28  C   UNL     1       2.549   2.573  21.507  0.00  0.00    +0.000 C 
ATOM     29  O   UNL     1       3.286   2.628  20.290  0.00  0.00    +0.000 OA
ENDBRANCH  22  29
BRANCH  24  30
ATOM     30  O   UNL     1       4.796   4.883  16.489  0.00  0.00    +0.000 OA
ATOM     31  C   UNL     1       5.228   6.114  15.917  0.00  0.00    +0.000 C 
ENDBRANCH  24  30
ENDBRANCH   1  26
TORSDOF 4
ENDMDL
