MODEL 1
REMARK VINA RESULT:      -8.6      0.000      0.000
REMARK  Name = 
REMARK  7 active torsions:
REMARK  status: ('A' for Active; 'I' for Inactive)
REMARK    1  A    between atoms: C_1  and  C_2
REMARK    2  A    between atoms: C_4  and  O_5
REMARK    3  A    between atoms: O_5  and  C_6
REMARK    4  A    between atoms: C_11  and  N_12
REMARK    5  A    between atoms: C_19  and  C_20
REMARK    6  A    between atoms: C_21  and  C_22
REMARK    7  A    between atoms: N_28  and  C_29
REMARK                            x       y       z     vdW  Elec       q    Type
REMARK                         _______ _______ _______ _____ _____    ______ ____
ROOT
ATOM      1  C   UNL     1       0.226   9.580  21.342  0.00  0.00    +0.000 C 
ATOM      2  C   UNL     1       0.953   9.045  20.137  0.00  0.00    +0.000 A 
ATOM      3  C   UNL     1       1.776   7.910  20.282  0.00  0.00    +0.000 A 
ATOM      4  C   UNL     1       2.468   7.375  19.190  0.00  0.00    +0.000 A 
ATOM      5  C   UNL     1       2.353   7.989  17.942  0.00  0.00    +0.000 A 
ATOM      6  C   UNL     1       1.540   9.116  17.781  0.00  0.00    +0.000 A 
ATOM      7  C   UNL     1       0.847   9.665  18.872  0.00  0.00    +0.000 A 
ENDROOT
BRANCH   7   8
ATOM      8  C   UNL     1       0.078  10.918  18.657  0.00  0.00    +0.000 A 
ATOM      9  C   UNL     1       0.709  12.105  18.774  0.00  0.00    +0.000 A 
ATOM     10  C   UNL     1       2.160  12.348  19.074  0.00  0.00    +0.000 C 
ATOM     11  C   UNL     1      -0.086  13.342  18.573  0.00  0.00    +0.000 A 
ATOM     12  O   UNL     1       0.415  14.459  18.654  0.00  0.00    +0.000 OA
ATOM     13  N   UNL     1      -1.404  13.174  18.289  0.00  0.00    +0.000 N 
ATOM     14  C   UNL     1      -2.043  11.983  18.110  0.00  0.00    +0.000 A 
ATOM     15  O   UNL     1      -3.226  11.980  17.778  0.00  0.00    +0.000 OA
ATOM     16  N   UNL     1      -1.274  10.843  18.318  0.00  0.00    +0.000 N 
ATOM     17  C   UNL     1      -1.922   9.553  18.102  0.00  0.00    +0.000 C 
ATOM     18  H   UNL     1      -1.950  14.006  18.131  0.00  0.00    +0.000 HD
ENDBRANCH   7   8
BRANCH   4  19
ATOM     19  O   UNL     1       3.307   6.306  19.448  0.00  0.00    +0.000 OA
BRANCH  19  20
ATOM     20  C   UNL     1       3.040   5.091  18.825  0.00  0.00    +0.000 A 
ATOM     21  N   UNL     1       1.941   4.407  19.252  0.00  0.00    +0.000 NA
ATOM     22  C   UNL     1       1.625   3.271  18.603  0.00  0.00    +0.000 A 
ATOM     23  C   UNL     1       2.348   2.779  17.538  0.00  0.00    +0.000 A 
ATOM     24  C   UNL     1       3.494   3.466  17.149  0.00  0.00    +0.000 A 
ATOM     25  C   UNL     1       3.910   4.630  17.818  0.00  0.00    +0.000 A 
BRANCH  25  26
ATOM     26  N   UNL     1       5.127   5.245  17.426  0.00  0.00    +0.000 N 
ATOM     27  C   UNL     1       5.392   5.825  16.133  0.00  0.00    +0.000 C 
ATOM     28  C   UNL     1       6.743   5.115  16.111  0.00  0.00    +0.000 C 
ATOM     29  F   UNL     1       6.851   4.080  15.240  0.00  0.00    +0.000 F 
ATOM     30  C   UNL     1       6.463   4.737  17.569  0.00  0.00    +0.000 C 
ENDBRANCH  25  26
ENDBRANCH  19  20
ENDBRANCH   4  19
TORSDOF 4
ENDMDL
MODEL 2
REMARK VINA RESULT:      -8.6      0.627      2.020
REMARK  Name = 
REMARK  7 active torsions:
REMARK  status: ('A' for Active; 'I' for Inactive)
REMARK    1  A    between atoms: C_1  and  C_2
REMARK    2  A    between atoms: C_4  and  O_5
REMARK    3  A    between atoms: O_5  and  C_6
REMARK    4  A    between atoms: C_11  and  N_12
REMARK    5  A    between atoms: C_19  and  C_20
REMARK    6  A    between atoms: C_21  and  C_22
REMARK    7  A    between atoms: N_28  and  C_29
REMARK                            x       y       z     vdW  Elec       q    Type
REMARK                         _______ _______ _______ _____ _____    ______ ____
ROOT
ATOM      1  C   UNL     1       0.194   9.543  21.321  0.00  0.00    +0.000 C 
ATOM      2  C   UNL     1       0.926   9.015  20.116  0.00  0.00    +0.000 A 
ATOM      3  C   UNL     1       1.769   7.894  20.263  0.00  0.00    +0.000 A 
ATOM      4  C   UNL     1       2.466   7.367  19.171  0.00  0.00    +0.000 A 
ATOM      5  C   UNL     1       2.337   7.974  17.921  0.00  0.00    +0.000 A 
ATOM      6  C   UNL     1       1.506   9.086  17.758  0.00  0.00    +0.000 A 
ATOM      7  C   UNL     1       0.807   9.628  18.849  0.00  0.00    +0.000 A 
ENDROOT
BRANCH   7   8
ATOM      8  C   UNL     1       0.017  10.868  18.631  0.00  0.00    +0.000 A 
ATOM      9  C   UNL     1      -1.283  10.766  18.283  0.00  0.00    +0.000 A 
ATOM     10  C   UNL     1      -2.091   9.512  18.109  0.00  0.00    +0.000 C 
ATOM     11  C   UNL     1      -2.046  12.018  18.053  0.00  0.00    +0.000 A 
ATOM     12  O   UNL     1      -3.232  12.011  17.743  0.00  0.00    +0.000 OA
ATOM     13  N   UNL     1      -1.359  13.181  18.209  0.00  0.00    +0.000 N 
ATOM     14  C   UNL     1      -0.064  13.302  18.616  0.00  0.00    +0.000 A 
ATOM     15  O   UNL     1       0.409  14.423  18.790  0.00  0.00    +0.000 OA
ATOM     16  N   UNL     1       0.627  12.110  18.811  0.00  0.00    +0.000 N 
ATOM     17  C   UNL     1       2.006  12.208  19.278  0.00  0.00    +0.000 C 
ATOM     18  H   UNL     1      -1.871  14.038  18.075  0.00  0.00    +0.000 HD
ENDBRANCH   7   8
BRANCH   4  19
ATOM     19  O   UNL     1       3.323   6.312  19.430  0.00  0.00    +0.000 OA
BRANCH  19  20
ATOM     20  C   UNL     1       3.012   5.062  18.904  0.00  0.00    +0.000 A 
ATOM     21  N   UNL     1       1.955   4.404  19.458  0.00  0.00    +0.000 NA
ATOM     22  C   UNL     1       1.592   3.233  18.905  0.00  0.00    +0.000 A 
ATOM     23  C   UNL     1       2.228   2.679  17.814  0.00  0.00    +0.000 A 
ATOM     24  C   UNL     1       3.336   3.342  17.294  0.00  0.00    +0.000 A 
ATOM     25  C   UNL     1       3.799   4.544  17.858  0.00  0.00    +0.000 A 
BRANCH  25  26
ATOM     26  N   UNL     1       4.977   5.134  17.332  0.00  0.00    +0.000 N 
ATOM     27  C   UNL     1       5.023   6.114  16.276  0.00  0.00    +0.000 C 
ATOM     28  C   UNL     1       6.157   5.329  15.621  0.00  0.00    +0.000 C 
ATOM     29  F   UNL     1       5.836   4.674  14.477  0.00  0.00    +0.000 F 
ATOM     30  C   UNL     1       6.179   4.480  16.895  0.00  0.00    +0.000 C 
ENDBRANCH  25  26
ENDBRANCH  19  20
ENDBRANCH   4  19
TORSDOF 4
ENDMDL
MODEL 3
REMARK VINA RESULT:      -8.5      1.743      3.462
REMARK  Name = 
REMARK  7 active torsions:
REMARK  status: ('A' for Active; 'I' for Inactive)
REMARK    1  A    between atoms: C_1  and  C_2
REMARK    2  A    between atoms: C_4  and  O_5
REMARK    3  A    between atoms: O_5  and  C_6
REMARK    4  A    between atoms: C_11  and  N_12
REMARK    5  A    between atoms: C_19  and  C_20
REMARK    6  A    between atoms: C_21  and  C_22
REMARK    7  A    between atoms: N_28  and  C_29
REMARK                            x       y       z     vdW  Elec       q    Type
REMARK                         _______ _______ _______ _____ _____    ______ ____
ROOT
ATOM      1  C   UNL     1       0.202   9.480  21.293  0.00  0.00    +0.000 C 
ATOM      2  C   UNL     1       0.939   8.985  20.078  0.00  0.00    +0.000 A 
ATOM      3  C   UNL     1       1.797   7.874  20.202  0.00  0.00    +0.000 A 
ATOM      4  C   UNL     1       2.500   7.377  19.099  0.00  0.00    +0.000 A 
ATOM      5  C   UNL     1       2.361   8.006  17.862  0.00  0.00    +0.000 A 
ATOM      6  C   UNL     1       1.515   9.110  17.721  0.00  0.00    +0.000 A 
ATOM      7  C   UNL     1       0.810   9.621  18.823  0.00  0.00    +0.000 A 
ENDROOT
BRANCH   7   8
ATOM      8  C   UNL     1       0.003  10.854  18.630  0.00  0.00    +0.000 A 
ATOM      9  C   UNL     1      -1.292  10.741  18.267  0.00  0.00    +0.000 A 
ATOM     10  C   UNL     1      -2.079   9.481  18.053  0.00  0.00    +0.000 C 
ATOM     11  C   UNL     1      -2.072  11.987  18.063  0.00  0.00    +0.000 A 
ATOM     12  O   UNL     1      -3.256  11.970  17.741  0.00  0.00    +0.000 OA
ATOM     13  N   UNL     1      -1.405  13.156  18.255  0.00  0.00    +0.000 N 
ATOM     14  C   UNL     1      -0.115  13.286  18.677  0.00  0.00    +0.000 A 
ATOM     15  O   UNL     1       0.338  14.410  18.884  0.00  0.00    +0.000 OA
ATOM     16  N   UNL     1       0.592  12.100  18.847  0.00  0.00    +0.000 N 
ATOM     17  C   UNL     1       1.966  12.207  19.329  0.00  0.00    +0.000 C 
ATOM     18  H   UNL     1      -1.928  14.009  18.139  0.00  0.00    +0.000 HD
ENDBRANCH   7   8
BRANCH   4  19
ATOM     19  O   UNL     1       3.371   6.329  19.337  0.00  0.00    +0.000 OA
BRANCH  19  20
ATOM     20  C   UNL     1       4.003   5.734  18.250  0.00  0.00    +0.000 A 
ATOM     21  N   UNL     1       4.892   6.501  17.557  0.00  0.00    +0.000 NA
ATOM     22  C   UNL     1       5.571   5.914  16.554  0.00  0.00    +0.000 A 
ATOM     23  C   UNL     1       5.415   4.589  16.206  0.00  0.00    +0.000 A 
ATOM     24  C   UNL     1       4.468   3.836  16.894  0.00  0.00    +0.000 A 
ATOM     25  C   UNL     1       3.688   4.403  17.917  0.00  0.00    +0.000 A 
BRANCH  25  26
ATOM     26  N   UNL     1       2.686   3.608  18.531  0.00  0.00    +0.000 N 
ATOM     27  C   UNL     1       1.264   3.796  18.388  0.00  0.00    +0.000 C 
ATOM     28  C   UNL     1       1.108   3.627  19.897  0.00  0.00    +0.000 C 
ATOM     29  F   UNL     1       0.799   4.754  20.588  0.00  0.00    +0.000 F 
ATOM     30  C   UNL     1       2.583   3.217  19.909  0.00  0.00    +0.000 C 
ENDBRANCH  25  26
ENDBRANCH  19  20
ENDBRANCH   4  19
TORSDOF 4
ENDMDL
MODEL 4
REMARK VINA RESULT:      -8.5      0.998      1.030
REMARK  Name = 
REMARK  7 active torsions:
REMARK  status: ('A' for Active; 'I' for Inactive)
REMARK    1  A    between atoms: C_1  and  C_2
REMARK    2  A    between atoms: C_4  and  O_5
REMARK    3  A    between atoms: O_5  and  C_6
REMARK    4  A    between atoms: C_11  and  N_12
REMARK    5  A    between atoms: C_19  and  C_20
REMARK    6  A    between atoms: C_21  and  C_22
REMARK    7  A    between atoms: N_28  and  C_29
REMARK                            x       y       z     vdW  Elec       q    Type
REMARK                         _______ _______ _______ _____ _____    ______ ____
ROOT
ATOM      1  C   UNL     1      -0.331   9.224  21.817  0.00  0.00    +0.000 C 
ATOM      2  C   UNL     1       0.528   8.927  20.616  0.00  0.00    +0.000 A 
ATOM      3  C   UNL     1       1.422   7.838  20.666  0.00  0.00    +0.000 A 
ATOM      4  C   UNL     1       2.238   7.523  19.574  0.00  0.00    +0.000 A 
ATOM      5  C   UNL     1       2.175   8.313  18.425  0.00  0.00    +0.000 A 
ATOM      6  C   UNL     1       1.294   9.397  18.359  0.00  0.00    +0.000 A 
ATOM      7  C   UNL     1       0.477   9.726  19.452  0.00  0.00    +0.000 A 
ENDROOT
BRANCH   7   8
ATOM      8  C   UNL     1      -0.366  10.946  19.356  0.00  0.00    +0.000 A 
ATOM      9  C   UNL     1       0.105  12.111  19.848  0.00  0.00    +0.000 A 
ATOM     10  C   UNL     1       1.442  12.367  20.480  0.00  0.00    +0.000 C 
ATOM     11  C   UNL     1      -0.764  13.311  19.757  0.00  0.00    +0.000 A 
ATOM     12  O   UNL     1      -0.406  14.408  20.173  0.00  0.00    +0.000 OA
ATOM     13  N   UNL     1      -1.983  13.132  19.182  0.00  0.00    +0.000 N 
ATOM     14  C   UNL     1      -2.450  11.977  18.630  0.00  0.00    +0.000 A 
ATOM     15  O   UNL     1      -3.545  11.978  18.072  0.00  0.00    +0.000 OA
ATOM     16  N   UNL     1      -1.617  10.868  18.743  0.00  0.00    +0.000 N 
ATOM     17  C   UNL     1      -2.077   9.625  18.132  0.00  0.00    +0.000 C 
ATOM     18  H   UNL     1      -2.574  13.943  19.097  0.00  0.00    +0.000 HD
ENDBRANCH   7   8
BRANCH   4  19
ATOM     19  O   UNL     1       3.133   6.482  19.745  0.00  0.00    +0.000 OA
BRANCH  19  20
ATOM     20  C   UNL     1       3.041   5.384  18.895  0.00  0.00    +0.000 A 
ATOM     21  N   UNL     1       1.878   4.674  18.927  0.00  0.00    +0.000 NA
ATOM     22  C   UNL     1       1.744   3.660  18.053  0.00  0.00    +0.000 A 
ATOM     23  C   UNL     1       2.713   3.317  17.135  0.00  0.00    +0.000 A 
ATOM     24  C   UNL     1       3.913   4.023  17.151  0.00  0.00    +0.000 A 
ATOM     25  C   UNL     1       4.137   5.059  18.074  0.00  0.00    +0.000 A 
BRANCH  25  26
ATOM     26  N   UNL     1       5.407   5.692  18.093  0.00  0.00    +0.000 N 
ATOM     27  C   UNL     1       6.259   5.893  16.948  0.00  0.00    +0.000 C 
ATOM     28  C   UNL     1       7.449   5.403  17.769  0.00  0.00    +0.000 C 
ATOM     29  F   UNL     1       7.934   4.181  17.432  0.00  0.00    +0.000 F 
ATOM     30  C   UNL     1       6.510   5.440  18.978  0.00  0.00    +0.000 C 
ENDBRANCH  25  26
ENDBRANCH  19  20
ENDBRANCH   4  19
TORSDOF 4
ENDMDL
MODEL 5
REMARK VINA RESULT:      -8.4      1.079      2.265
REMARK  Name = 
REMARK  7 active torsions:
REMARK  status: ('A' for Active; 'I' for Inactive)
REMARK    1  A    between atoms: C_1  and  C_2
REMARK    2  A    between atoms: C_4  and  O_5
REMARK    3  A    between atoms: O_5  and  C_6
REMARK    4  A    between atoms: C_11  and  N_12
REMARK    5  A    between atoms: C_19  and  C_20
REMARK    6  A    between atoms: C_21  and  C_22
REMARK    7  A    between atoms: N_28  and  C_29
REMARK                            x       y       z     vdW  Elec       q    Type
REMARK                         _______ _______ _______ _____ _____    ______ ____
ROOT
ATOM      1  C   UNL     1       0.313   9.616  21.332  0.00  0.00    +0.000 C 
ATOM      2  C   UNL     1       0.981   9.032  20.116  0.00  0.00    +0.000 A 
ATOM      3  C   UNL     1       1.799   7.894  20.263  0.00  0.00    +0.000 A 
ATOM      4  C   UNL     1       2.437   7.315  19.162  0.00  0.00    +0.000 A 
ATOM      5  C   UNL     1       2.273   7.888  17.900  0.00  0.00    +0.000 A 
ATOM      6  C   UNL     1       1.466   9.018  17.736  0.00  0.00    +0.000 A 
ATOM      7  C   UNL     1       0.827   9.611  18.836  0.00  0.00    +0.000 A 
ENDROOT
BRANCH   7   8
ATOM      8  C   UNL     1       0.062  10.865  18.613  0.00  0.00    +0.000 A 
ATOM      9  C   UNL     1      -1.252  10.789  18.315  0.00  0.00    +0.000 A 
ATOM     10  C   UNL     1      -2.099   9.553  18.205  0.00  0.00    +0.000 C 
ATOM     11  C   UNL     1      -1.990  12.055  18.077  0.00  0.00    +0.000 A 
ATOM     12  O   UNL     1      -3.187  12.071  17.810  0.00  0.00    +0.000 OA
ATOM     13  N   UNL     1      -1.268  13.202  18.175  0.00  0.00    +0.000 N 
ATOM     14  C   UNL     1       0.044  13.299  18.531  0.00  0.00    +0.000 A 
ATOM     15  O   UNL     1       0.552  14.412  18.657  0.00  0.00    +0.000 OA
ATOM     16  N   UNL     1       0.710  12.095  18.735  0.00  0.00    +0.000 N 
ATOM     17  C   UNL     1       2.108  12.168  19.149  0.00  0.00    +0.000 C 
ATOM     18  H   UNL     1      -1.762  14.069  18.035  0.00  0.00    +0.000 HD
ENDBRANCH   7   8
BRANCH   4  19
ATOM     19  O   UNL     1       3.275   6.244  19.418  0.00  0.00    +0.000 OA
BRANCH  19  20
ATOM     20  C   UNL     1       2.860   4.972  19.038  0.00  0.00    +0.000 A 
ATOM     21  N   UNL     1       1.756   4.472  19.661  0.00  0.00    +0.000 NA
ATOM     22  C   UNL     1       1.295   3.278  19.245  0.00  0.00    +0.000 A 
ATOM     23  C   UNL     1       1.877   2.552  18.227  0.00  0.00    +0.000 A 
ATOM     24  C   UNL     1       3.032   3.058  17.638  0.00  0.00    +0.000 A 
ATOM     25  C   UNL     1       3.595   4.274  18.061  0.00  0.00    +0.000 A 
BRANCH  25  26
ATOM     26  N   UNL     1       4.814   4.702  17.475  0.00  0.00    +0.000 N 
ATOM     27  C   UNL     1       5.942   5.244  18.191  0.00  0.00    +0.000 C 
ATOM     28  C   UNL     1       6.049   6.353  17.147  0.00  0.00    +0.000 C 
ATOM     29  F   UNL     1       5.681   7.591  17.562  0.00  0.00    +0.000 F 
ATOM     30  C   UNL     1       4.999   5.574  16.349  0.00  0.00    +0.000 C 
ENDBRANCH  25  26
ENDBRANCH  19  20
ENDBRANCH   4  19
TORSDOF 4
ENDMDL
MODEL 6
REMARK VINA RESULT:      -8.4      1.681      2.817
REMARK  Name = 
REMARK  7 active torsions:
REMARK  status: ('A' for Active; 'I' for Inactive)
REMARK    1  A    between atoms: C_1  and  C_2
REMARK    2  A    between atoms: C_4  and  O_5
REMARK    3  A    between atoms: O_5  and  C_6
REMARK    4  A    between atoms: C_11  and  N_12
REMARK    5  A    between atoms: C_19  and  C_20
REMARK    6  A    between atoms: C_21  and  C_22
REMARK    7  A    between atoms: N_28  and  C_29
REMARK                            x       y       z     vdW  Elec       q    Type
REMARK                         _______ _______ _______ _____ _____    ______ ____
ROOT
ATOM      1  C   UNL     1       0.192   9.373  21.396  0.00  0.00    +0.000 C 
ATOM      2  C   UNL     1       0.920   8.976  20.141  0.00  0.00    +0.000 A 
ATOM      3  C   UNL     1       1.793   7.869  20.176  0.00  0.00    +0.000 A 
ATOM      4  C   UNL     1       2.489   7.461  19.033  0.00  0.00    +0.000 A 
ATOM      5  C   UNL     1       2.327   8.175  17.844  0.00  0.00    +0.000 A 
ATOM      6  C   UNL     1       1.465   9.274  17.792  0.00  0.00    +0.000 A 
ATOM      7  C   UNL     1       0.768   9.697  18.935  0.00  0.00    +0.000 A 
ENDROOT
BRANCH   7   8
ATOM      8  C   UNL     1      -0.057  10.929  18.840  0.00  0.00    +0.000 A 
ATOM      9  C   UNL     1       0.518  12.126  19.087  0.00  0.00    +0.000 A 
ATOM     10  C   UNL     1       1.953  12.401  19.431  0.00  0.00    +0.000 C 
ATOM     11  C   UNL     1      -0.332  13.340  19.004  0.00  0.00    +0.000 A 
ATOM     12  O   UNL     1       0.116  14.464  19.206  0.00  0.00    +0.000 OA
ATOM     13  N   UNL     1      -1.638  13.142  18.685  0.00  0.00    +0.000 N 
ATOM     14  C   UNL     1      -2.219  11.949  18.377  0.00  0.00    +0.000 A 
ATOM     15  O   UNL     1      -3.399  11.927  18.030  0.00  0.00    +0.000 OA
ATOM     16  N   UNL     1      -1.400  10.829  18.476  0.00  0.00    +0.000 N 
ATOM     17  C   UNL     1      -1.986   9.540  18.120  0.00  0.00    +0.000 C 
ATOM     18  H   UNL     1      -2.221  13.960  18.606  0.00  0.00    +0.000 HD
ENDBRANCH   7   8
BRANCH   4  19
ATOM     19  O   UNL     1       3.376   6.411  19.185  0.00  0.00    +0.000 OA
BRANCH  19  20
ATOM     20  C   UNL     1       4.002   5.903  18.051  0.00  0.00    +0.000 A 
ATOM     21  N   UNL     1       4.866   6.731  17.400  0.00  0.00    +0.000 NA
ATOM     22  C   UNL     1       5.540   6.226  16.351  0.00  0.00    +0.000 A 
ATOM     23  C   UNL     1       5.403   4.925  15.915  0.00  0.00    +0.000 A 
ATOM     24  C   UNL     1       4.478   4.110  16.563  0.00  0.00    +0.000 A 
ATOM     25  C   UNL     1       3.704   4.592  17.633  0.00  0.00    +0.000 A 
BRANCH  25  26
ATOM     26  N   UNL     1       2.726   3.739  18.205  0.00  0.00    +0.000 N 
ATOM     27  C   UNL     1       1.300   3.938  18.138  0.00  0.00    +0.000 C 
ATOM     28  C   UNL     1       1.203   3.621  19.628  0.00  0.00    +0.000 C 
ATOM     29  F   UNL     1       0.924   4.674  20.437  0.00  0.00    +0.000 F 
ATOM     30  C   UNL     1       2.677   3.215  19.541  0.00  0.00    +0.000 C 
ENDBRANCH  25  26
ENDBRANCH  19  20
ENDBRANCH   4  19
TORSDOF 4
ENDMDL
MODEL 7
REMARK VINA RESULT:      -8.2      0.916      1.064
REMARK  Name = 
REMARK  7 active torsions:
REMARK  status: ('A' for Active; 'I' for Inactive)
REMARK    1  A    between atoms: C_1  and  C_2
REMARK    2  A    between atoms: C_4  and  O_5
REMARK    3  A    between atoms: O_5  and  C_6
REMARK    4  A    between atoms: C_11  and  N_12
REMARK    5  A    between atoms: C_19  and  C_20
REMARK    6  A    between atoms: C_21  and  C_22
REMARK    7  A    between atoms: N_28  and  C_29
REMARK                            x       y       z     vdW  Elec       q    Type
REMARK                         _______ _______ _______ _____ _____    ______ ____
ROOT
ATOM      1  C   UNL     1       0.253   9.442  21.321  0.00  0.00    +0.000 C 
ATOM      2  C   UNL     1       0.973   9.000  20.075  0.00  0.00    +0.000 A 
ATOM      3  C   UNL     1       1.820   7.875  20.136  0.00  0.00    +0.000 A 
ATOM      4  C   UNL     1       2.507   7.425  19.003  0.00  0.00    +0.000 A 
ATOM      5  C   UNL     1       2.362   8.116  17.799  0.00  0.00    +0.000 A 
ATOM      6  C   UNL     1       1.527   9.234  17.721  0.00  0.00    +0.000 A 
ATOM      7  C   UNL     1       0.839   9.698  18.854  0.00  0.00    +0.000 A 
ENDROOT
BRANCH   7   8
ATOM      8  C   UNL     1       0.043  10.946  18.730  0.00  0.00    +0.000 A 
ATOM      9  C   UNL     1       0.658  12.137  18.891  0.00  0.00    +0.000 A 
ATOM     10  C   UNL     1       2.114  12.389  19.158  0.00  0.00    +0.000 C 
ATOM     11  C   UNL     1      -0.162  13.369  18.781  0.00  0.00    +0.000 A 
ATOM     12  O   UNL     1       0.323  14.489  18.905  0.00  0.00    +0.000 OA
ATOM     13  N   UNL     1      -1.486  13.193  18.529  0.00  0.00    +0.000 N 
ATOM     14  C   UNL     1      -2.111  12.002  18.308  0.00  0.00    +0.000 A 
ATOM     15  O   UNL     1      -3.305  11.996  18.013  0.00  0.00    +0.000 OA
ATOM     16  N   UNL     1      -1.318  10.866  18.430  0.00  0.00    +0.000 N 
ATOM     17  C   UNL     1      -1.952   9.578  18.167  0.00  0.00    +0.000 C 
ATOM     18  H   UNL     1      -2.050  14.022  18.433  0.00  0.00    +0.000 HD
ENDBRANCH   7   8
BRANCH   4  19
ATOM     19  O   UNL     1       3.369   6.358  19.180  0.00  0.00    +0.000 OA
BRANCH  19  20
ATOM     20  C   UNL     1       2.938   5.090  18.806  0.00  0.00    +0.000 A 
ATOM     21  N   UNL     1       1.851   4.590  19.458  0.00  0.00    +0.000 NA
ATOM     22  C   UNL     1       1.373   3.400  19.050  0.00  0.00    +0.000 A 
ATOM     23  C   UNL     1       1.922   2.677  18.013  0.00  0.00    +0.000 A 
ATOM     24  C   UNL     1       3.062   3.181  17.392  0.00  0.00    +0.000 A 
ATOM     25  C   UNL     1       3.642   4.394  17.805  0.00  0.00    +0.000 A 
BRANCH  25  26
ATOM     26  N   UNL     1       4.845   4.819  17.186  0.00  0.00    +0.000 N 
ATOM     27  C   UNL     1       6.062   5.170  17.874  0.00  0.00    +0.000 C 
ATOM     28  C   UNL     1       6.181   6.412  16.995  0.00  0.00    +0.000 C 
ATOM     29  F   UNL     1       5.944   7.597  17.612  0.00  0.00    +0.000 F 
ATOM     30  C   UNL     1       5.017   5.834  16.184  0.00  0.00    +0.000 C 
ENDBRANCH  25  26
ENDBRANCH  19  20
ENDBRANCH   4  19
TORSDOF 4
ENDMDL
MODEL 8
REMARK VINA RESULT:      -8.2      1.490      3.245
REMARK  Name = 
REMARK  7 active torsions:
REMARK  status: ('A' for Active; 'I' for Inactive)
REMARK    1  A    between atoms: C_1  and  C_2
REMARK    2  A    between atoms: C_4  and  O_5
REMARK    3  A    between atoms: O_5  and  C_6
REMARK    4  A    between atoms: C_11  and  N_12
REMARK    5  A    between atoms: C_19  and  C_20
REMARK    6  A    between atoms: C_21  and  C_22
REMARK    7  A    between atoms: N_28  and  C_29
REMARK                            x       y       z     vdW  Elec       q    Type
REMARK                         _______ _______ _______ _____ _____    ______ ____
ROOT
ATOM      1  C   UNL     1      -0.031   9.088  21.446  0.00  0.00    +0.000 C 
ATOM      2  C   UNL     1       0.775   8.856  20.195  0.00  0.00    +0.000 A 
ATOM      3  C   UNL     1       1.698   7.791  20.163  0.00  0.00    +0.000 A 
ATOM      4  C   UNL     1       2.466   7.535  19.022  0.00  0.00    +0.000 A 
ATOM      5  C   UNL     1       2.326   8.361  17.906  0.00  0.00    +0.000 A 
ATOM      6  C   UNL     1       1.416   9.422  17.922  0.00  0.00    +0.000 A 
ATOM      7  C   UNL     1       0.646   9.693  19.064  0.00  0.00    +0.000 A 
ENDROOT
BRANCH   7   8
ATOM      8  C   UNL     1      -0.232  10.891  19.052  0.00  0.00    +0.000 A 
ATOM      9  C   UNL     1      -1.479  10.788  18.547  0.00  0.00    +0.000 A 
ATOM     10  C   UNL     1      -2.148   9.561  17.997  0.00  0.00    +0.000 C 
ATOM     11  C   UNL     1      -2.330  12.004  18.529  0.00  0.00    +0.000 A 
ATOM     12  O   UNL     1      -3.477  11.991  18.094  0.00  0.00    +0.000 OA
ATOM     13  N   UNL     1      -1.771  13.139  19.026  0.00  0.00    +0.000 N 
ATOM     14  C   UNL     1      -0.536  13.247  19.592  0.00  0.00    +0.000 A 
ATOM     15  O   UNL     1      -0.188  14.323  20.073  0.00  0.00    +0.000 OA
ATOM     16  N   UNL     1       0.241  12.093  19.582  0.00  0.00    +0.000 N 
ATOM     17  C   UNL     1       1.556  12.169  20.210  0.00  0.00    +0.000 C 
ATOM     18  H   UNL     1      -2.345  13.967  19.037  0.00  0.00    +0.000 HD
ENDBRANCH   7   8
BRANCH   4  19
ATOM     19  O   UNL     1       3.394   6.513  19.113  0.00  0.00    +0.000 OA
BRANCH  19  20
ATOM     20  C   UNL     1       3.999   6.063  17.943  0.00  0.00    +0.000 A 
ATOM     21  N   UNL     1       4.688   6.983  17.211  0.00  0.00    +0.000 NA
ATOM     22  C   UNL     1       5.346   6.546  16.122  0.00  0.00    +0.000 A 
ATOM     23  C   UNL     1       5.361   5.226  15.724  0.00  0.00    +0.000 A 
ATOM     24  C   UNL     1       4.611   4.310  16.457  0.00  0.00    +0.000 A 
ATOM     25  C   UNL     1       3.858   4.712  17.575  0.00  0.00    +0.000 A 
BRANCH  25  26
ATOM     26  N   UNL     1       3.054   3.749  18.237  0.00  0.00    +0.000 N 
ATOM     27  C   UNL     1       3.435   3.006  19.412  0.00  0.00    +0.000 C 
ATOM     28  C   UNL     1       2.909   1.732  18.757  0.00  0.00    +0.000 C 
ATOM     29  F   UNL     1       3.851   0.841  18.359  0.00  0.00    +0.000 F 
ATOM     30  C   UNL     1       2.342   2.641  17.662  0.00  0.00    +0.000 C 
ENDBRANCH  25  26
ENDBRANCH  19  20
ENDBRANCH   4  19
TORSDOF 4
ENDMDL
MODEL 9
REMARK VINA RESULT:      -8.0      1.425      2.596
REMARK  Name = 
REMARK  7 active torsions:
REMARK  status: ('A' for Active; 'I' for Inactive)
REMARK    1  A    between atoms: C_1  and  C_2
REMARK    2  A    between atoms: C_4  and  O_5
REMARK    3  A    between atoms: O_5  and  C_6
REMARK    4  A    between atoms: C_11  and  N_12
REMARK    5  A    between atoms: C_19  and  C_20
REMARK    6  A    between atoms: C_21  and  C_22
REMARK    7  A    between atoms: N_28  and  C_29
REMARK                            x       y       z     vdW  Elec       q    Type
REMARK                         _______ _______ _______ _____ _____    ______ ____
ROOT
ATOM      1  C   UNL     1       0.014   9.100  21.502  0.00  0.00    +0.000 C 
ATOM      2  C   UNL     1       0.810   8.881  20.243  0.00  0.00    +0.000 A 
ATOM      3  C   UNL     1       1.745   7.827  20.198  0.00  0.00    +0.000 A 
ATOM      4  C   UNL     1       2.504   7.583  19.048  0.00  0.00    +0.000 A 
ATOM      5  C   UNL     1       2.343   8.411  17.936  0.00  0.00    +0.000 A 
ATOM      6  C   UNL     1       1.421   9.461  17.964  0.00  0.00    +0.000 A 
ATOM      7  C   UNL     1       0.659   9.719  19.115  0.00  0.00    +0.000 A 
ENDROOT
BRANCH   7   8
ATOM      8  C   UNL     1      -0.233  10.907  19.116  0.00  0.00    +0.000 A 
ATOM      9  C   UNL     1       0.210  12.061  19.659  0.00  0.00    +0.000 A 
ATOM     10  C   UNL     1       1.557  12.334  20.263  0.00  0.00    +0.000 C 
ATOM     11  C   UNL     1      -0.707  13.228  19.664  0.00  0.00    +0.000 A 
ATOM     12  O   UNL     1      -0.377  14.314  20.131  0.00  0.00    +0.000 OA
ATOM     13  N   UNL     1      -1.936  13.034  19.118  0.00  0.00    +0.000 N 
ATOM     14  C   UNL     1      -2.377  11.894  18.515  0.00  0.00    +0.000 A 
ATOM     15  O   UNL     1      -3.490  11.882  17.992  0.00  0.00    +0.000 OA
ATOM     16  N   UNL     1      -1.499  10.815  18.538  0.00  0.00    +0.000 N 
ATOM     17  C   UNL     1      -1.931   9.590  17.871  0.00  0.00    +0.000 C 
ATOM     18  H   UNL     1      -2.560  13.824  19.098  0.00  0.00    +0.000 HD
ENDBRANCH   7   8
BRANCH   4  19
ATOM     19  O   UNL     1       3.445   6.572  19.127  0.00  0.00    +0.000 OA
BRANCH  19  20
ATOM     20  C   UNL     1       4.001   6.092  17.945  0.00  0.00    +0.000 A 
ATOM     21  N   UNL     1       4.641   6.997  17.152  0.00  0.00    +0.000 NA
ATOM     22  C   UNL     1       5.253   6.532  16.047  0.00  0.00    +0.000 A 
ATOM     23  C   UNL     1       5.268   5.201  15.691  0.00  0.00    +0.000 A 
ATOM     24  C   UNL     1       4.567   4.300  16.488  0.00  0.00    +0.000 A 
ATOM     25  C   UNL     1       3.862   4.728  17.627  0.00  0.00    +0.000 A 
BRANCH  25  26
ATOM     26  N   UNL     1       3.105   3.776  18.357  0.00  0.00    +0.000 N 
ATOM     27  C   UNL     1       3.598   2.974  19.449  0.00  0.00    +0.000 C 
ATOM     28  C   UNL     1       2.931   1.750  18.827  0.00  0.00    +0.000 C 
ATOM     29  F   UNL     1       3.771   0.834  18.282  0.00  0.00    +0.000 F 
ATOM     30  C   UNL     1       2.273   2.723  17.845  0.00  0.00    +0.000 C 
ENDBRANCH  25  26
ENDBRANCH  19  20
ENDBRANCH   4  19
TORSDOF 4
ENDMDL
