MODEL 1
REMARK VINA RESULT:      -9.4      0.000      0.000
REMARK  Name = 
REMARK  5 active torsions:
REMARK  status: ('A' for Active; 'I' for Inactive)
REMARK    1  A    between atoms: N_1  and  C_2
REMARK    2  A    between atoms: N_11  and  C_12
REMARK    3  A    between atoms: C_12  and  C_13
REMARK    4  A    between atoms: C_16  and  C_17
REMARK    5  A    between atoms: C_22  and  C_23
REMARK                            x       y       z     vdW  Elec       q    Type
REMARK                         _______ _______ _______ _____ _____    ______ ____
ROOT
ATOM      1  C   UNL     1       1.447   9.563  19.318  0.00  0.00    +0.000 A 
ATOM      2  C   UNL     1       1.633   8.437  20.125  0.00  0.00    +0.000 A 
ATOM      3  C   UNL     1       2.294   7.301  19.631  0.00  0.00    +0.000 A 
ATOM      4  C   UNL     1       2.750   7.223  18.300  0.00  0.00    +0.000 A 
ATOM      5  C   UNL     1       2.421   8.311  17.471  0.00  0.00    +0.000 A 
ATOM      6  C   UNL     1       1.826   9.478  17.975  0.00  0.00    +0.000 A 
ENDROOT
BRANCH   4   7
ATOM      7  C   UNL     1       3.553   6.054  17.819  0.00  0.00    +0.000 A 
ATOM      8  C   UNL     1       4.541   6.269  16.824  0.00  0.00    +0.000 A 
ATOM      9  C   UNL     1       5.337   5.235  16.315  0.00  0.00    +0.000 A 
ATOM     10  C   UNL     1       5.198   3.947  16.803  0.00  0.00    +0.000 A 
ATOM     11  C   UNL     1       4.238   3.693  17.784  0.00  0.00    +0.000 A 
ATOM     12  C   UNL     1       3.398   4.714  18.276  0.00  0.00    +0.000 A 
BRANCH  12  13
ATOM     13  C   UNL     1       2.392   4.293  19.246  0.00  0.00    +0.000 A 
ATOM     14  N   UNL     1       2.685   4.141  20.584  0.00  0.00    +0.000 NA
ATOM     15  N   UNL     1       1.554   3.804  21.188  0.00  0.00    +0.000 NA
ATOM     16  N   UNL     1       0.650   3.760  20.204  0.00  0.00    +0.000 N 
ATOM     17  N   UNL     1       1.113   3.991  18.967  0.00  0.00    +0.000 NA
ATOM     18  H   UNL     1      -0.333   3.581  20.389  0.00  0.00    +0.000 HD
ENDBRANCH  12  13
ENDBRANCH   4   7
BRANCH   1  19
ATOM     19  C   UNL     1       1.013  10.892  19.921  0.00  0.00    +0.000 C 
BRANCH  19  29
ATOM     20  C   UNL     1      -1.595  11.864  22.137  0.00  0.00    +0.000 C 
ATOM     21  C   UNL     1      -2.763  12.467  21.374  0.00  0.00    +0.000 C 
ATOM     22  C   UNL     1      -2.390  12.973  19.987  0.00  0.00    +0.000 C 
ATOM     23  C   UNL     1      -2.311  11.844  18.995  0.00  0.00    +0.000 A 
ATOM     24  C   UNL     1      -3.207  11.806  17.913  0.00  0.00    +0.000 A 
ATOM     25  C   UNL     1      -3.151  10.776  16.974  0.00  0.00    +0.000 A 
ATOM     26  C   UNL     1      -2.195   9.772  17.102  0.00  0.00    +0.000 A 
ATOM     27  C   UNL     1      -1.285   9.813  18.159  0.00  0.00    +0.000 A 
ATOM     28  C   UNL     1      -1.338  10.843  19.111  0.00  0.00    +0.000 A 
ATOM     29  N   UNL     1      -0.423  10.836  20.186  0.00  0.00    +0.000 N 
ATOM     30  C   UNL     1      -0.838  10.671  21.497  0.00  0.00    +0.000 C 
ATOM     31  O   UNL     1      -0.357   9.779  22.208  0.00  0.00    +0.000 OA
BRANCH  20  32
ATOM     32  N   UNL     1      -2.071  11.471  23.485  0.00  0.00    +0.000 NA
ATOM     33  H   UNL     1      -1.330  10.963  23.964  0.00  0.00    +0.000 HD
ATOM     34  H   UNL     1      -2.841  10.806  23.355  0.00  0.00    +0.000 HD
ENDBRANCH  20  32
ENDBRANCH  19  29
ENDBRANCH   1  19
TORSDOF 5
ENDMDL
MODEL 2
REMARK VINA RESULT:      -9.2      2.092      2.794
REMARK  Name = 
REMARK  5 active torsions:
REMARK  status: ('A' for Active; 'I' for Inactive)
REMARK    1  A    between atoms: N_1  and  C_2
REMARK    2  A    between atoms: N_11  and  C_12
REMARK    3  A    between atoms: C_12  and  C_13
REMARK    4  A    between atoms: C_16  and  C_17
REMARK    5  A    between atoms: C_22  and  C_23
REMARK                            x       y       z     vdW  Elec       q    Type
REMARK                         _______ _______ _______ _____ _____    ______ ____
ROOT
ATOM      1  C   UNL     1       1.700   9.679  19.118  0.00  0.00    +0.000 A 
ATOM      2  C   UNL     1       2.050   9.292  17.820  0.00  0.00    +0.000 A 
ATOM      3  C   UNL     1       2.318   7.947  17.521  0.00  0.00    +0.000 A 
ATOM      4  C   UNL     1       2.300   6.945  18.511  0.00  0.00    +0.000 A 
ATOM      5  C   UNL     1       2.090   7.385  19.830  0.00  0.00    +0.000 A 
ATOM      6  C   UNL     1       1.749   8.714  20.127  0.00  0.00    +0.000 A 
ENDROOT
BRANCH   4   7
ATOM      7  C   UNL     1       2.475   5.499  18.159  0.00  0.00    +0.000 A 
ATOM      8  C   UNL     1       1.441   4.587  18.490  0.00  0.00    +0.000 A 
ATOM      9  C   UNL     1       1.520   3.219  18.200  0.00  0.00    +0.000 A 
ATOM     10  C   UNL     1       2.627   2.711  17.541  0.00  0.00    +0.000 A 
ATOM     11  C   UNL     1       3.667   3.576  17.197  0.00  0.00    +0.000 A 
ATOM     12  C   UNL     1       3.623   4.948  17.520  0.00  0.00    +0.000 A 
BRANCH  12  13
ATOM     13  C   UNL     1       4.809   5.720  17.164  0.00  0.00    +0.000 A 
ATOM     14  N   UNL     1       5.778   6.042  18.090  0.00  0.00    +0.000 NA
ATOM     15  N   UNL     1       6.729   6.694  17.437  0.00  0.00    +0.000 NA
ATOM     16  N   UNL     1       6.295   6.743  16.174  0.00  0.00    +0.000 N 
ATOM     17  N   UNL     1       5.085   6.215  15.945  0.00  0.00    +0.000 NA
ATOM     18  H   UNL     1       6.862   7.141  15.430  0.00  0.00    +0.000 HD
ENDBRANCH  12  13
ENDBRANCH   4   7
BRANCH   1  19
ATOM     19  C   UNL     1       1.118  11.060  19.389  0.00  0.00    +0.000 C 
BRANCH  19  29
ATOM     20  C   UNL     1      -1.222  11.844  21.951  0.00  0.00    +0.000 C 
ATOM     21  C   UNL     1      -2.523  12.362  21.361  0.00  0.00    +0.000 C 
ATOM     22  C   UNL     1      -2.381  12.894  19.941  0.00  0.00    +0.000 C 
ATOM     23  C   UNL     1      -2.360  11.775  18.936  0.00  0.00    +0.000 A 
ATOM     24  C   UNL     1      -3.391  11.675  17.986  0.00  0.00    +0.000 A 
ATOM     25  C   UNL     1      -3.392  10.651  17.038  0.00  0.00    +0.000 A 
ATOM     26  C   UNL     1      -2.359   9.718  17.024  0.00  0.00    +0.000 A 
ATOM     27  C   UNL     1      -1.317   9.822  17.947  0.00  0.00    +0.000 A 
ATOM     28  C   UNL     1      -1.312  10.845  18.907  0.00  0.00    +0.000 A 
ATOM     29  N   UNL     1      -0.260  10.902  19.847  0.00  0.00    +0.000 N 
ATOM     30  C   UNL     1      -0.479  10.708  21.201  0.00  0.00    +0.000 C 
ATOM     31  O   UNL     1       0.156   9.851  21.830  0.00  0.00    +0.000 OA
BRANCH  20  32
ATOM     32  N   UNL     1      -1.481  11.417  23.347  0.00  0.00    +0.000 NA
ATOM     33  H   UNL     1      -1.094  12.112  23.984  0.00  0.00    +0.000 HD
ATOM     34  H   UNL     1      -0.951  10.553  23.506  0.00  0.00    +0.000 HD
ENDBRANCH  20  32
ENDBRANCH  19  29
ENDBRANCH   1  19
TORSDOF 5
ENDMDL
MODEL 3
REMARK VINA RESULT:      -9.1      3.814      5.545
REMARK  Name = 
REMARK  5 active torsions:
REMARK  status: ('A' for Active; 'I' for Inactive)
REMARK    1  A    between atoms: N_1  and  C_2
REMARK    2  A    between atoms: N_11  and  C_12
REMARK    3  A    between atoms: C_12  and  C_13
REMARK    4  A    between atoms: C_16  and  C_17
REMARK    5  A    between atoms: C_22  and  C_23
REMARK                            x       y       z     vdW  Elec       q    Type
REMARK                         _______ _______ _______ _____ _____    ______ ____
ROOT
ATOM      1  C   UNL     1      -0.348  13.014  18.891  0.00  0.00    +0.000 A 
ATOM      2  C   UNL     1      -1.149  11.887  19.101  0.00  0.00    +0.000 A 
ATOM      3  C   UNL     1      -0.580  10.606  19.174  0.00  0.00    +0.000 A 
ATOM      4  C   UNL     1       0.799  10.390  18.986  0.00  0.00    +0.000 A 
ATOM      5  C   UNL     1       1.557  11.521  18.631  0.00  0.00    +0.000 A 
ATOM      6  C   UNL     1       1.010  12.814  18.629  0.00  0.00    +0.000 A 
ENDROOT
BRANCH   4   7
ATOM      7  C   UNL     1       1.410   9.036  19.177  0.00  0.00    +0.000 A 
ATOM      8  C   UNL     1       2.065   8.422  18.080  0.00  0.00    +0.000 A 
ATOM      9  C   UNL     1       2.662   7.158  18.168  0.00  0.00    +0.000 A 
ATOM     10  C   UNL     1       2.654   6.468  19.369  0.00  0.00    +0.000 A 
ATOM     11  C   UNL     1       2.020   7.038  20.474  0.00  0.00    +0.000 A 
ATOM     12  C   UNL     1       1.376   8.290  20.391  0.00  0.00    +0.000 A 
BRANCH  12  13
ATOM     13  C   UNL     1       0.693   8.732  21.602  0.00  0.00    +0.000 A 
ATOM     14  N   UNL     1       1.297   9.564  22.520  0.00  0.00    +0.000 NA
ATOM     15  N   UNL     1       0.398   9.810  23.463  0.00  0.00    +0.000 NA
ATOM     16  N   UNL     1      -0.682   9.121  23.083  0.00  0.00    +0.000 N 
ATOM     17  N   UNL     1      -0.550   8.381  21.974  0.00  0.00    +0.000 NA
ATOM     18  H   UNL     1      -1.557   9.173  23.598  0.00  0.00    +0.000 HD
ENDBRANCH  12  13
ENDBRANCH   4   7
BRANCH   1  19
ATOM     19  C   UNL     1      -0.899  14.415  19.112  0.00  0.00    +0.000 C 
BRANCH  19  29
ATOM     20  C   UNL     1       2.157  14.692  20.911  0.00  0.00    +0.000 C 
ATOM     21  C   UNL     1       3.241  15.323  20.051  0.00  0.00    +0.000 C 
ATOM     22  C   UNL     1       2.966  15.228  18.556  0.00  0.00    +0.000 C 
ATOM     23  C   UNL     1       1.987  16.281  18.111  0.00  0.00    +0.000 A 
ATOM     24  C   UNL     1       2.398  17.273  17.205  0.00  0.00    +0.000 A 
ATOM     25  C   UNL     1       1.508  18.256  16.770  0.00  0.00    +0.000 A 
ATOM     26  C   UNL     1       0.195  18.256  17.231  0.00  0.00    +0.000 A 
ATOM     27  C   UNL     1      -0.230  17.261  18.113  0.00  0.00    +0.000 A 
ATOM     28  C   UNL     1       0.660  16.272  18.559  0.00  0.00    +0.000 A 
ATOM     29  N   UNL     1       0.205  15.299  19.476  0.00  0.00    +0.000 N 
ATOM     30  C   UNL     1       0.707  15.220  20.765  0.00  0.00    +0.000 C 
ATOM     31  O   UNL     1      -0.051  15.252  21.743  0.00  0.00    +0.000 OA
BRANCH  20  32
ATOM     32  N   UNL     1       2.571  14.793  22.331  0.00  0.00    +0.000 NA
ATOM     33  H   UNL     1       3.368  14.179  22.489  0.00  0.00    +0.000 HD
ATOM     34  H   UNL     1       1.803  14.421  22.900  0.00  0.00    +0.000 HD
ENDBRANCH  20  32
ENDBRANCH  19  29
ENDBRANCH   1  19
TORSDOF 5
ENDMDL
MODEL 4
REMARK VINA RESULT:      -9.0      3.004      8.490
REMARK  Name = 
REMARK  5 active torsions:
REMARK  status: ('A' for Active; 'I' for Inactive)
REMARK    1  A    between atoms: N_1  and  C_2
REMARK    2  A    between atoms: N_11  and  C_12
REMARK    3  A    between atoms: C_12  and  C_13
REMARK    4  A    between atoms: C_16  and  C_17
REMARK    5  A    between atoms: C_22  and  C_23
REMARK                            x       y       z     vdW  Elec       q    Type
REMARK                         _______ _______ _______ _____ _____    ______ ____
ROOT
ATOM      1  C   UNL     1       2.648   7.193  17.901  0.00  0.00    +0.000 A 
ATOM      2  C   UNL     1       2.310   6.569  19.106  0.00  0.00    +0.000 A 
ATOM      3  C   UNL     1       1.661   7.283  20.126  0.00  0.00    +0.000 A 
ATOM      4  C   UNL     1       1.373   8.657  20.007  0.00  0.00    +0.000 A 
ATOM      5  C   UNL     1       1.854   9.290  18.847  0.00  0.00    +0.000 A 
ATOM      6  C   UNL     1       2.437   8.570  17.792  0.00  0.00    +0.000 A 
ENDROOT
BRANCH   4   7
ATOM      7  C   UNL     1       0.581   9.380  21.053  0.00  0.00    +0.000 A 
ATOM      8  C   UNL     1       0.755   9.017  22.413  0.00  0.00    +0.000 A 
ATOM      9  C   UNL     1       0.057   9.638  23.455  0.00  0.00    +0.000 A 
ATOM     10  C   UNL     1      -0.826  10.670  23.182  0.00  0.00    +0.000 A 
ATOM     11  C   UNL     1      -1.025  11.059  21.857  0.00  0.00    +0.000 A 
ATOM     12  C   UNL     1      -0.363  10.415  20.791  0.00  0.00    +0.000 A 
BRANCH  12  13
ATOM     13  C   UNL     1      -0.720  10.875  19.453  0.00  0.00    +0.000 A 
ATOM     14  N   UNL     1      -1.564  10.158  18.633  0.00  0.00    +0.000 NA
ATOM     15  N   UNL     1      -1.717  10.871  17.525  0.00  0.00    +0.000 NA
ATOM     16  N   UNL     1      -0.966  11.959  17.721  0.00  0.00    +0.000 N 
ATOM     17  N   UNL     1      -0.271  11.999  18.866  0.00  0.00    +0.000 NA
ATOM     18  H   UNL     1      -0.941  12.719  17.046  0.00  0.00    +0.000 HD
ENDBRANCH  12  13
ENDBRANCH   4   7
BRANCH   1  19
ATOM     19  C   UNL     1       3.067   6.372  16.689  0.00  0.00    +0.000 C 
BRANCH  19  29
ATOM     20  C   UNL     1       6.500   6.558  17.602  0.00  0.00    +0.000 C 
ATOM     21  C   UNL     1       6.793   5.675  18.805  0.00  0.00    +0.000 C 
ATOM     22  C   UNL     1       5.558   5.333  19.627  0.00  0.00    +0.000 C 
ATOM     23  C   UNL     1       4.767   4.222  18.991  0.00  0.00    +0.000 A 
ATOM     24  C   UNL     1       4.625   2.997  19.665  0.00  0.00    +0.000 A 
ATOM     25  C   UNL     1       3.890   1.952  19.102  0.00  0.00    +0.000 A 
ATOM     26  C   UNL     1       3.284   2.122  17.861  0.00  0.00    +0.000 A 
ATOM     27  C   UNL     1       3.398   3.342  17.194  0.00  0.00    +0.000 A 
ATOM     28  C   UNL     1       4.140   4.395  17.751  0.00  0.00    +0.000 A 
ATOM     29  N   UNL     1       4.262   5.606  17.034  0.00  0.00    +0.000 N 
ATOM     30  C   UNL     1       5.482   6.047  16.550  0.00  0.00    +0.000 C 
ATOM     31  O   UNL     1       5.627   6.324  15.352  0.00  0.00    +0.000 OA
BRANCH  20  32
ATOM     32  N   UNL     1       7.784   6.868  16.928  0.00  0.00    +0.000 NA
ATOM     33  H   UNL     1       7.638   6.865  15.920  0.00  0.00    +0.000 HD
ATOM     34  H   UNL     1       8.429   6.096  17.129  0.00  0.00    +0.000 HD
ENDBRANCH  20  32
ENDBRANCH  19  29
ENDBRANCH   1  19
TORSDOF 5
ENDMDL
MODEL 5
REMARK VINA RESULT:      -8.9      4.422      6.275
REMARK  Name = 
REMARK  5 active torsions:
REMARK  status: ('A' for Active; 'I' for Inactive)
REMARK    1  A    between atoms: N_1  and  C_2
REMARK    2  A    between atoms: N_11  and  C_12
REMARK    3  A    between atoms: C_12  and  C_13
REMARK    4  A    between atoms: C_16  and  C_17
REMARK    5  A    between atoms: C_22  and  C_23
REMARK                            x       y       z     vdW  Elec       q    Type
REMARK                         _______ _______ _______ _____ _____    ______ ____
ROOT
ATOM      1  C   UNL     1      -0.092  14.191  19.953  0.00  0.00    +0.000 A 
ATOM      2  C   UNL     1      -0.603  13.418  18.906  0.00  0.00    +0.000 A 
ATOM      3  C   UNL     1      -0.113  12.125  18.663  0.00  0.00    +0.000 A 
ATOM      4  C   UNL     1       0.940  11.573  19.418  0.00  0.00    +0.000 A 
ATOM      5  C   UNL     1       1.532  12.427  20.367  0.00  0.00    +0.000 A 
ATOM      6  C   UNL     1       1.001  13.691  20.665  0.00  0.00    +0.000 A 
ENDROOT
BRANCH   4   7
ATOM      7  C   UNL     1       1.377  10.153  19.224  0.00  0.00    +0.000 A 
ATOM      8  C   UNL     1       1.949   9.780  17.982  0.00  0.00    +0.000 A 
ATOM      9  C   UNL     1       2.385   8.476  17.713  0.00  0.00    +0.000 A 
ATOM     10  C   UNL     1       2.291   7.497  18.688  0.00  0.00    +0.000 A 
ATOM     11  C   UNL     1       1.735   7.824  19.926  0.00  0.00    +0.000 A 
ATOM     12  C   UNL     1       1.252   9.121  20.198  0.00  0.00    +0.000 A 
BRANCH  12  13
ATOM     13  C   UNL     1       0.631   9.304  21.506  0.00  0.00    +0.000 A 
ATOM     14  N   UNL     1       1.371   9.583  22.635  0.00  0.00    +0.000 NA
ATOM     15  N   UNL     1       0.508   9.737  23.630  0.00  0.00    +0.000 NA
ATOM     16  N   UNL     1      -0.688   9.537  23.068  0.00  0.00    +0.000 N 
ATOM     17  N   UNL     1      -0.683   9.203  21.770  0.00  0.00    +0.000 NA
ATOM     18  H   UNL     1      -1.550   9.652  23.594  0.00  0.00    +0.000 HD
ENDBRANCH  12  13
ENDBRANCH   4   7
BRANCH   1  19
ATOM     19  C   UNL     1      -0.811  15.452  20.414  0.00  0.00    +0.000 C 
BRANCH  19  29
ATOM     20  C   UNL     1       2.231  16.946  21.496  0.00  0.00    +0.000 C 
ATOM     21  C   UNL     1       3.081  17.373  20.310  0.00  0.00    +0.000 C 
ATOM     22  C   UNL     1       2.725  16.656  19.015  0.00  0.00    +0.000 C 
ATOM     23  C   UNL     1       1.506  17.260  18.371  0.00  0.00    +0.000 A 
ATOM     24  C   UNL     1       1.619  17.876  17.113  0.00  0.00    +0.000 A 
ATOM     25  C   UNL     1       0.503  18.437  16.490  0.00  0.00    +0.000 A 
ATOM     26  C   UNL     1      -0.740  18.383  17.115  0.00  0.00    +0.000 A 
ATOM     27  C   UNL     1      -0.867  17.752  18.353  0.00  0.00    +0.000 A 
ATOM     28  C   UNL     1       0.251  17.191  18.988  0.00  0.00    +0.000 A 
ATOM     29  N   UNL     1       0.093  16.588  20.256  0.00  0.00    +0.000 N 
ATOM     30  C   UNL     1       0.692  17.108  21.391  0.00  0.00    +0.000 C 
ATOM     31  O   UNL     1       0.021  17.384  22.394  0.00  0.00    +0.000 OA
BRANCH  20  32
ATOM     32  N   UNL     1       2.715  17.664  22.699  0.00  0.00    +0.000 NA
ATOM     33  H   UNL     1       1.955  18.224  23.080  0.00  0.00    +0.000 HD
ATOM     34  H   UNL     1       3.435  18.327  22.391  0.00  0.00    +0.000 HD
ENDBRANCH  20  32
ENDBRANCH  19  29
ENDBRANCH   1  19
TORSDOF 5
ENDMDL
MODEL 6
REMARK VINA RESULT:      -8.9      3.265      5.722
REMARK  Name = 
REMARK  5 active torsions:
REMARK  status: ('A' for Active; 'I' for Inactive)
REMARK    1  A    between atoms: N_1  and  C_2
REMARK    2  A    between atoms: N_11  and  C_12
REMARK    3  A    between atoms: C_12  and  C_13
REMARK    4  A    between atoms: C_16  and  C_17
REMARK    5  A    between atoms: C_22  and  C_23
REMARK                            x       y       z     vdW  Elec       q    Type
REMARK                         _______ _______ _______ _____ _____    ______ ____
ROOT
ATOM      1  C   UNL     1      -0.683  13.818  19.674  0.00  0.00    +0.000 A 
ATOM      2  C   UNL     1      -1.206  12.850  18.811  0.00  0.00    +0.000 A 
ATOM      3  C   UNL     1      -0.591  11.594  18.685  0.00  0.00    +0.000 A 
ATOM      4  C   UNL     1       0.596  11.273  19.370  0.00  0.00    +0.000 A 
ATOM      5  C   UNL     1       1.179  12.313  20.116  0.00  0.00    +0.000 A 
ATOM      6  C   UNL     1       0.534  13.545  20.306  0.00  0.00    +0.000 A 
ENDROOT
BRANCH   4   7
ATOM      7  C   UNL     1       1.179   9.893  19.315  0.00  0.00    +0.000 A 
ATOM      8  C   UNL     1       1.791   9.459  18.112  0.00  0.00    +0.000 A 
ATOM      9  C   UNL     1       2.360   8.187  17.971  0.00  0.00    +0.000 A 
ATOM     10  C   UNL     1       2.365   7.306  19.039  0.00  0.00    +0.000 A 
ATOM     11  C   UNL     1       1.774   7.695  20.242  0.00  0.00    +0.000 A 
ATOM     12  C   UNL     1       1.158   8.956  20.388  0.00  0.00    +0.000 A 
BRANCH  12  13
ATOM     13  C   UNL     1       0.518   9.202  21.676  0.00  0.00    +0.000 A 
ATOM     14  N   UNL     1       1.200   9.754  22.739  0.00  0.00    +0.000 NA
ATOM     15  N   UNL     1       0.325   9.889  23.726  0.00  0.00    +0.000 NA
ATOM     16  N   UNL     1      -0.819   9.413  23.226  0.00  0.00    +0.000 N 
ATOM     17  N   UNL     1      -0.759   8.914  21.984  0.00  0.00    +0.000 NA
ATOM     18  H   UNL     1      -1.687   9.447  23.754  0.00  0.00    +0.000 HD
ENDBRANCH  12  13
ENDBRANCH   4   7
BRANCH   1  19
ATOM     19  C   UNL     1      -1.495  15.050  20.048  0.00  0.00    +0.000 C 
BRANCH  19  29
ATOM     20  C   UNL     1      -3.482  12.667  21.787  0.00  0.00    +0.000 C 
ATOM     21  C   UNL     1      -2.989  12.481  23.213  0.00  0.00    +0.000 C 
ATOM     22  C   UNL     1      -1.546  12.922  23.422  0.00  0.00    +0.000 C 
ATOM     23  C   UNL     1      -1.446  14.416  23.571  0.00  0.00    +0.000 A 
ATOM     24  C   UNL     1      -0.993  14.964  24.783  0.00  0.00    +0.000 A 
ATOM     25  C   UNL     1      -0.882  16.346  24.945  0.00  0.00    +0.000 A 
ATOM     26  C   UNL     1      -1.218  17.196  23.896  0.00  0.00    +0.000 A 
ATOM     27  C   UNL     1      -1.646  16.662  22.680  0.00  0.00    +0.000 A 
ATOM     28  C   UNL     1      -1.765  15.274  22.511  0.00  0.00    +0.000 A 
ATOM     29  N   UNL     1      -2.231  14.767  21.277  0.00  0.00    +0.000 N 
ATOM     30  C   UNL     1      -3.436  14.091  21.175  0.00  0.00    +0.000 C 
ATOM     31  O   UNL     1      -4.303  14.457  20.371  0.00  0.00    +0.000 OA
BRANCH  20  32
ATOM     32  N   UNL     1      -4.868  12.145  21.702  0.00  0.00    +0.000 NA
ATOM     33  H   UNL     1      -5.085  11.939  20.728  0.00  0.00    +0.000 HD
ATOM     34  H   UNL     1      -5.498  12.904  21.984  0.00  0.00    +0.000 HD
ENDBRANCH  20  32
ENDBRANCH  19  29
ENDBRANCH   1  19
TORSDOF 5
ENDMDL
MODEL 7
REMARK VINA RESULT:      -8.9      4.133      6.040
REMARK  Name = 
REMARK  5 active torsions:
REMARK  status: ('A' for Active; 'I' for Inactive)
REMARK    1  A    between atoms: N_1  and  C_2
REMARK    2  A    between atoms: N_11  and  C_12
REMARK    3  A    between atoms: C_12  and  C_13
REMARK    4  A    between atoms: C_16  and  C_17
REMARK    5  A    between atoms: C_22  and  C_23
REMARK                            x       y       z     vdW  Elec       q    Type
REMARK                         _______ _______ _______ _____ _____    ______ ____
ROOT
ATOM      1  C   UNL     1      -0.689  13.970  19.883  0.00  0.00    +0.000 A 
ATOM      2  C   UNL     1      -0.245  13.227  20.982  0.00  0.00    +0.000 A 
ATOM      3  C   UNL     1       0.292  11.942  20.809  0.00  0.00    +0.000 A 
ATOM      4  C   UNL     1       0.359  11.325  19.544  0.00  0.00    +0.000 A 
ATOM      5  C   UNL     1      -0.228  12.035  18.480  0.00  0.00    +0.000 A 
ATOM      6  C   UNL     1      -0.699  13.349  18.632  0.00  0.00    +0.000 A 
ENDROOT
BRANCH   4   7
ATOM      7  C   UNL     1       1.037  10.002  19.357  0.00  0.00    +0.000 A 
ATOM      8  C   UNL     1       1.593   9.695  18.089  0.00  0.00    +0.000 A 
ATOM      9  C   UNL     1       2.243   8.484  17.824  0.00  0.00    +0.000 A 
ATOM     10  C   UNL     1       2.389   7.540  18.827  0.00  0.00    +0.000 A 
ATOM     11  C   UNL     1       1.857   7.804  20.089  0.00  0.00    +0.000 A 
ATOM     12  C   UNL     1       1.160   9.000  20.361  0.00  0.00    +0.000 A 
BRANCH  12  13
ATOM     13  C   UNL     1       0.596   9.113  21.702  0.00  0.00    +0.000 A 
ATOM     14  N   UNL     1       1.354   9.501  22.785  0.00  0.00    +0.000 NA
ATOM     15  N   UNL     1       0.535   9.550  23.827  0.00  0.00    +0.000 NA
ATOM     16  N   UNL     1      -0.653   9.187  23.336  0.00  0.00    +0.000 N 
ATOM     17  N   UNL     1      -0.677   8.842  22.041  0.00  0.00    +0.000 NA
ATOM     18  H   UNL     1      -1.492   9.192  23.910  0.00  0.00    +0.000 HD
ENDBRANCH  12  13
ENDBRANCH   4   7
BRANCH   1  19
ATOM     19  C   UNL     1      -0.985  15.458  20.015  0.00  0.00    +0.000 C 
BRANCH  19  29
ATOM     20  C   UNL     1       1.918  15.824  22.040  0.00  0.00    +0.000 C 
ATOM     21  C   UNL     1       3.179  15.816  21.191  0.00  0.00    +0.000 C 
ATOM     22  C   UNL     1       2.990  15.176  19.822  0.00  0.00    +0.000 C 
ATOM     23  C   UNL     1       2.335  16.128  18.858  0.00  0.00    +0.000 A 
ATOM     24  C   UNL     1       3.040  16.559  17.721  0.00  0.00    +0.000 A 
ATOM     25  C   UNL     1       2.454  17.435  16.806  0.00  0.00    +0.000 A 
ATOM     26  C   UNL     1       1.155  17.888  17.015  0.00  0.00    +0.000 A 
ATOM     27  C   UNL     1       0.437  17.448  18.128  0.00  0.00    +0.000 A 
ATOM     28  C   UNL     1       1.021  16.571  19.055  0.00  0.00    +0.000 A 
ATOM     29  N   UNL     1       0.278  16.171  20.187  0.00  0.00    +0.000 N 
ATOM     30  C   UNL     1       0.657  16.526  21.471  0.00  0.00    +0.000 C 
ATOM     31  O   UNL     1      -0.132  17.107  22.228  0.00  0.00    +0.000 OA
BRANCH  20  32
ATOM     32  N   UNL     1       2.248  16.410  23.360  0.00  0.00    +0.000 NA
ATOM     33  H   UNL     1       2.151  17.423  23.308  0.00  0.00    +0.000 HD
ATOM     34  H   UNL     1       3.242  16.225  23.537  0.00  0.00    +0.000 HD
ENDBRANCH  20  32
ENDBRANCH  19  29
ENDBRANCH   1  19
TORSDOF 5
ENDMDL
MODEL 8
REMARK VINA RESULT:      -8.8      2.098      2.648
REMARK  Name = 
REMARK  5 active torsions:
REMARK  status: ('A' for Active; 'I' for Inactive)
REMARK    1  A    between atoms: N_1  and  C_2
REMARK    2  A    between atoms: N_11  and  C_12
REMARK    3  A    between atoms: C_12  and  C_13
REMARK    4  A    between atoms: C_16  and  C_17
REMARK    5  A    between atoms: C_22  and  C_23
REMARK                            x       y       z     vdW  Elec       q    Type
REMARK                         _______ _______ _______ _____ _____    ______ ____
ROOT
ATOM      1  C   UNL     1       1.845   8.850  19.207  0.00  0.00    +0.000 A 
ATOM      2  C   UNL     1       1.707   7.924  20.246  0.00  0.00    +0.000 A 
ATOM      3  C   UNL     1       1.931   6.557  20.023  0.00  0.00    +0.000 A 
ATOM      4  C   UNL     1       2.249   6.052  18.747  0.00  0.00    +0.000 A 
ATOM      5  C   UNL     1       2.237   6.985  17.694  0.00  0.00    +0.000 A 
ATOM      6  C   UNL     1       2.087   8.362  17.921  0.00  0.00    +0.000 A 
ENDROOT
BRANCH   4   7
ATOM      7  C   UNL     1       2.597   4.608  18.544  0.00  0.00    +0.000 A 
ATOM      8  C   UNL     1       1.545   3.666  18.411  0.00  0.00    +0.000 A 
ATOM      9  C   UNL     1       1.778   2.298  18.220  0.00  0.00    +0.000 A 
ATOM     10  C   UNL     1       3.074   1.821  18.125  0.00  0.00    +0.000 A 
ATOM     11  C   UNL     1       4.138   2.716  18.249  0.00  0.00    +0.000 A 
ATOM     12  C   UNL     1       3.922   4.090  18.486  0.00  0.00    +0.000 A 
BRANCH  12  13
ATOM     13  C   UNL     1       5.124   4.897  18.666  0.00  0.00    +0.000 A 
ATOM     14  N   UNL     1       5.921   4.784  19.784  0.00  0.00    +0.000 NA
ATOM     15  N   UNL     1       6.944   5.610  19.611  0.00  0.00    +0.000 NA
ATOM     16  N   UNL     1       6.715   6.180  18.424  0.00  0.00    +0.000 N 
ATOM     17  N   UNL     1       5.575   5.832  17.811  0.00  0.00    +0.000 NA
ATOM     18  H   UNL     1       7.380   6.824  18.004  0.00  0.00    +0.000 HD
ENDBRANCH  12  13
ENDBRANCH   4   7
BRANCH   1  19
ATOM     19  C   UNL     1       1.905  10.344  19.496  0.00  0.00    +0.000 C 
BRANCH  19  29
ATOM     20  C   UNL     1      -0.015  12.588  21.480  0.00  0.00    +0.000 C 
ATOM     21  C   UNL     1      -1.034  13.330  20.632  0.00  0.00    +0.000 C 
ATOM     22  C   UNL     1      -0.697  13.348  19.147  0.00  0.00    +0.000 C 
ATOM     23  C   UNL     1      -1.074  12.051  18.484  0.00  0.00    +0.000 A 
ATOM     24  C   UNL     1      -2.063  12.043  17.485  0.00  0.00    +0.000 A 
ATOM     25  C   UNL     1      -2.427  10.856  16.849  0.00  0.00    +0.000 A 
ATOM     26  C   UNL     1      -1.802   9.662  17.198  0.00  0.00    +0.000 A 
ATOM     27  C   UNL     1      -0.801   9.662  18.171  0.00  0.00    +0.000 A 
ATOM     28  C   UNL     1      -0.434  10.851  18.820  0.00  0.00    +0.000 A 
ATOM     29  N   UNL     1       0.560  10.810  19.822  0.00  0.00    +0.000 N 
ATOM     30  C   UNL     1       0.273  11.101  21.146  0.00  0.00    +0.000 C 
ATOM     31  O   UNL     1       0.549  10.298  22.047  0.00  0.00    +0.000 OA
BRANCH  20  32
ATOM     32  N   UNL     1      -0.422  12.698  22.901  0.00  0.00    +0.000 NA
ATOM     33  H   UNL     1       0.384  12.979  23.457  0.00  0.00    +0.000 HD
ATOM     34  H   UNL     1      -0.678  11.756  23.220  0.00  0.00    +0.000 HD
ENDBRANCH  20  32
ENDBRANCH  19  29
ENDBRANCH   1  19
TORSDOF 5
ENDMDL
MODEL 9
REMARK VINA RESULT:      -8.8      2.427      8.255
REMARK  Name = 
REMARK  5 active torsions:
REMARK  status: ('A' for Active; 'I' for Inactive)
REMARK    1  A    between atoms: N_1  and  C_2
REMARK    2  A    between atoms: N_11  and  C_12
REMARK    3  A    between atoms: C_12  and  C_13
REMARK    4  A    between atoms: C_16  and  C_17
REMARK    5  A    between atoms: C_22  and  C_23
REMARK                            x       y       z     vdW  Elec       q    Type
REMARK                         _______ _______ _______ _____ _____    ______ ____
ROOT
ATOM      1  C   UNL     1       3.359   6.298  19.489  0.00  0.00    +0.000 A 
ATOM      2  C   UNL     1       3.338   7.167  18.393  0.00  0.00    +0.000 A 
ATOM      3  C   UNL     1       2.359   8.168  18.290  0.00  0.00    +0.000 A 
ATOM      4  C   UNL     1       1.333   8.309  19.246  0.00  0.00    +0.000 A 
ATOM      5  C   UNL     1       1.294   7.332  20.257  0.00  0.00    +0.000 A 
ATOM      6  C   UNL     1       2.309   6.375  20.408  0.00  0.00    +0.000 A 
ENDROOT
BRANCH   4   7
ATOM      7  C   UNL     1       0.364   9.450  19.185  0.00  0.00    +0.000 A 
ATOM      8  C   UNL     1      -0.006   9.964  17.917  0.00  0.00    +0.000 A 
ATOM      9  C   UNL     1      -0.904  11.028  17.766  0.00  0.00    +0.000 A 
ATOM     10  C   UNL     1      -1.491  11.604  18.880  0.00  0.00    +0.000 A 
ATOM     11  C   UNL     1      -1.155  11.126  20.147  0.00  0.00    +0.000 A 
ATOM     12  C   UNL     1      -0.219  10.085  20.319  0.00  0.00    +0.000 A 
BRANCH  12  13
ATOM     13  C   UNL     1       0.091   9.735  21.702  0.00  0.00    +0.000 A 
ATOM     14  N   UNL     1       1.340   9.941  22.246  0.00  0.00    +0.000 NA
ATOM     15  N   UNL     1       1.271   9.567  23.516  0.00  0.00    +0.000 NA
ATOM     16  N   UNL     1       0.010   9.152  23.673  0.00  0.00    +0.000 N 
ATOM     17  N   UNL     1      -0.759   9.169  22.576  0.00  0.00    +0.000 NA
ATOM     18  H   UNL     1      -0.346   8.859  24.579  0.00  0.00    +0.000 HD
ENDBRANCH  12  13
ENDBRANCH   4   7
BRANCH   1  19
ATOM     19  C   UNL     1       4.573   5.421  19.766  0.00  0.00    +0.000 C 
BRANCH  19  29
ATOM     20  C   UNL     1       2.595   2.716  18.571  0.00  0.00    +0.000 C 
ATOM     21  C   UNL     1       2.630   2.643  17.054  0.00  0.00    +0.000 C 
ATOM     22  C   UNL     1       3.040   3.950  16.389  0.00  0.00    +0.000 C 
ATOM     23  C   UNL     1       4.533   4.138  16.424  0.00  0.00    +0.000 A 
ATOM     24  C   UNL     1       5.257   4.177  15.220  0.00  0.00    +0.000 A 
ATOM     25  C   UNL     1       6.640   4.358  15.224  0.00  0.00    +0.000 A 
ATOM     26  C   UNL     1       7.317   4.507  16.431  0.00  0.00    +0.000 A 
ATOM     27  C   UNL     1       6.605   4.495  17.631  0.00  0.00    +0.000 A 
ATOM     28  C   UNL     1       5.214   4.308  17.636  0.00  0.00    +0.000 A 
ATOM     29  N   UNL     1       4.529   4.268  18.870  0.00  0.00    +0.000 N 
ATOM     30  C   UNL     1       3.894   3.120  19.315  0.00  0.00    +0.000 C 
ATOM     31  O   UNL     1       4.156   2.640  20.426  0.00  0.00    +0.000 OA
BRANCH  20  32
ATOM     32  N   UNL     1       2.123   1.410  19.090  0.00  0.00    +0.000 NA
ATOM     33  H   UNL     1       1.993   1.480  20.098  0.00  0.00    +0.000 HD
ATOM     34  H   UNL     1       2.878   0.731  18.943  0.00  0.00    +0.000 HD
ENDBRANCH  20  32
ENDBRANCH  19  29
ENDBRANCH   1  19
TORSDOF 5
ENDMDL
