MODEL 1
REMARK VINA RESULT:      -7.3      0.000      0.000
REMARK  Name = 
REMARK  4 active torsions:
REMARK  status: ('A' for Active; 'I' for Inactive)
REMARK    1  A    between atoms: C_2  and  C_3
REMARK    2  A    between atoms: N_11  and  C_12
REMARK    3  A    between atoms: N_11  and  C_19
REMARK    4  A    between atoms: C_12  and  C_13
REMARK                            x       y       z     vdW  Elec       q    Type
REMARK                         _______ _______ _______ _____ _____    ______ ____
ROOT
ATOM      1  O   UNL     1       5.264   2.931  19.262  0.00  0.00    +0.000 OA
ATOM      2  C   UNL     1       4.414   3.761  18.938  0.00  0.00    +0.000 C 
ATOM      3  N   UNL     1       4.734   4.950  18.248  0.00  0.00    +0.000 N 
ENDROOT
BRANCH   2   4
ATOM      4  C   UNL     1       3.014   3.459  19.298  0.00  0.00    +0.000 A 
ATOM      5  C   UNL     1       2.223   2.640  18.499  0.00  0.00    +0.000 A 
ATOM      6  F   UNL     1       2.696   2.122  17.360  0.00  0.00    +0.000 F 
ATOM      7  C   UNL     1       0.893   2.377  18.827  0.00  0.00    +0.000 A 
ATOM      8  C   UNL     1       0.314   2.989  19.937  0.00  0.00    +0.000 A 
ATOM      9  C   UNL     1       1.071   3.863  20.706  0.00  0.00    +0.000 A 
ATOM     10  C   UNL     1       2.416   4.091  20.391  0.00  0.00    +0.000 A 
ATOM     11  F   UNL     1       3.108   4.933  21.173  0.00  0.00    +0.000 F 
ENDBRANCH   2   4
BRANCH   3  12
ATOM     12  C   UNL     1       3.735   5.763  17.575  0.00  0.00    +0.000 C 
ATOM     13  C   UNL     1       2.929   6.794  18.327  0.00  0.00    +0.000 C 
ATOM     14  C   UNL     1       3.892   7.235  17.273  0.00  0.00    +0.000 C 
ENDBRANCH   3  12
BRANCH   3  15
ATOM     15  C   UNL     1       6.143   5.137  17.861  0.00  0.00    +0.000 C 
BRANCH  15  16
ATOM     16  C   UNL     1       6.479   4.832  16.412  0.00  0.00    +0.000 A 
ATOM     17  C   UNL     1       5.822   3.823  15.716  0.00  0.00    +0.000 A 
ATOM     18  C   UNL     1       6.045   3.683  14.344  0.00  0.00    +0.000 A 
ATOM     19  C   UNL     1       6.926   4.543  13.702  0.00  0.00    +0.000 A 
ATOM     20  C   UNL     1       7.564   5.504  14.467  0.00  0.00    +0.000 A 
ATOM     21  N   UNL     1       7.360   5.668  15.794  0.00  0.00    +0.000 NA
ENDBRANCH  15  16
ENDBRANCH   3  15
TORSDOF 4
ENDMDL
MODEL 2
REMARK VINA RESULT:      -7.3      0.114      1.805
REMARK  Name = 
REMARK  4 active torsions:
REMARK  status: ('A' for Active; 'I' for Inactive)
REMARK    1  A    between atoms: C_2  and  C_3
REMARK    2  A    between atoms: N_11  and  C_12
REMARK    3  A    between atoms: N_11  and  C_19
REMARK    4  A    between atoms: C_12  and  C_13
REMARK                            x       y       z     vdW  Elec       q    Type
REMARK                         _______ _______ _______ _____ _____    ______ ____
ROOT
ATOM      1  O   UNL     1       5.197   3.047  19.198  0.00  0.00    +0.000 OA
ATOM      2  C   UNL     1       4.354   3.883  18.872  0.00  0.00    +0.000 C 
ATOM      3  N   UNL     1       4.683   5.071  18.184  0.00  0.00    +0.000 N 
ENDROOT
BRANCH   2   4
ATOM      4  C   UNL     1       2.950   3.590  19.228  0.00  0.00    +0.000 A 
ATOM      5  C   UNL     1       2.388   4.070  20.406  0.00  0.00    +0.000 A 
ATOM      6  F   UNL     1       3.111   4.789  21.273  0.00  0.00    +0.000 F 
ATOM      7  C   UNL     1       1.071   3.772  20.753  0.00  0.00    +0.000 A 
ATOM      8  C   UNL     1       0.312   2.926  19.946  0.00  0.00    +0.000 A 
ATOM      9  C   UNL     1       0.881   2.384  18.801  0.00  0.00    +0.000 A 
ATOM     10  C   UNL     1       2.191   2.721  18.441  0.00  0.00    +0.000 A 
ATOM     11  F   UNL     1       2.690   2.181  17.319  0.00  0.00    +0.000 F 
ENDBRANCH   2   4
BRANCH   3  12
ATOM     12  C   UNL     1       3.691   5.890  17.509  0.00  0.00    +0.000 C 
ATOM     13  C   UNL     1       2.798   6.832  18.280  0.00  0.00    +0.000 C 
ATOM     14  C   UNL     1       3.802   7.385  17.321  0.00  0.00    +0.000 C 
ENDBRANCH   3  12
BRANCH   3  15
ATOM     15  C   UNL     1       6.094   5.249  17.801  0.00  0.00    +0.000 C 
BRANCH  15  16
ATOM     16  C   UNL     1       6.443   4.890  16.367  0.00  0.00    +0.000 A 
ATOM     17  C   UNL     1       5.786   3.861  15.700  0.00  0.00    +0.000 A 
ATOM     18  C   UNL     1       6.022   3.670  14.337  0.00  0.00    +0.000 A 
ATOM     19  C   UNL     1       6.916   4.501  13.674  0.00  0.00    +0.000 A 
ATOM     20  C   UNL     1       7.552   5.485  14.411  0.00  0.00    +0.000 A 
ATOM     21  N   UNL     1       7.336   5.698  15.729  0.00  0.00    +0.000 NA
ENDBRANCH  15  16
ENDBRANCH   3  15
TORSDOF 4
ENDMDL
MODEL 3
REMARK VINA RESULT:      -7.3      1.651      2.279
REMARK  Name = 
REMARK  4 active torsions:
REMARK  status: ('A' for Active; 'I' for Inactive)
REMARK    1  A    between atoms: C_2  and  C_3
REMARK    2  A    between atoms: N_11  and  C_12
REMARK    3  A    between atoms: N_11  and  C_19
REMARK    4  A    between atoms: C_12  and  C_13
REMARK                            x       y       z     vdW  Elec       q    Type
REMARK                         _______ _______ _______ _____ _____    ______ ____
ROOT
ATOM      1  O   UNL     1       3.172   5.811  17.011  0.00  0.00    +0.000 OA
ATOM      2  C   UNL     1       3.967   5.164  17.694  0.00  0.00    +0.000 C 
ATOM      3  N   UNL     1       5.347   5.102  17.406  0.00  0.00    +0.000 N 
ENDROOT
BRANCH   2   4
ATOM      4  C   UNL     1       3.415   4.442  18.858  0.00  0.00    +0.000 A 
ATOM      5  C   UNL     1       3.213   3.066  18.826  0.00  0.00    +0.000 A 
ATOM      6  F   UNL     1       3.484   2.353  17.727  0.00  0.00    +0.000 F 
ATOM      7  C   UNL     1       2.667   2.390  19.917  0.00  0.00    +0.000 A 
ATOM      8  C   UNL     1       2.253   3.100  21.042  0.00  0.00    +0.000 A 
ATOM      9  C   UNL     1       2.385   4.482  21.063  0.00  0.00    +0.000 A 
ATOM     10  C   UNL     1       2.970   5.148  19.979  0.00  0.00    +0.000 A 
ATOM     11  F   UNL     1       3.087   6.482  20.053  0.00  0.00    +0.000 F 
ENDBRANCH   2   4
BRANCH   3  12
ATOM     12  C   UNL     1       6.333   4.633  18.365  0.00  0.00    +0.000 C 
ATOM     13  C   UNL     1       7.774   5.073  18.286  0.00  0.00    +0.000 C 
ATOM     14  C   UNL     1       6.939   5.486  19.455  0.00  0.00    +0.000 C 
ENDBRANCH   3  12
BRANCH   3  15
ATOM     15  C   UNL     1       5.827   5.912  16.272  0.00  0.00    +0.000 C 
BRANCH  15  16
ATOM     16  C   UNL     1       6.207   5.141  15.020  0.00  0.00    +0.000 A 
ATOM     17  C   UNL     1       5.338   4.217  14.450  0.00  0.00    +0.000 A 
ATOM     18  C   UNL     1       5.657   3.652  13.214  0.00  0.00    +0.000 A 
ATOM     19  C   UNL     1       6.840   4.012  12.581  0.00  0.00    +0.000 A 
ATOM     20  C   UNL     1       7.667   4.916  13.224  0.00  0.00    +0.000 A 
ATOM     21  N   UNL     1       7.379   5.486  14.416  0.00  0.00    +0.000 NA
ENDBRANCH  15  16
ENDBRANCH   3  15
TORSDOF 4
ENDMDL
MODEL 4
REMARK VINA RESULT:      -7.1      2.155      3.442
REMARK  Name = 
REMARK  4 active torsions:
REMARK  status: ('A' for Active; 'I' for Inactive)
REMARK    1  A    between atoms: C_2  and  C_3
REMARK    2  A    between atoms: N_11  and  C_12
REMARK    3  A    between atoms: N_11  and  C_19
REMARK    4  A    between atoms: C_12  and  C_13
REMARK                            x       y       z     vdW  Elec       q    Type
REMARK                         _______ _______ _______ _____ _____    ______ ____
ROOT
ATOM      1  O   UNL     1       5.634   4.149  19.598  0.00  0.00    +0.000 OA
ATOM      2  C   UNL     1       5.108   4.065  18.487  0.00  0.00    +0.000 C 
ATOM      3  N   UNL     1       5.793   4.376  17.293  0.00  0.00    +0.000 N 
ENDROOT
BRANCH   2   4
ATOM      4  C   UNL     1       3.703   3.611  18.446  0.00  0.00    +0.000 A 
ATOM      5  C   UNL     1       2.677   4.468  18.062  0.00  0.00    +0.000 A 
ATOM      6  F   UNL     1       2.926   5.745  17.747  0.00  0.00    +0.000 F 
ATOM      7  C   UNL     1       1.349   4.045  18.048  0.00  0.00    +0.000 A 
ATOM      8  C   UNL     1       1.020   2.763  18.484  0.00  0.00    +0.000 A 
ATOM      9  C   UNL     1       2.026   1.917  18.935  0.00  0.00    +0.000 A 
ATOM     10  C   UNL     1       3.361   2.338  18.908  0.00  0.00    +0.000 A 
ATOM     11  F   UNL     1       4.296   1.479  19.341  0.00  0.00    +0.000 F 
ENDBRANCH   2   4
BRANCH   3  12
ATOM     12  C   UNL     1       5.313   3.973  15.982  0.00  0.00    +0.000 C 
ATOM     13  C   UNL     1       5.287   4.943  14.826  0.00  0.00    +0.000 C 
ATOM     14  C   UNL     1       6.198   3.760  14.776  0.00  0.00    +0.000 C 
ENDBRANCH   3  12
BRANCH   3  15
ATOM     15  C   UNL     1       7.213   4.748  17.418  0.00  0.00    +0.000 C 
BRANCH  15  16
ATOM     16  C   UNL     1       7.490   6.197  17.778  0.00  0.00    +0.000 A 
ATOM     17  C   UNL     1       8.245   6.531  18.897  0.00  0.00    +0.000 A 
ATOM     18  C   UNL     1       8.613   7.863  19.101  0.00  0.00    +0.000 A 
ATOM     19  C   UNL     1       8.208   8.831  18.192  0.00  0.00    +0.000 A 
ATOM     20  C   UNL     1       7.434   8.426  17.118  0.00  0.00    +0.000 A 
ATOM     21  N   UNL     1       7.072   7.143  16.891  0.00  0.00    +0.000 NA
ENDBRANCH  15  16
ENDBRANCH   3  15
TORSDOF 4
ENDMDL
MODEL 5
REMARK VINA RESULT:      -7.1      1.693      2.842
REMARK  Name = 
REMARK  4 active torsions:
REMARK  status: ('A' for Active; 'I' for Inactive)
REMARK    1  A    between atoms: C_2  and  C_3
REMARK    2  A    between atoms: N_11  and  C_12
REMARK    3  A    between atoms: N_11  and  C_19
REMARK    4  A    between atoms: C_12  and  C_13
REMARK                            x       y       z     vdW  Elec       q    Type
REMARK                         _______ _______ _______ _____ _____    ______ ____
ROOT
ATOM      1  O   UNL     1       3.153   5.817  17.063  0.00  0.00    +0.000 OA
ATOM      2  C   UNL     1       3.939   5.187  17.772  0.00  0.00    +0.000 C 
ATOM      3  N   UNL     1       5.327   5.145  17.521  0.00  0.00    +0.000 N 
ENDROOT
BRANCH   2   4
ATOM      4  C   UNL     1       3.366   4.465  18.926  0.00  0.00    +0.000 A 
ATOM      5  C   UNL     1       2.862   5.147  20.028  0.00  0.00    +0.000 A 
ATOM      6  F   UNL     1       2.908   6.483  20.093  0.00  0.00    +0.000 F 
ATOM      7  C   UNL     1       2.344   4.463  21.128  0.00  0.00    +0.000 A 
ATOM      8  C   UNL     1       2.385   3.071  21.165  0.00  0.00    +0.000 A 
ATOM      9  C   UNL     1       2.947   2.376  20.102  0.00  0.00    +0.000 A 
ATOM     10  C   UNL     1       3.428   3.070  18.985  0.00  0.00    +0.000 A 
ATOM     11  F   UNL     1       3.949   2.353  17.979  0.00  0.00    +0.000 F 
ENDBRANCH   2   4
BRANCH   3  12
ATOM     12  C   UNL     1       6.293   4.697  18.511  0.00  0.00    +0.000 C 
ATOM     13  C   UNL     1       7.777   4.853  18.282  0.00  0.00    +0.000 C 
ATOM     14  C   UNL     1       7.115   5.619  19.381  0.00  0.00    +0.000 C 
ENDBRANCH   3  12
BRANCH   3  15
ATOM     15  C   UNL     1       5.825   5.954  16.396  0.00  0.00    +0.000 C 
BRANCH  15  16
ATOM     16  C   UNL     1       6.204   5.185  15.142  0.00  0.00    +0.000 A 
ATOM     17  C   UNL     1       5.323   4.282  14.556  0.00  0.00    +0.000 A 
ATOM     18  C   UNL     1       5.644   3.720  13.319  0.00  0.00    +0.000 A 
ATOM     19  C   UNL     1       6.840   4.061  12.701  0.00  0.00    +0.000 A 
ATOM     20  C   UNL     1       7.678   4.945  13.359  0.00  0.00    +0.000 A 
ATOM     21  N   UNL     1       7.388   5.511  14.553  0.00  0.00    +0.000 NA
ENDBRANCH  15  16
ENDBRANCH   3  15
TORSDOF 4
ENDMDL
MODEL 6
REMARK VINA RESULT:      -7.1      2.184      3.369
REMARK  Name = 
REMARK  4 active torsions:
REMARK  status: ('A' for Active; 'I' for Inactive)
REMARK    1  A    between atoms: C_2  and  C_3
REMARK    2  A    between atoms: N_11  and  C_12
REMARK    3  A    between atoms: N_11  and  C_19
REMARK    4  A    between atoms: C_12  and  C_13
REMARK                            x       y       z     vdW  Elec       q    Type
REMARK                         _______ _______ _______ _____ _____    ______ ____
ROOT
ATOM      1  O   UNL     1       3.704   6.434  18.543  0.00  0.00    +0.000 OA
ATOM      2  C   UNL     1       3.777   5.440  17.820  0.00  0.00    +0.000 C 
ATOM      3  N   UNL     1       4.484   5.435  16.599  0.00  0.00    +0.000 N 
ENDROOT
BRANCH   2   4
ATOM      4  C   UNL     1       3.088   4.220  18.290  0.00  0.00    +0.000 A 
ATOM      5  C   UNL     1       1.757   3.973  17.969  0.00  0.00    +0.000 A 
ATOM      6  F   UNL     1       1.046   4.849  17.248  0.00  0.00    +0.000 F 
ATOM      7  C   UNL     1       1.101   2.834  18.434  0.00  0.00    +0.000 A 
ATOM      8  C   UNL     1       1.758   1.951  19.289  0.00  0.00    +0.000 A 
ATOM      9  C   UNL     1       3.065   2.219  19.673  0.00  0.00    +0.000 A 
ATOM     10  C   UNL     1       3.728   3.344  19.169  0.00  0.00    +0.000 A 
ATOM     11  F   UNL     1       4.995   3.552  19.560  0.00  0.00    +0.000 F 
ENDBRANCH   2   4
BRANCH   3  12
ATOM     12  C   UNL     1       4.858   4.211  15.910  0.00  0.00    +0.000 C 
ATOM     13  C   UNL     1       5.594   4.247  14.593  0.00  0.00    +0.000 C 
ATOM     14  C   UNL     1       6.271   3.688  15.802  0.00  0.00    +0.000 C 
ENDBRANCH   3  12
BRANCH   3  15
ATOM     15  C   UNL     1       5.206   6.668  16.242  0.00  0.00    +0.000 C 
BRANCH  15  16
ATOM     16  C   UNL     1       6.323   7.081  17.185  0.00  0.00    +0.000 A 
ATOM     17  C   UNL     1       6.913   6.164  18.048  0.00  0.00    +0.000 A 
ATOM     18  C   UNL     1       8.041   6.543  18.779  0.00  0.00    +0.000 A 
ATOM     19  C   UNL     1       8.547   7.829  18.641  0.00  0.00    +0.000 A 
ATOM     20  C   UNL     1       7.888   8.693  17.783  0.00  0.00    +0.000 A 
ATOM     21  N   UNL     1       6.800   8.350  17.057  0.00  0.00    +0.000 NA
ENDBRANCH  15  16
ENDBRANCH   3  15
TORSDOF 4
ENDMDL
MODEL 7
REMARK VINA RESULT:      -7.0      2.210      3.507
REMARK  Name = 
REMARK  4 active torsions:
REMARK  status: ('A' for Active; 'I' for Inactive)
REMARK    1  A    between atoms: C_2  and  C_3
REMARK    2  A    between atoms: N_11  and  C_12
REMARK    3  A    between atoms: N_11  and  C_19
REMARK    4  A    between atoms: C_12  and  C_13
REMARK                            x       y       z     vdW  Elec       q    Type
REMARK                         _______ _______ _______ _____ _____    ______ ____
ROOT
ATOM      1  O   UNL     1       3.595   6.517  18.532  0.00  0.00    +0.000 OA
ATOM      2  C   UNL     1       3.723   5.480  17.878  0.00  0.00    +0.000 C 
ATOM      3  N   UNL     1       4.489   5.414  16.695  0.00  0.00    +0.000 N 
ENDROOT
BRANCH   2   4
ATOM      4  C   UNL     1       3.035   4.278  18.391  0.00  0.00    +0.000 A 
ATOM      5  C   UNL     1       3.710   3.329  19.152  0.00  0.00    +0.000 A 
ATOM      6  F   UNL     1       5.015   3.459  19.419  0.00  0.00    +0.000 F 
ATOM      7  C   UNL     1       3.065   2.182  19.614  0.00  0.00    +0.000 A 
ATOM      8  C   UNL     1       1.740   1.937  19.262  0.00  0.00    +0.000 A 
ATOM      9  C   UNL     1       1.072   2.841  18.447  0.00  0.00    +0.000 A 
ATOM     10  C   UNL     1       1.715   4.009  18.020  0.00  0.00    +0.000 A 
ATOM     11  F   UNL     1       1.023   4.858  17.244  0.00  0.00    +0.000 F 
ENDBRANCH   2   4
BRANCH   3  12
ATOM     12  C   UNL     1       4.919   4.158  16.104  0.00  0.00    +0.000 C 
ATOM     13  C   UNL     1       5.440   4.096  14.688  0.00  0.00    +0.000 C 
ATOM     14  C   UNL     1       6.359   3.792  15.827  0.00  0.00    +0.000 C 
ENDBRANCH   3  12
BRANCH   3  15
ATOM     15  C   UNL     1       5.203   6.639  16.294  0.00  0.00    +0.000 C 
BRANCH  15  16
ATOM     16  C   UNL     1       6.327   7.083  17.215  0.00  0.00    +0.000 A 
ATOM     17  C   UNL     1       6.927   6.195  18.101  0.00  0.00    +0.000 A 
ATOM     18  C   UNL     1       8.060   6.600  18.810  0.00  0.00    +0.000 A 
ATOM     19  C   UNL     1       8.560   7.883  18.629  0.00  0.00    +0.000 A 
ATOM     20  C   UNL     1       7.891   8.718  17.751  0.00  0.00    +0.000 A 
ATOM     21  N   UNL     1       6.798   8.350  17.045  0.00  0.00    +0.000 NA
ENDBRANCH  15  16
ENDBRANCH   3  15
TORSDOF 4
ENDMDL
MODEL 8
REMARK VINA RESULT:      -6.9      2.259      3.902
REMARK  Name = 
REMARK  4 active torsions:
REMARK  status: ('A' for Active; 'I' for Inactive)
REMARK    1  A    between atoms: C_2  and  C_3
REMARK    2  A    between atoms: N_11  and  C_12
REMARK    3  A    between atoms: N_11  and  C_19
REMARK    4  A    between atoms: C_12  and  C_13
REMARK                            x       y       z     vdW  Elec       q    Type
REMARK                         _______ _______ _______ _____ _____    ______ ____
ROOT
ATOM      1  O   UNL     1       4.581   6.412  19.339  0.00  0.00    +0.000 OA
ATOM      2  C   UNL     1       3.404   6.152  19.088  0.00  0.00    +0.000 C 
ATOM      3  N   UNL     1       2.975   4.868  18.689  0.00  0.00    +0.000 N 
ENDROOT
BRANCH   2   4
ATOM      4  C   UNL     1       2.430   7.254  19.231  0.00  0.00    +0.000 A 
ATOM      5  C   UNL     1       2.261   8.202  18.228  0.00  0.00    +0.000 A 
ATOM      6  F   UNL     1       2.997   8.165  17.111  0.00  0.00    +0.000 F 
ATOM      7  C   UNL     1       1.360   9.257  18.374  0.00  0.00    +0.000 A 
ATOM      8  C   UNL     1       0.657   9.413  19.567  0.00  0.00    +0.000 A 
ATOM      9  C   UNL     1       0.866   8.513  20.604  0.00  0.00    +0.000 A 
ATOM     10  C   UNL     1       1.743   7.435  20.433  0.00  0.00    +0.000 A 
ATOM     11  F   UNL     1       1.900   6.586  21.460  0.00  0.00    +0.000 F 
ENDBRANCH   2   4
BRANCH   3  12
ATOM     12  C   UNL     1       1.580   4.461  18.713  0.00  0.00    +0.000 C 
ATOM     13  C   UNL     1       1.189   3.004  18.650  0.00  0.00    +0.000 C 
ATOM     14  C   UNL     1       0.904   3.792  19.887  0.00  0.00    +0.000 C 
ENDBRANCH   3  12
BRANCH   3  15
ATOM     15  C   UNL     1       3.997   3.808  18.645  0.00  0.00    +0.000 C 
BRANCH  15  16
ATOM     16  C   UNL     1       5.089   3.981  17.604  0.00  0.00    +0.000 A 
ATOM     17  C   UNL     1       4.790   4.034  16.247  0.00  0.00    +0.000 A 
ATOM     18  C   UNL     1       5.799   4.357  15.337  0.00  0.00    +0.000 A 
ATOM     19  C   UNL     1       7.085   4.606  15.800  0.00  0.00    +0.000 A 
ATOM     20  C   UNL     1       7.311   4.506  17.162  0.00  0.00    +0.000 A 
ATOM     21  N   UNL     1       6.351   4.205  18.066  0.00  0.00    +0.000 NA
ENDBRANCH  15  16
ENDBRANCH   3  15
TORSDOF 4
ENDMDL
MODEL 9
REMARK VINA RESULT:      -6.9      2.542      5.923
REMARK  Name = 
REMARK  4 active torsions:
REMARK  status: ('A' for Active; 'I' for Inactive)
REMARK    1  A    between atoms: C_2  and  C_3
REMARK    2  A    between atoms: N_11  and  C_12
REMARK    3  A    between atoms: N_11  and  C_19
REMARK    4  A    between atoms: C_12  and  C_13
REMARK                            x       y       z     vdW  Elec       q    Type
REMARK                         _______ _______ _______ _____ _____    ______ ____
ROOT
ATOM      1  O   UNL     1       4.330   3.931  17.439  0.00  0.00    +0.000 OA
ATOM      2  C   UNL     1       4.318   5.136  17.694  0.00  0.00    +0.000 C 
ATOM      3  N   UNL     1       3.124   5.857  17.910  0.00  0.00    +0.000 N 
ENDROOT
BRANCH   2   4
ATOM      4  C   UNL     1       5.627   5.815  17.777  0.00  0.00    +0.000 A 
ATOM      5  C   UNL     1       6.488   5.597  18.848  0.00  0.00    +0.000 A 
ATOM      6  F   UNL     1       6.144   4.787  19.856  0.00  0.00    +0.000 F 
ATOM      7  C   UNL     1       7.712   6.258  18.937  0.00  0.00    +0.000 A 
ATOM      8  C   UNL     1       8.066   7.204  17.977  0.00  0.00    +0.000 A 
ATOM      9  C   UNL     1       7.188   7.482  16.938  0.00  0.00    +0.000 A 
ATOM     10  C   UNL     1       5.977   6.785  16.835  0.00  0.00    +0.000 A 
ATOM     11  F   UNL     1       5.170   7.081  15.806  0.00  0.00    +0.000 F 
ENDBRANCH   2   4
BRANCH   3  12
ATOM     12  C   UNL     1       3.100   7.172  18.529  0.00  0.00    +0.000 C 
ATOM     13  C   UNL     1       2.752   8.406  17.732  0.00  0.00    +0.000 C 
ATOM     14  C   UNL     1       1.842   7.953  18.827  0.00  0.00    +0.000 C 
ENDBRANCH   3  12
BRANCH   3  15
ATOM     15  C   UNL     1       1.868   5.089  17.884  0.00  0.00    +0.000 C 
BRANCH  15  16
ATOM     16  C   UNL     1       1.617   4.186  19.080  0.00  0.00    +0.000 A 
ATOM     17  C   UNL     1       1.220   2.864  18.914  0.00  0.00    +0.000 A 
ATOM     18  C   UNL     1       1.158   2.025  20.028  0.00  0.00    +0.000 A 
ATOM     19  C   UNL     1       1.481   2.527  21.282  0.00  0.00    +0.000 A 
ATOM     20  C   UNL     1       1.840   3.861  21.371  0.00  0.00    +0.000 A 
ATOM     21  N   UNL     1       1.917   4.693  20.308  0.00  0.00    +0.000 NA
ENDBRANCH  15  16
ENDBRANCH   3  15
TORSDOF 4
ENDMDL
