MODEL 1
REMARK VINA RESULT:      -7.5      0.000      0.000
REMARK  Name = 
REMARK  8 active torsions:
REMARK  status: ('A' for Active; 'I' for Inactive)
REMARK    1  A    between atoms: C_1  and  C_2
REMARK    2  A    between atoms: C_2  and  O_3
REMARK    3  A    between atoms: O_3  and  C_4
REMARK    4  A    between atoms: C_4  and  C_6
REMARK    5  A    between atoms: N_7  and  N_8
REMARK    6  A    between atoms: N_8  and  C_9
REMARK    7  A    between atoms: N_19  and  C_20
REMARK    8  A    between atoms: C_20  and  C_21
REMARK                            x       y       z     vdW  Elec       q    Type
REMARK                         _______ _______ _______ _____ _____    ______ ____
ROOT
ATOM      1  C   UNL     1       1.025   8.936  20.086  0.00  0.00    +0.000 C 
ATOM      2  N   UNL     1       0.454   9.523  19.060  0.00  0.00    +0.000 NA
ATOM      3  N   UNL     1       1.878   7.846  19.845  0.00  0.00    +0.000 N 
ATOM      4  C   UNL     1       2.025   6.688  20.734  0.00  0.00    +0.000 C 
ATOM      5  C   UNL     1       1.926   5.350  19.967  0.00  0.00    +0.000 C 
ATOM      6  N   UNL     1       2.784   5.244  18.771  0.00  0.00    +0.000 NA
ATOM      7  C   UNL     1       2.494   6.418  17.911  0.00  0.00    +0.000 C 
ATOM      8  C   UNL     1       2.666   7.783  18.604  0.00  0.00    +0.000 C 
ENDROOT
BRANCH   1   9
ATOM      9  C   UNL     1       0.840   9.504  21.535  0.00  0.00    +0.000 C 
ATOM     10  O   UNL     1       1.781   9.837  22.238  0.00  0.00    +0.000 OA
BRANCH   9  11
ATOM     11  O   UNL     1      -0.441   9.407  21.927  0.00  0.00    +0.000 OA
BRANCH  11  13
ATOM     12  C   UNL     1      -1.322  11.342  23.069  0.00  0.00    +0.000 C 
ATOM     13  C   UNL     1      -0.735   9.954  23.215  0.00  0.00    +0.000 C 
ENDBRANCH  11  13
ENDBRANCH   9  11
ENDBRANCH   1   9
BRANCH   2  14
ATOM     14  N   UNL     1      -0.368  10.587  19.243  0.00  0.00    +0.000 N 
ATOM     15  H   UNL     1      -0.023  11.469  19.636  0.00  0.00    +0.000 HD
BRANCH  14  16
ATOM     16  C   UNL     1      -1.495  10.724  18.396  0.00  0.00    +0.000 A 
ATOM     17  C   UNL     1      -1.679   9.889  17.280  0.00  0.00    +0.000 A 
ATOM     18  C   UNL     1      -2.834   9.959  16.494  0.00  0.00    +0.000 A 
ATOM     19  C   UNL     1      -3.851  10.851  16.825  0.00  0.00    +0.000 A 
ATOM     20  C   UNL     1      -3.704  11.676  17.940  0.00  0.00    +0.000 A 
ATOM     21  C   UNL     1      -2.542  11.612  18.717  0.00  0.00    +0.000 A 
ATOM     22 CL   UNL     1      -2.430  12.653  20.095  0.00  0.00    +0.000 Cl
ENDBRANCH  14  16
ENDBRANCH   2  14
BRANCH   6  23
ATOM     23  C   UNL     1       4.198   5.144  19.177  0.00  0.00    +0.000 C 
BRANCH  23  24
ATOM     24  C   UNL     1       5.173   5.065  18.027  0.00  0.00    +0.000 A 
ATOM     25  C   UNL     1       5.028   4.072  17.046  0.00  0.00    +0.000 A 
ATOM     26  C   UNL     1       5.907   4.011  15.967  0.00  0.00    +0.000 A 
ATOM     27  C   UNL     1       6.940   4.940  15.857  0.00  0.00    +0.000 A 
ATOM     28  C   UNL     1       7.096   5.931  16.825  0.00  0.00    +0.000 A 
ATOM     29  C   UNL     1       6.217   5.995  17.905  0.00  0.00    +0.000 A 
ENDBRANCH  23  24
ENDBRANCH   6  23
TORSDOF 7
ENDMDL
MODEL 2
REMARK VINA RESULT:      -7.3      0.445      1.014
REMARK  Name = 
REMARK  8 active torsions:
REMARK  status: ('A' for Active; 'I' for Inactive)
REMARK    1  A    between atoms: C_1  and  C_2
REMARK    2  A    between atoms: C_2  and  O_3
REMARK    3  A    between atoms: O_3  and  C_4
REMARK    4  A    between atoms: C_4  and  C_6
REMARK    5  A    between atoms: N_7  and  N_8
REMARK    6  A    between atoms: N_8  and  C_9
REMARK    7  A    between atoms: N_19  and  C_20
REMARK    8  A    between atoms: C_20  and  C_21
REMARK                            x       y       z     vdW  Elec       q    Type
REMARK                         _______ _______ _______ _____ _____    ______ ____
ROOT
ATOM      1  C   UNL     1       0.835   9.366  19.854  0.00  0.00    +0.000 C 
ATOM      2  N   UNL     1       0.223   9.857  18.802  0.00  0.00    +0.000 NA
ATOM      3  N   UNL     1       1.720   8.290  19.673  0.00  0.00    +0.000 N 
ATOM      4  C   UNL     1       1.926   7.206  20.640  0.00  0.00    +0.000 C 
ATOM      5  C   UNL     1       1.857   5.812  19.974  0.00  0.00    +0.000 C 
ATOM      6  N   UNL     1       2.693   5.648  18.769  0.00  0.00    +0.000 NA
ATOM      7  C   UNL     1       2.345   6.745  17.833  0.00  0.00    +0.000 C 
ATOM      8  C   UNL     1       2.483   8.163  18.422  0.00  0.00    +0.000 C 
ENDROOT
BRANCH   1   9
ATOM      9  C   UNL     1       0.660  10.031  21.262  0.00  0.00    +0.000 C 
ATOM     10  O   UNL     1       1.599  10.478  21.902  0.00  0.00    +0.000 OA
BRANCH   9  11
ATOM     11  O   UNL     1      -0.598   9.883  21.709  0.00  0.00    +0.000 OA
BRANCH  11  13
ATOM     12  C   UNL     1      -1.672  11.575  23.054  0.00  0.00    +0.000 C 
ATOM     13  C   UNL     1      -0.830  10.317  23.052  0.00  0.00    +0.000 C 
ENDBRANCH  11  13
ENDBRANCH   9  11
ENDBRANCH   1   9
BRANCH   2  14
ATOM     14  N   UNL     1      -0.632  10.903  18.926  0.00  0.00    +0.000 N 
ATOM     15  H   UNL     1      -0.304  11.833  19.210  0.00  0.00    +0.000 HD
BRANCH  14  16
ATOM     16  C   UNL     1      -1.808  10.913  18.137  0.00  0.00    +0.000 A 
ATOM     17  C   UNL     1      -1.931  10.105  16.994  0.00  0.00    +0.000 A 
ATOM     18  C   UNL     1      -3.122  10.042  16.264  0.00  0.00    +0.000 A 
ATOM     19  C   UNL     1      -4.234  10.769  16.679  0.00  0.00    +0.000 A 
ATOM     20  C   UNL     1      -4.147  11.564  17.822  0.00  0.00    +0.000 A 
ATOM     21  C   UNL     1      -2.950  11.633  18.543  0.00  0.00    +0.000 A 
ATOM     22 CL   UNL     1      -2.914  12.627  19.960  0.00  0.00    +0.000 Cl
ENDBRANCH  14  16
ENDBRANCH   2  14
BRANCH   6  23
ATOM     23  C   UNL     1       4.119   5.625  19.149  0.00  0.00    +0.000 C 
BRANCH  23  24
ATOM     24  C   UNL     1       5.064   5.353  18.004  0.00  0.00    +0.000 A 
ATOM     25  C   UNL     1       6.208   6.148  17.830  0.00  0.00    +0.000 A 
ATOM     26  C   UNL     1       7.100   5.885  16.792  0.00  0.00    +0.000 A 
ATOM     27  C   UNL     1       6.857   4.828  15.917  0.00  0.00    +0.000 A 
ATOM     28  C   UNL     1       5.725   4.032  16.077  0.00  0.00    +0.000 A 
ATOM     29  C   UNL     1       4.831   4.292  17.116  0.00  0.00    +0.000 A 
ENDBRANCH  23  24
ENDBRANCH   6  23
TORSDOF 7
ENDMDL
MODEL 3
REMARK VINA RESULT:      -7.1      0.910      1.003
REMARK  Name = 
REMARK  8 active torsions:
REMARK  status: ('A' for Active; 'I' for Inactive)
REMARK    1  A    between atoms: C_1  and  C_2
REMARK    2  A    between atoms: C_2  and  O_3
REMARK    3  A    between atoms: O_3  and  C_4
REMARK    4  A    between atoms: C_4  and  C_6
REMARK    5  A    between atoms: N_7  and  N_8
REMARK    6  A    between atoms: N_8  and  C_9
REMARK    7  A    between atoms: N_19  and  C_20
REMARK    8  A    between atoms: C_20  and  C_21
REMARK                            x       y       z     vdW  Elec       q    Type
REMARK                         _______ _______ _______ _____ _____    ______ ____
ROOT
ATOM      1  C   UNL     1       0.798   9.867  19.429  0.00  0.00    +0.000 C 
ATOM      2  N   UNL     1       0.205  10.243  18.320  0.00  0.00    +0.000 NA
ATOM      3  N   UNL     1       1.642   8.745  19.391  0.00  0.00    +0.000 N 
ATOM      4  C   UNL     1       1.806   7.784  20.488  0.00  0.00    +0.000 C 
ATOM      5  C   UNL     1       1.686   6.321  20.004  0.00  0.00    +0.000 C 
ATOM      6  N   UNL     1       2.516   5.975  18.834  0.00  0.00    +0.000 NA
ATOM      7  C   UNL     1       2.210   6.957  17.765  0.00  0.00    +0.000 C 
ATOM      8  C   UNL     1       2.401   8.431  18.170  0.00  0.00    +0.000 C 
ENDROOT
BRANCH   1   9
ATOM      9  C   UNL     1       0.647  10.711  20.740  0.00  0.00    +0.000 C 
ATOM     10  O   UNL     1       1.574  11.333  21.235  0.00  0.00    +0.000 OA
BRANCH   9  11
ATOM     11  O   UNL     1      -0.556  10.512  21.303  0.00  0.00    +0.000 OA
BRANCH  11  13
ATOM     12  C   UNL     1      -0.090   9.430  23.409  0.00  0.00    +0.000 C 
ATOM     13  C   UNL     1      -0.608  10.675  22.722  0.00  0.00    +0.000 C 
ENDBRANCH  11  13
ENDBRANCH   9  11
ENDBRANCH   1   9
BRANCH   2  14
ATOM     14  N   UNL     1      -0.609  11.327  18.306  0.00  0.00    +0.000 N 
ATOM     15  H   UNL     1      -0.232  12.281  18.274  0.00  0.00    +0.000 HD
BRANCH  14  16
ATOM     16  C   UNL     1      -1.907  11.192  17.753  0.00  0.00    +0.000 A 
ATOM     17  C   UNL     1      -2.130  10.447  16.582  0.00  0.00    +0.000 A 
ATOM     18  C   UNL     1      -3.419  10.234  16.083  0.00  0.00    +0.000 A 
ATOM     19  C   UNL     1      -4.523  10.740  16.763  0.00  0.00    +0.000 A 
ATOM     20  C   UNL     1      -4.332  11.466  17.939  0.00  0.00    +0.000 A 
ATOM     21  C   UNL     1      -3.041  11.687  18.429  0.00  0.00    +0.000 A 
ATOM     22 CL   UNL     1      -2.874  12.582  19.901  0.00  0.00    +0.000 Cl
ENDBRANCH  14  16
ENDBRANCH   2  14
BRANCH   6  23
ATOM     23  C   UNL     1       3.939   5.947  19.222  0.00  0.00    +0.000 C 
BRANCH  23  24
ATOM     24  C   UNL     1       4.877   5.519  18.119  0.00  0.00    +0.000 A 
ATOM     25  C   UNL     1       4.640   4.330  17.413  0.00  0.00    +0.000 A 
ATOM     26  C   UNL     1       5.485   3.944  16.374  0.00  0.00    +0.000 A 
ATOM     27  C   UNL     1       6.576   4.740  16.032  0.00  0.00    +0.000 A 
ATOM     28  C   UNL     1       6.824   5.923  16.726  0.00  0.00    +0.000 A 
ATOM     29  C   UNL     1       5.979   6.313  17.765  0.00  0.00    +0.000 A 
ENDBRANCH  23  24
ENDBRANCH   6  23
TORSDOF 7
ENDMDL
MODEL 4
REMARK VINA RESULT:      -7.0      1.907      2.375
REMARK  Name = 
REMARK  8 active torsions:
REMARK  status: ('A' for Active; 'I' for Inactive)
REMARK    1  A    between atoms: C_1  and  C_2
REMARK    2  A    between atoms: C_2  and  O_3
REMARK    3  A    between atoms: O_3  and  C_4
REMARK    4  A    between atoms: C_4  and  C_6
REMARK    5  A    between atoms: N_7  and  N_8
REMARK    6  A    between atoms: N_8  and  C_9
REMARK    7  A    between atoms: N_19  and  C_20
REMARK    8  A    between atoms: C_20  and  C_21
REMARK                            x       y       z     vdW  Elec       q    Type
REMARK                         _______ _______ _______ _____ _____    ______ ____
ROOT
ATOM      1  C   UNL     1       1.220   8.708  20.219  0.00  0.00    +0.000 C 
ATOM      2  N   UNL     1       0.809   9.438  19.208  0.00  0.00    +0.000 NA
ATOM      3  N   UNL     1       1.957   7.543  19.950  0.00  0.00    +0.000 N 
ATOM      4  C   UNL     1       1.892   6.312  20.745  0.00  0.00    +0.000 C 
ATOM      5  C   UNL     1       1.702   5.058  19.861  0.00  0.00    +0.000 C 
ATOM      6  N   UNL     1       2.639   4.939  18.727  0.00  0.00    +0.000 NA
ATOM      7  C   UNL     1       2.561   6.201  17.951  0.00  0.00    +0.000 C 
ATOM      8  C   UNL     1       2.832   7.478  18.770  0.00  0.00    +0.000 C 
ENDROOT
BRANCH   1   9
ATOM      9  C   UNL     1       0.981   9.183  21.693  0.00  0.00    +0.000 C 
ATOM     10  O   UNL     1       1.888   9.309  22.501  0.00  0.00    +0.000 OA
BRANCH   9  11
ATOM     11  O   UNL     1      -0.332   9.258  21.966  0.00  0.00    +0.000 OA
BRANCH  11  13
ATOM     12  C   UNL     1      -1.291  11.235  22.963  0.00  0.00    +0.000 C 
ATOM     13  C   UNL     1      -0.669   9.878  23.209  0.00  0.00    +0.000 C 
ENDBRANCH  11  13
ENDBRANCH   9  11
ENDBRANCH   1   9
BRANCH   2  14
ATOM     14  N   UNL     1       0.105  10.577  19.419  0.00  0.00    +0.000 N 
ATOM     15  H   UNL     1      -0.645  10.622  20.118  0.00  0.00    +0.000 HD
BRANCH  14  16
ATOM     16  C   UNL     1       0.731  11.819  19.151  0.00  0.00    +0.000 A 
ATOM     17  C   UNL     1       2.026  11.885  18.610  0.00  0.00    +0.000 A 
ATOM     18  C   UNL     1       2.613  13.105  18.258  0.00  0.00    +0.000 A 
ATOM     19  C   UNL     1       1.903  14.292  18.414  0.00  0.00    +0.000 A 
ATOM     20  C   UNL     1       0.607  14.254  18.929  0.00  0.00    +0.000 A 
ATOM     21  C   UNL     1       0.027  13.033  19.290  0.00  0.00    +0.000 A 
ATOM     22 CL   UNL     1      -1.588  13.056  19.910  0.00  0.00    +0.000 Cl
ENDBRANCH  14  16
ENDBRANCH   2  14
BRANCH   6  23
ATOM     23  C   UNL     1       3.993   4.634  19.227  0.00  0.00    +0.000 C 
BRANCH  23  24
ATOM     24  C   UNL     1       5.044   4.519  18.150  0.00  0.00    +0.000 A 
ATOM     25  C   UNL     1       4.729   3.926  16.918  0.00  0.00    +0.000 A 
ATOM     26  C   UNL     1       5.686   3.843  15.908  0.00  0.00    +0.000 A 
ATOM     27  C   UNL     1       6.967   4.348  16.120  0.00  0.00    +0.000 A 
ATOM     28  C   UNL     1       7.294   4.938  17.340  0.00  0.00    +0.000 A 
ATOM     29  C   UNL     1       6.337   5.025  18.351  0.00  0.00    +0.000 A 
ENDBRANCH  23  24
ENDBRANCH   6  23
TORSDOF 7
ENDMDL
MODEL 5
REMARK VINA RESULT:      -6.9      1.699      2.466
REMARK  Name = 
REMARK  8 active torsions:
REMARK  status: ('A' for Active; 'I' for Inactive)
REMARK    1  A    between atoms: C_1  and  C_2
REMARK    2  A    between atoms: C_2  and  O_3
REMARK    3  A    between atoms: O_3  and  C_4
REMARK    4  A    between atoms: C_4  and  C_6
REMARK    5  A    between atoms: N_7  and  N_8
REMARK    6  A    between atoms: N_8  and  C_9
REMARK    7  A    between atoms: N_19  and  C_20
REMARK    8  A    between atoms: C_20  and  C_21
REMARK                            x       y       z     vdW  Elec       q    Type
REMARK                         _______ _______ _______ _____ _____    ______ ____
ROOT
ATOM      1  C   UNL     1       1.093   8.683  20.385  0.00  0.00    +0.000 C 
ATOM      2  N   UNL     1       0.508   9.395  19.451  0.00  0.00    +0.000 NA
ATOM      3  N   UNL     1       1.920   7.616  19.996  0.00  0.00    +0.000 N 
ATOM      4  C   UNL     1       2.067   6.359  20.739  0.00  0.00    +0.000 C 
ATOM      5  C   UNL     1       1.924   5.122  19.823  0.00  0.00    +0.000 C 
ATOM      6  N   UNL     1       2.750   5.145  18.600  0.00  0.00    +0.000 NA
ATOM      7  C   UNL     1       2.461   6.416  17.892  0.00  0.00    +0.000 C 
ATOM      8  C   UNL     1       2.675   7.687  18.736  0.00  0.00    +0.000 C 
ENDROOT
BRANCH   1   9
ATOM      9  C   UNL     1       0.954   9.078  21.895  0.00  0.00    +0.000 C 
ATOM     10  O   UNL     1       1.918   9.297  22.612  0.00  0.00    +0.000 OA
BRANCH   9  11
ATOM     11  O   UNL     1      -0.322   8.974  22.302  0.00  0.00    +0.000 OA
BRANCH  11  13
ATOM     12  C   UNL     1      -1.168  11.135  22.965  0.00  0.00    +0.000 C 
ATOM     13  C   UNL     1      -0.678   9.780  23.428  0.00  0.00    +0.000 C 
ENDBRANCH  11  13
ENDBRANCH   9  11
ENDBRANCH   1   9
BRANCH   2  14
ATOM     14  N   UNL     1      -0.289  10.443  19.779  0.00  0.00    +0.000 N 
ATOM     15  H   UNL     1      -0.963  10.382  20.550  0.00  0.00    +0.000 HD
BRANCH  14  16
ATOM     16  C   UNL     1       0.170  11.755  19.503  0.00  0.00    +0.000 A 
ATOM     17  C   UNL     1       1.353  12.253  20.075  0.00  0.00    +0.000 A 
ATOM     18  C   UNL     1       1.858  13.512  19.736  0.00  0.00    +0.000 A 
ATOM     19  C   UNL     1       1.203  14.295  18.789  0.00  0.00    +0.000 A 
ATOM     20  C   UNL     1       0.038  13.816  18.190  0.00  0.00    +0.000 A 
ATOM     21  C   UNL     1      -0.471  12.561  18.540  0.00  0.00    +0.000 A 
ATOM     22 CL   UNL     1      -1.912  12.021  17.748  0.00  0.00    +0.000 Cl
ENDBRANCH  14  16
ENDBRANCH   2  14
BRANCH   6  23
ATOM     23  C   UNL     1       4.172   4.975  18.955  0.00  0.00    +0.000 C 
BRANCH  23  24
ATOM     24  C   UNL     1       5.108   4.928  17.771  0.00  0.00    +0.000 A 
ATOM     25  C   UNL     1       6.169   5.841  17.674  0.00  0.00    +0.000 A 
ATOM     26  C   UNL     1       7.054   5.785  16.598  0.00  0.00    +0.000 A 
ATOM     27  C   UNL     1       6.886   4.818  15.610  0.00  0.00    +0.000 A 
ATOM     28  C   UNL     1       5.836   3.905  15.693  0.00  0.00    +0.000 A 
ATOM     29  C   UNL     1       4.950   3.958  16.769  0.00  0.00    +0.000 A 
ENDBRANCH  23  24
ENDBRANCH   6  23
TORSDOF 7
ENDMDL
MODEL 6
REMARK VINA RESULT:      -6.9      1.187      1.667
REMARK  Name = 
REMARK  8 active torsions:
REMARK  status: ('A' for Active; 'I' for Inactive)
REMARK    1  A    between atoms: C_1  and  C_2
REMARK    2  A    between atoms: C_2  and  O_3
REMARK    3  A    between atoms: O_3  and  C_4
REMARK    4  A    between atoms: C_4  and  C_6
REMARK    5  A    between atoms: N_7  and  N_8
REMARK    6  A    between atoms: N_8  and  C_9
REMARK    7  A    between atoms: N_19  and  C_20
REMARK    8  A    between atoms: C_20  and  C_21
REMARK                            x       y       z     vdW  Elec       q    Type
REMARK                         _______ _______ _______ _____ _____    ______ ____
ROOT
ATOM      1  C   UNL     1       0.640   9.455  19.867  0.00  0.00    +0.000 C 
ATOM      2  N   UNL     1      -0.073   9.833  18.832  0.00  0.00    +0.000 NA
ATOM      3  N   UNL     1       1.593   8.438  19.690  0.00  0.00    +0.000 N 
ATOM      4  C   UNL     1       1.942   7.434  20.702  0.00  0.00    +0.000 C 
ATOM      5  C   UNL     1       1.940   6.000  20.123  0.00  0.00    +0.000 C 
ATOM      6  N   UNL     1       2.709   5.823  18.876  0.00  0.00    +0.000 NA
ATOM      7  C   UNL     1       2.219   6.831  17.904  0.00  0.00    +0.000 C 
ATOM      8  C   UNL     1       2.284   8.288  18.400  0.00  0.00    +0.000 C 
ENDROOT
BRANCH   1   9
ATOM      9  C   UNL     1       0.503  10.193  21.243  0.00  0.00    +0.000 C 
ATOM     10  O   UNL     1      -0.363   9.916  22.057  0.00  0.00    +0.000 OA
BRANCH   9  11
ATOM     11  O   UNL     1       1.339  11.243  21.308  0.00  0.00    +0.000 OA
BRANCH  11  13
ATOM     12  C   UNL     1       1.341  13.302  20.049  0.00  0.00    +0.000 C 
ATOM     13  C   UNL     1       0.724  12.528  21.194  0.00  0.00    +0.000 C 
ENDBRANCH  11  13
ENDBRANCH   9  11
ENDBRANCH   1   9
BRANCH   2  14
ATOM     14  N   UNL     1      -0.996  10.819  18.953  0.00  0.00    +0.000 N 
ATOM     15  H   UNL     1      -0.769  11.713  19.401  0.00  0.00    +0.000 HD
BRANCH  14  16
ATOM     16  C   UNL     1      -2.038  10.891  17.996  0.00  0.00    +0.000 A 
ATOM     17  C   UNL     1      -1.977  10.172  16.789  0.00  0.00    +0.000 A 
ATOM     18  C   UNL     1      -3.042  10.167  15.884  0.00  0.00    +0.000 A 
ATOM     19  C   UNL     1      -4.212  10.862  16.178  0.00  0.00    +0.000 A 
ATOM     20  C   UNL     1      -4.309  11.566  17.378  0.00  0.00    +0.000 A 
ATOM     21  C   UNL     1      -3.237  11.579  18.277  0.00  0.00    +0.000 A 
ATOM     22 CL   UNL     1      -3.428  12.461  19.753  0.00  0.00    +0.000 Cl
ENDBRANCH  14  16
ENDBRANCH   2  14
BRANCH   6  23
ATOM     23  C   UNL     1       4.153   5.928  19.160  0.00  0.00    +0.000 C 
BRANCH  23  24
ATOM     24  C   UNL     1       5.045   5.523  18.012  0.00  0.00    +0.000 A 
ATOM     25  C   UNL     1       6.196   6.268  17.716  0.00  0.00    +0.000 A 
ATOM     26  C   UNL     1       7.039   5.883  16.675  0.00  0.00    +0.000 A 
ATOM     27  C   UNL     1       6.739   4.752  15.919  0.00  0.00    +0.000 A 
ATOM     28  C   UNL     1       5.598   4.004  16.201  0.00  0.00    +0.000 A 
ATOM     29  C   UNL     1       4.754   4.385  17.243  0.00  0.00    +0.000 A 
ENDBRANCH  23  24
ENDBRANCH   6  23
TORSDOF 7
ENDMDL
MODEL 7
REMARK VINA RESULT:      -6.7      3.180      8.740
REMARK  Name = 
REMARK  8 active torsions:
REMARK  status: ('A' for Active; 'I' for Inactive)
REMARK    1  A    between atoms: C_1  and  C_2
REMARK    2  A    between atoms: C_2  and  O_3
REMARK    3  A    between atoms: O_3  and  C_4
REMARK    4  A    between atoms: C_4  and  C_6
REMARK    5  A    between atoms: N_7  and  N_8
REMARK    6  A    between atoms: N_8  and  C_9
REMARK    7  A    between atoms: N_19  and  C_20
REMARK    8  A    between atoms: C_20  and  C_21
REMARK                            x       y       z     vdW  Elec       q    Type
REMARK                         _______ _______ _______ _____ _____    ______ ____
ROOT
ATOM      1  C   UNL     1       2.674   6.415  19.348  0.00  0.00    +0.000 C 
ATOM      2  N   UNL     1       3.851   6.408  18.768  0.00  0.00    +0.000 NA
ATOM      3  N   UNL     1       1.870   7.559  19.221  0.00  0.00    +0.000 N 
ATOM      4  C   UNL     1       0.960   8.061  20.257  0.00  0.00    +0.000 C 
ATOM      5  C   UNL     1       1.140   9.576  20.506  0.00  0.00    +0.000 C 
ATOM      6  N   UNL     1       1.121  10.419  19.295  0.00  0.00    +0.000 NA
ATOM      7  C   UNL     1       2.131   9.871  18.356  0.00  0.00    +0.000 C 
ATOM      8  C   UNL     1       1.943   8.383  18.004  0.00  0.00    +0.000 C 
ENDROOT
BRANCH   1   9
ATOM      9  C   UNL     1       2.137   5.136  20.078  0.00  0.00    +0.000 C 
ATOM     10  O   UNL     1       2.423   4.865  21.233  0.00  0.00    +0.000 OA
BRANCH   9  11
ATOM     11  O   UNL     1       1.485   4.333  19.220  0.00  0.00    +0.000 OA
BRANCH  11  13
ATOM     12  C   UNL     1       2.441   2.208  18.593  0.00  0.00    +0.000 C 
ATOM     13  C   UNL     1       1.512   2.939  19.537  0.00  0.00    +0.000 C 
ENDBRANCH  11  13
ENDBRANCH   9  11
ENDBRANCH   1   9
BRANCH   2  14
ATOM     14  N   UNL     1       4.657   5.321  18.854  0.00  0.00    +0.000 N 
ATOM     15  H   UNL     1       4.474   4.569  19.528  0.00  0.00    +0.000 HD
BRANCH  14  16
ATOM     16  C   UNL     1       5.364   4.910  17.697  0.00  0.00    +0.000 A 
ATOM     17  C   UNL     1       4.691   4.473  16.543  0.00  0.00    +0.000 A 
ATOM     18  C   UNL     1       5.380   4.154  15.369  0.00  0.00    +0.000 A 
ATOM     19  C   UNL     1       6.764   4.292  15.312  0.00  0.00    +0.000 A 
ATOM     20  C   UNL     1       7.456   4.743  16.436  0.00  0.00    +0.000 A 
ATOM     21  C   UNL     1       6.765   5.051  17.613  0.00  0.00    +0.000 A 
ATOM     22 CL   UNL     1       7.682   5.619  18.966  0.00  0.00    +0.000 Cl
ENDBRANCH  14  16
ENDBRANCH   2  14
BRANCH   6  23
ATOM     23  C   UNL     1      -0.244  10.463  18.737  0.00  0.00    +0.000 C 
BRANCH  23  24
ATOM     24  C   UNL     1      -1.146  11.491  19.377  0.00  0.00    +0.000 A 
ATOM     25  C   UNL     1      -2.508  11.538  19.045  0.00  0.00    +0.000 A 
ATOM     26  C   UNL     1      -3.352  12.466  19.653  0.00  0.00    +0.000 A 
ATOM     27  C   UNL     1      -2.843  13.356  20.596  0.00  0.00    +0.000 A 
ATOM     28  C   UNL     1      -1.491  13.321  20.934  0.00  0.00    +0.000 A 
ATOM     29  C   UNL     1      -0.645  12.392  20.329  0.00  0.00    +0.000 A 
ENDBRANCH  23  24
ENDBRANCH   6  23
TORSDOF 7
ENDMDL
MODEL 8
REMARK VINA RESULT:      -6.7      3.569      8.927
REMARK  Name = 
REMARK  8 active torsions:
REMARK  status: ('A' for Active; 'I' for Inactive)
REMARK    1  A    between atoms: C_1  and  C_2
REMARK    2  A    between atoms: C_2  and  O_3
REMARK    3  A    between atoms: O_3  and  C_4
REMARK    4  A    between atoms: C_4  and  C_6
REMARK    5  A    between atoms: N_7  and  N_8
REMARK    6  A    between atoms: N_8  and  C_9
REMARK    7  A    between atoms: N_19  and  C_20
REMARK    8  A    between atoms: C_20  and  C_21
REMARK                            x       y       z     vdW  Elec       q    Type
REMARK                         _______ _______ _______ _____ _____    ______ ____
ROOT
ATOM      1  C   UNL     1       2.137   6.842  19.553  0.00  0.00    +0.000 C 
ATOM      2  N   UNL     1       2.929   7.096  18.538  0.00  0.00    +0.000 NA
ATOM      3  N   UNL     1       1.427   7.906  20.133  0.00  0.00    +0.000 N 
ATOM      4  C   UNL     1       1.105   8.017  21.560  0.00  0.00    +0.000 C 
ATOM      5  C   UNL     1       1.462   9.409  22.130  0.00  0.00    +0.000 C 
ATOM      6  N   UNL     1       0.953  10.557  21.355  0.00  0.00    +0.000 NA
ATOM      7  C   UNL     1       1.404  10.382  19.953  0.00  0.00    +0.000 C 
ATOM      8  C   UNL     1       0.995   9.044  19.306  0.00  0.00    +0.000 C 
ENDROOT
BRANCH   1   9
ATOM      9  C   UNL     1       1.911   5.369  20.040  0.00  0.00    +0.000 C 
ATOM     10  O   UNL     1       2.345   4.950  21.101  0.00  0.00    +0.000 OA
BRANCH   9  11
ATOM     11  O   UNL     1       1.342   4.628  19.074  0.00  0.00    +0.000 OA
BRANCH  11  13
ATOM     12  C   UNL     1       1.924   2.442  18.234  0.00  0.00    +0.000 C 
ATOM     13  C   UNL     1       1.256   3.226  19.343  0.00  0.00    +0.000 C 
ENDBRANCH  11  13
ENDBRANCH   9  11
ENDBRANCH   1   9
BRANCH   2  14
ATOM     14  N   UNL     1       3.625   6.098  17.939  0.00  0.00    +0.000 N 
ATOM     15  H   UNL     1       3.227   5.557  17.163  0.00  0.00    +0.000 HD
BRANCH  14  16
ATOM     16  C   UNL     1       5.040   6.165  17.941  0.00  0.00    +0.000 A 
ATOM     17  C   UNL     1       5.724   7.244  17.355  0.00  0.00    +0.000 A 
ATOM     18  C   UNL     1       7.115   7.361  17.434  0.00  0.00    +0.000 A 
ATOM     19  C   UNL     1       7.857   6.410  18.129  0.00  0.00    +0.000 A 
ATOM     20  C   UNL     1       7.203   5.340  18.738  0.00  0.00    +0.000 A 
ATOM     21  C   UNL     1       5.812   5.220  18.647  0.00  0.00    +0.000 A 
ATOM     22 CL   UNL     1       5.062   3.875  19.438  0.00  0.00    +0.000 Cl
ENDBRANCH  14  16
ENDBRANCH   2  14
BRANCH   6  23
ATOM     23  C   UNL     1      -0.513  10.646  21.498  0.00  0.00    +0.000 C 
BRANCH  23  24
ATOM     24  C   UNL     1      -0.993  11.869  22.242  0.00  0.00    +0.000 A 
ATOM     25  C   UNL     1      -0.290  13.078  22.138  0.00  0.00    +0.000 A 
ATOM     26  C   UNL     1      -0.743  14.219  22.799  0.00  0.00    +0.000 A 
ATOM     27  C   UNL     1      -1.901  14.162  23.570  0.00  0.00    +0.000 A 
ATOM     28  C   UNL     1      -2.609  12.966  23.683  0.00  0.00    +0.000 A 
ATOM     29  C   UNL     1      -2.159  11.824  23.022  0.00  0.00    +0.000 A 
ENDBRANCH  23  24
ENDBRANCH   6  23
TORSDOF 7
ENDMDL
MODEL 9
REMARK VINA RESULT:      -6.6      3.173      8.734
REMARK  Name = 
REMARK  8 active torsions:
REMARK  status: ('A' for Active; 'I' for Inactive)
REMARK    1  A    between atoms: C_1  and  C_2
REMARK    2  A    between atoms: C_2  and  O_3
REMARK    3  A    between atoms: O_3  and  C_4
REMARK    4  A    between atoms: C_4  and  C_6
REMARK    5  A    between atoms: N_7  and  N_8
REMARK    6  A    between atoms: N_8  and  C_9
REMARK    7  A    between atoms: N_19  and  C_20
REMARK    8  A    between atoms: C_20  and  C_21
REMARK                            x       y       z     vdW  Elec       q    Type
REMARK                         _______ _______ _______ _____ _____    ______ ____
ROOT
ATOM      1  C   UNL     1       2.875   6.437  19.250  0.00  0.00    +0.000 C 
ATOM      2  N   UNL     1       4.011   6.484  18.594  0.00  0.00    +0.000 NA
ATOM      3  N   UNL     1       1.996   7.528  19.149  0.00  0.00    +0.000 N 
ATOM      4  C   UNL     1       1.125   8.003  20.231  0.00  0.00    +0.000 C 
ATOM      5  C   UNL     1       1.228   9.533  20.430  0.00  0.00    +0.000 C 
ATOM      6  N   UNL     1       1.081  10.340  19.204  0.00  0.00    +0.000 NA
ATOM      7  C   UNL     1       2.059   9.827  18.214  0.00  0.00    +0.000 C 
ATOM      8  C   UNL     1       1.940   8.321  17.911  0.00  0.00    +0.000 C 
ENDROOT
BRANCH   1   9
ATOM      9  C   UNL     1       2.464   5.149  20.043  0.00  0.00    +0.000 C 
ATOM     10  O   UNL     1       2.265   5.151  21.247  0.00  0.00    +0.000 OA
BRANCH   9  11
ATOM     11  O   UNL     1       2.533   4.061  19.258  0.00  0.00    +0.000 OA
BRANCH  11  13
ATOM     12  C   UNL     1       0.745   2.515  18.772  0.00  0.00    +0.000 C 
ATOM     13  C   UNL     1       1.398   3.833  18.419  0.00  0.00    +0.000 C 
ENDBRANCH  11  13
ENDBRANCH   9  11
ENDBRANCH   1   9
BRANCH   2  14
ATOM     14  N   UNL     1       4.885   5.449  18.652  0.00  0.00    +0.000 N 
ATOM     15  H   UNL     1       4.808   4.722  19.372  0.00  0.00    +0.000 HD
BRANCH  14  16
ATOM     16  C   UNL     1       5.511   5.024  17.454  0.00  0.00    +0.000 A 
ATOM     17  C   UNL     1       4.776   4.423  16.417  0.00  0.00    +0.000 A 
ATOM     18  C   UNL     1       5.372   4.085  15.198  0.00  0.00    +0.000 A 
ATOM     19  C   UNL     1       6.716   4.367  14.975  0.00  0.00    +0.000 A 
ATOM     20  C   UNL     1       7.464   4.982  15.980  0.00  0.00    +0.000 A 
ATOM     21  C   UNL     1       6.869   5.309  17.203  0.00  0.00    +0.000 A 
ATOM     22 CL   UNL     1       7.849   6.082  18.400  0.00  0.00    +0.000 Cl
ENDBRANCH  14  16
ENDBRANCH   2  14
BRANCH   6  23
ATOM     23  C   UNL     1      -0.317  10.287  18.736  0.00  0.00    +0.000 C 
BRANCH  23  24
ATOM     24  C   UNL     1      -1.222  11.321  19.361  0.00  0.00    +0.000 A 
ATOM     25  C   UNL     1      -0.709  12.240  20.288  0.00  0.00    +0.000 A 
ATOM     26  C   UNL     1      -1.532  13.216  20.848  0.00  0.00    +0.000 A 
ATOM     27  C   UNL     1      -2.876  13.282  20.487  0.00  0.00    +0.000 A 
ATOM     28  C   UNL     1      -3.400  12.374  19.568  0.00  0.00    +0.000 A 
ATOM     29  C   UNL     1      -2.578  11.398  19.005  0.00  0.00    +0.000 A 
ENDBRANCH  23  24
ENDBRANCH   6  23
TORSDOF 7
ENDMDL
