MODEL 1
REMARK VINA RESULT:      -8.0      0.000      0.000
REMARK  Name = 
REMARK  3 active torsions:
REMARK  status: ('A' for Active; 'I' for Inactive)
REMARK    1  A    between atoms: C_1  and  C_2
REMARK    2  A    between atoms: C_2  and  C_4
REMARK    3  A    between atoms: C_12  and  O_13
REMARK                            x       y       z     vdW  Elec       q    Type
REMARK                         _______ _______ _______ _____ _____    ______ ____
ROOT
ATOM      1  C   UNL     1       5.923   4.745  15.132  0.00  0.00    +0.000 A 
ATOM      2  C   UNL     1       5.330   3.657  15.754  0.00  0.00    +0.000 A 
ATOM      3  C   UNL     1       4.498   4.035  16.858  0.00  0.00    +0.000 A 
ATOM      4  C   UNL     1       4.482   5.401  17.012  0.00  0.00    +0.000 A 
ATOM      5  S   UNL     1       5.448   6.209  15.881  0.00  0.00    +0.000 S 
ATOM      6  C   UNL     1       3.739   6.111  18.018  0.00  0.00    +0.000 C 
ATOM      7  O   UNL     1       3.714   7.333  18.157  0.00  0.00    +0.000 OA
ATOM      8  C   UNL     1       2.947   5.268  18.952  0.00  0.00    +0.000 A 
ATOM      9  C   UNL     1       2.191   5.870  19.966  0.00  0.00    +0.000 A 
ATOM     10  C   UNL     1       1.450   5.092  20.850  0.00  0.00    +0.000 A 
ATOM     11  C   UNL     1       1.458   3.702  20.731  0.00  0.00    +0.000 A 
ATOM     12  C   UNL     1       2.205   3.089  19.723  0.00  0.00    +0.000 A 
ATOM     13  C   UNL     1       2.951   3.866  18.827  0.00  0.00    +0.000 A 
ATOM     14  C   UNL     1       3.736   3.176  17.753  0.00  0.00    +0.000 C 
ATOM     15  O   UNL     1       3.727   1.957  17.651  0.00  0.00    +0.000 OA
ENDROOT
BRANCH   1  17
ATOM     16  C   UNL     1       6.539   3.784  12.843  0.00  0.00    +0.000 C 
ATOM     17  C   UNL     1       6.833   4.728  13.990  0.00  0.00    +0.000 C 
ATOM     18  O   UNL     1       7.817   5.465  13.929  0.00  0.00    +0.000 OA
ENDBRANCH   1  17
BRANCH   9  19
ATOM     19  O   UNL     1       2.126   7.224  20.161  0.00  0.00    +0.000 OA
ATOM     20  H   UNL     1       1.354   7.584  19.667  0.00  0.00    +0.000 HD
ENDBRANCH   9  19
TORSDOF 2
ENDMDL
MODEL 2
REMARK VINA RESULT:      -7.7      1.109      2.739
REMARK  Name = 
REMARK  3 active torsions:
REMARK  status: ('A' for Active; 'I' for Inactive)
REMARK    1  A    between atoms: C_1  and  C_2
REMARK    2  A    between atoms: C_2  and  C_4
REMARK    3  A    between atoms: C_12  and  O_13
REMARK                            x       y       z     vdW  Elec       q    Type
REMARK                         _______ _______ _______ _____ _____    ______ ____
ROOT
ATOM      1  C   UNL     1       6.039   4.820  15.039  0.00  0.00    +0.000 A 
ATOM      2  C   UNL     1       5.498   5.906  15.710  0.00  0.00    +0.000 A 
ATOM      3  C   UNL     1       4.644   5.519  16.794  0.00  0.00    +0.000 A 
ATOM      4  C   UNL     1       4.593   4.149  16.909  0.00  0.00    +0.000 A 
ATOM      5  S   UNL     1       5.522   3.348  15.744  0.00  0.00    +0.000 S 
ATOM      6  C   UNL     1       3.838   3.431  17.901  0.00  0.00    +0.000 C 
ATOM      7  O   UNL     1       3.793   2.207  18.014  0.00  0.00    +0.000 OA
ATOM      8  C   UNL     1       3.056   4.268  18.850  0.00  0.00    +0.000 A 
ATOM      9  C   UNL     1       2.288   3.657  19.849  0.00  0.00    +0.000 A 
ATOM     10  C   UNL     1       1.548   4.428  20.740  0.00  0.00    +0.000 A 
ATOM     11  C   UNL     1       1.566   5.820  20.640  0.00  0.00    +0.000 A 
ATOM     12  C   UNL     1       2.330   6.442  19.650  0.00  0.00    +0.000 A 
ATOM     13  C   UNL     1       3.081   5.671  18.751  0.00  0.00    +0.000 A 
ATOM     14  C   UNL     1       3.893   6.371  17.704  0.00  0.00    +0.000 C 
ATOM     15  O   UNL     1       3.911   7.592  17.633  0.00  0.00    +0.000 OA
ENDROOT
BRANCH   1  17
ATOM     16  C   UNL     1       6.634   3.935  12.715  0.00  0.00    +0.000 C 
ATOM     17  C   UNL     1       6.935   4.845  13.887  0.00  0.00    +0.000 C 
ATOM     18  O   UNL     1       7.914   5.591  13.837  0.00  0.00    +0.000 OA
ENDBRANCH   1  17
BRANCH   9  19
ATOM     19  O   UNL     1       2.208   2.301  20.022  0.00  0.00    +0.000 OA
ATOM     20  H   UNL     1       3.076   1.964  20.341  0.00  0.00    +0.000 HD
ENDBRANCH   9  19
TORSDOF 2
ENDMDL
MODEL 3
REMARK VINA RESULT:      -6.9      1.580      2.937
REMARK  Name = 
REMARK  3 active torsions:
REMARK  status: ('A' for Active; 'I' for Inactive)
REMARK    1  A    between atoms: C_1  and  C_2
REMARK    2  A    between atoms: C_2  and  C_4
REMARK    3  A    between atoms: C_12  and  O_13
REMARK                            x       y       z     vdW  Elec       q    Type
REMARK                         _______ _______ _______ _____ _____    ______ ____
ROOT
ATOM      1  C   UNL     1       5.731   5.175  15.593  0.00  0.00    +0.000 A 
ATOM      2  C   UNL     1       5.115   6.387  15.866  0.00  0.00    +0.000 A 
ATOM      3  C   UNL     1       4.293   6.339  17.039  0.00  0.00    +0.000 A 
ATOM      4  C   UNL     1       4.339   5.091  17.616  0.00  0.00    +0.000 A 
ATOM      5  S   UNL     1       5.321   4.003  16.771  0.00  0.00    +0.000 S 
ATOM      6  C   UNL     1       3.638   4.707  18.812  0.00  0.00    +0.000 C 
ATOM      7  O   UNL     1       3.679   3.596  19.338  0.00  0.00    +0.000 OA
ATOM      8  C   UNL     1       2.800   5.765  19.438  0.00  0.00    +0.000 A 
ATOM      9  C   UNL     1       2.079   5.484  20.605  0.00  0.00    +0.000 A 
ATOM     10  C   UNL     1       1.288   6.463  21.198  0.00  0.00    +0.000 A 
ATOM     11  C   UNL     1       1.207   7.734  20.629  0.00  0.00    +0.000 A 
ATOM     12  C   UNL     1       1.923   8.029  19.466  0.00  0.00    +0.000 A 
ATOM     13  C   UNL     1       2.725   7.049  18.866  0.00  0.00    +0.000 A 
ATOM     14  C   UNL     1       3.485   7.400  17.623  0.00  0.00    +0.000 C 
ATOM     15  O   UNL     1       3.416   8.521  17.138  0.00  0.00    +0.000 OA
ENDROOT
BRANCH   1  17
ATOM     16  C   UNL     1       6.176   3.835  13.461  0.00  0.00    +0.000 C 
ATOM     17  C   UNL     1       6.622   4.863  14.479  0.00  0.00    +0.000 C 
ATOM     18  O   UNL     1       7.711   5.420  14.338  0.00  0.00    +0.000 OA
ENDBRANCH   1  17
BRANCH   9  19
ATOM     19  O   UNL     1       2.094   4.267  21.232  0.00  0.00    +0.000 OA
ATOM     20  H   UNL     1       1.630   4.343  22.097  0.00  0.00    +0.000 HD
ENDBRANCH   9  19
TORSDOF 2
ENDMDL
MODEL 4
REMARK VINA RESULT:      -6.5      1.626      2.745
REMARK  Name = 
REMARK  3 active torsions:
REMARK  status: ('A' for Active; 'I' for Inactive)
REMARK    1  A    between atoms: C_1  and  C_2
REMARK    2  A    between atoms: C_2  and  C_4
REMARK    3  A    between atoms: C_12  and  O_13
REMARK                            x       y       z     vdW  Elec       q    Type
REMARK                         _______ _______ _______ _____ _____    ______ ____
ROOT
ATOM      1  C   UNL     1       6.020   4.559  15.600  0.00  0.00    +0.000 A 
ATOM      2  C   UNL     1       6.026   5.046  16.898  0.00  0.00    +0.000 A 
ATOM      3  C   UNL     1       4.935   4.546  17.682  0.00  0.00    +0.000 A 
ATOM      4  C   UNL     1       4.159   3.683  16.944  0.00  0.00    +0.000 A 
ATOM      5  S   UNL     1       4.706   3.490  15.355  0.00  0.00    +0.000 S 
ATOM      6  C   UNL     1       2.992   2.998  17.433  0.00  0.00    +0.000 C 
ATOM      7  O   UNL     1       2.298   2.219  16.781  0.00  0.00    +0.000 OA
ATOM      8  C   UNL     1       2.622   3.277  18.846  0.00  0.00    +0.000 A 
ATOM      9  C   UNL     1       1.499   2.657  19.409  0.00  0.00    +0.000 A 
ATOM     10  C   UNL     1       1.140   2.914  20.728  0.00  0.00    +0.000 A 
ATOM     11  C   UNL     1       1.897   3.797  21.498  0.00  0.00    +0.000 A 
ATOM     12  C   UNL     1       3.020   4.421  20.950  0.00  0.00    +0.000 A 
ATOM     13  C   UNL     1       3.391   4.164  19.623  0.00  0.00    +0.000 A 
ATOM     14  C   UNL     1       4.604   4.845  19.068  0.00  0.00    +0.000 C 
ATOM     15  O   UNL     1       5.268   5.609  19.756  0.00  0.00    +0.000 OA
ENDROOT
BRANCH   1  17
ATOM     16  C   UNL     1       6.799   4.179  13.194  0.00  0.00    +0.000 C 
ATOM     17  C   UNL     1       6.968   4.865  14.533  0.00  0.00    +0.000 C 
ATOM     18  O   UNL     1       7.887   5.670  14.687  0.00  0.00    +0.000 OA
ENDBRANCH   1  17
BRANCH   9  19
ATOM     19  O   UNL     1       0.697   1.780  18.729  0.00  0.00    +0.000 OA
ATOM     20  H   UNL     1       0.522   0.996  19.298  0.00  0.00    +0.000 HD
ENDBRANCH   9  19
TORSDOF 2
ENDMDL
MODEL 5
REMARK VINA RESULT:      -6.4      2.272      3.210
REMARK  Name = 
REMARK  3 active torsions:
REMARK  status: ('A' for Active; 'I' for Inactive)
REMARK    1  A    between atoms: C_1  and  C_2
REMARK    2  A    between atoms: C_2  and  C_4
REMARK    3  A    between atoms: C_12  and  O_13
REMARK                            x       y       z     vdW  Elec       q    Type
REMARK                         _______ _______ _______ _____ _____    ______ ____
ROOT
ATOM      1  C   UNL     1       5.371   5.271  16.998  0.00  0.00    +0.000 A 
ATOM      2  C   UNL     1       4.723   4.938  18.178  0.00  0.00    +0.000 A 
ATOM      3  C   UNL     1       3.785   5.939  18.596  0.00  0.00    +0.000 A 
ATOM      4  C   UNL     1       3.751   6.981  17.699  0.00  0.00    +0.000 A 
ATOM      5  S   UNL     1       4.821   6.780  16.404  0.00  0.00    +0.000 S 
ATOM      6  C   UNL     1       2.910   8.142  17.814  0.00  0.00    +0.000 C 
ATOM      7  O   UNL     1       2.869   9.074  17.012  0.00  0.00    +0.000 OA
ATOM      8  C   UNL     1       2.032   8.189  19.013  0.00  0.00    +0.000 A 
ATOM      9  C   UNL     1       1.180   9.283  19.211  0.00  0.00    +0.000 A 
ATOM     10  C   UNL     1       0.357   9.341  20.332  0.00  0.00    +0.000 A 
ATOM     11  C   UNL     1       0.380   8.308  21.269  0.00  0.00    +0.000 A 
ATOM     12  C   UNL     1       1.223   7.211  21.082  0.00  0.00    +0.000 A 
ATOM     13  C   UNL     1       2.052   7.143  19.954  0.00  0.00    +0.000 A 
ATOM     14  C   UNL     1       2.941   5.949  19.782  0.00  0.00    +0.000 C 
ATOM     15  O   UNL     1       2.945   5.043  20.604  0.00  0.00    +0.000 OA
ENDROOT
BRANCH   1  17
ATOM     16  C   UNL     1       6.013   3.816  14.995  0.00  0.00    +0.000 C 
ATOM     17  C   UNL     1       6.389   4.495  16.296  0.00  0.00    +0.000 C 
ATOM     18  O   UNL     1       7.539   4.390  16.721  0.00  0.00    +0.000 OA
ENDBRANCH   1  17
BRANCH   9  19
ATOM     19  O   UNL     1       1.092  10.343  18.348  0.00  0.00    +0.000 OA
ATOM     20  H   UNL     1       1.985  10.535  17.982  0.00  0.00    +0.000 HD
ENDBRANCH   9  19
TORSDOF 2
ENDMDL
MODEL 6
REMARK VINA RESULT:      -6.2      2.571      6.675
REMARK  Name = 
REMARK  3 active torsions:
REMARK  status: ('A' for Active; 'I' for Inactive)
REMARK    1  A    between atoms: C_1  and  C_2
REMARK    2  A    between atoms: C_2  and  C_4
REMARK    3  A    between atoms: C_12  and  O_13
REMARK                            x       y       z     vdW  Elec       q    Type
REMARK                         _______ _______ _______ _____ _____    ______ ____
ROOT
ATOM      1  C   UNL     1       1.202   7.763  20.624  0.00  0.00    +0.000 A 
ATOM      2  C   UNL     1       1.837   8.251  19.493  0.00  0.00    +0.000 A 
ATOM      3  C   UNL     1       2.620   7.254  18.823  0.00  0.00    +0.000 A 
ATOM      4  C   UNL     1       2.525   6.044  19.469  0.00  0.00    +0.000 A 
ATOM      5  S   UNL     1       1.546   6.101  20.848  0.00  0.00    +0.000 S 
ATOM      6  C   UNL     1       3.178   4.832  19.053  0.00  0.00    +0.000 C 
ATOM      7  O   UNL     1       3.093   3.745  19.622  0.00  0.00    +0.000 OA
ATOM      8  C   UNL     1       4.020   4.937  17.831  0.00  0.00    +0.000 A 
ATOM      9  C   UNL     1       4.696   3.809  17.351  0.00  0.00    +0.000 A 
ATOM     10  C   UNL     1       5.491   3.895  16.212  0.00  0.00    +0.000 A 
ATOM     11  C   UNL     1       5.620   5.112  15.542  0.00  0.00    +0.000 A 
ATOM     12  C   UNL     1       4.949   6.245  16.009  0.00  0.00    +0.000 A 
ATOM     13  C   UNL     1       4.144   6.164  17.154  0.00  0.00    +0.000 A 
ATOM     14  C   UNL     1       3.433   7.397  17.624  0.00  0.00    +0.000 C 
ATOM     15  O   UNL     1       3.545   8.456  17.023  0.00  0.00    +0.000 OA
ENDROOT
BRANCH   1  17
ATOM     16  C   UNL     1       0.831   9.821  22.095  0.00  0.00    +0.000 C 
ATOM     17  C   UNL     1       0.341   8.498  21.546  0.00  0.00    +0.000 C 
ATOM     18  O   UNL     1      -0.770   8.082  21.874  0.00  0.00    +0.000 OA
ENDBRANCH   1  17
BRANCH   9  19
ATOM     19  O   UNL     1       4.631   2.576  17.943  0.00  0.00    +0.000 OA
ATOM     20  H   UNL     1       4.231   2.668  18.837  0.00  0.00    +0.000 HD
ENDBRANCH   9  19
TORSDOF 2
ENDMDL
MODEL 7
REMARK VINA RESULT:      -6.2      3.159      6.575
REMARK  Name = 
REMARK  3 active torsions:
REMARK  status: ('A' for Active; 'I' for Inactive)
REMARK    1  A    between atoms: C_1  and  C_2
REMARK    2  A    between atoms: C_2  and  C_4
REMARK    3  A    between atoms: C_12  and  O_13
REMARK                            x       y       z     vdW  Elec       q    Type
REMARK                         _______ _______ _______ _____ _____    ______ ____
ROOT
ATOM      1  C   UNL     1       0.968   9.414  20.260  0.00  0.00    +0.000 A 
ATOM      2  C   UNL     1       1.650   9.239  19.065  0.00  0.00    +0.000 A 
ATOM      3  C   UNL     1       2.217   7.929  18.937  0.00  0.00    +0.000 A 
ATOM      4  C   UNL     1       1.921   7.159  20.038  0.00  0.00    +0.000 A 
ATOM      5  S   UNL     1       1.008   7.984  21.200  0.00  0.00    +0.000 S 
ATOM      6  C   UNL     1       2.328   5.793  20.224  0.00  0.00    +0.000 C 
ATOM      7  O   UNL     1       2.061   5.096  21.203  0.00  0.00    +0.000 OA
ATOM      8  C   UNL     1       3.139   5.204  19.126  0.00  0.00    +0.000 A 
ATOM      9  C   UNL     1       3.584   3.879  19.219  0.00  0.00    +0.000 A 
ATOM     10  C   UNL     1       4.348   3.318  18.201  0.00  0.00    +0.000 A 
ATOM     11  C   UNL     1       4.679   4.077  17.078  0.00  0.00    +0.000 A 
ATOM     12  C   UNL     1       4.240   5.398  16.971  0.00  0.00    +0.000 A 
ATOM     13  C   UNL     1       3.467   5.969  17.991  0.00  0.00    +0.000 A 
ATOM     14  C   UNL     1       3.008   7.388  17.841  0.00  0.00    +0.000 C 
ATOM     15  O   UNL     1       3.295   8.041  16.847  0.00  0.00    +0.000 OA
ENDROOT
BRANCH   1  17
ATOM     16  C   UNL     1      -0.847  11.176  19.884  0.00  0.00    +0.000 C 
ATOM     17  C   UNL     1       0.283  10.617  20.723  0.00  0.00    +0.000 C 
ATOM     18  O   UNL     1       0.588  11.177  21.776  0.00  0.00    +0.000 OA
ENDBRANCH   1  17
BRANCH   9  19
ATOM     19  O   UNL     1       3.310   3.060  20.283  0.00  0.00    +0.000 OA
ATOM     20  H   UNL     1       2.390   3.225  20.589  0.00  0.00    +0.000 HD
ENDBRANCH   9  19
TORSDOF 2
ENDMDL
MODEL 8
REMARK VINA RESULT:      -6.2      3.227      5.221
REMARK  Name = 
REMARK  3 active torsions:
REMARK  status: ('A' for Active; 'I' for Inactive)
REMARK    1  A    between atoms: C_1  and  C_2
REMARK    2  A    between atoms: C_2  and  C_4
REMARK    3  A    between atoms: C_12  and  O_13
REMARK                            x       y       z     vdW  Elec       q    Type
REMARK                         _______ _______ _______ _____ _____    ______ ____
ROOT
ATOM      1  C   UNL     1       3.516   3.964  19.394  0.00  0.00    +0.000 A 
ATOM      2  C   UNL     1       3.757   4.947  18.447  0.00  0.00    +0.000 A 
ATOM      3  C   UNL     1       3.070   6.173  18.732  0.00  0.00    +0.000 A 
ATOM      4  C   UNL     1       2.351   6.068  19.900  0.00  0.00    +0.000 A 
ATOM      5  S   UNL     1       2.477   4.544  20.625  0.00  0.00    +0.000 S 
ATOM      6  C   UNL     1       1.557   7.119  20.478  0.00  0.00    +0.000 C 
ATOM      7  O   UNL     1       0.917   7.035  21.525  0.00  0.00    +0.000 OA
ATOM      8  C   UNL     1       1.528   8.399  19.721  0.00  0.00    +0.000 A 
ATOM      9  C   UNL     1       0.780   9.479  20.206  0.00  0.00    +0.000 A 
ATOM     10  C   UNL     1       0.741  10.680  19.505  0.00  0.00    +0.000 A 
ATOM     11  C   UNL     1       1.447  10.814  18.309  0.00  0.00    +0.000 A 
ATOM     12  C   UNL     1       2.198   9.745  17.816  0.00  0.00    +0.000 A 
ATOM     13  C   UNL     1       2.246   8.533  18.518  0.00  0.00    +0.000 A 
ATOM     14  C   UNL     1       3.067   7.409  17.963  0.00  0.00    +0.000 C 
ATOM     15  O   UNL     1       3.691   7.540  16.920  0.00  0.00    +0.000 OA
ENDROOT
BRANCH   1  17
ATOM     16  C   UNL     1       3.514   1.610  18.396  0.00  0.00    +0.000 C 
ATOM     17  C   UNL     1       4.039   2.602  19.412  0.00  0.00    +0.000 C 
ATOM     18  O   UNL     1       4.901   2.243  20.216  0.00  0.00    +0.000 OA
ENDBRANCH   1  17
BRANCH   9  19
ATOM     19  O   UNL     1       0.055   9.440  21.367  0.00  0.00    +0.000 OA
ATOM     20  H   UNL     1      -0.658   8.766  21.280  0.00  0.00    +0.000 HD
ENDBRANCH   9  19
TORSDOF 2
ENDMDL
MODEL 9
REMARK VINA RESULT:      -6.1      2.665      6.095
REMARK  Name = 
REMARK  3 active torsions:
REMARK  status: ('A' for Active; 'I' for Inactive)
REMARK    1  A    between atoms: C_1  and  C_2
REMARK    2  A    between atoms: C_2  and  C_4
REMARK    3  A    between atoms: C_12  and  O_13
REMARK                            x       y       z     vdW  Elec       q    Type
REMARK                         _______ _______ _______ _____ _____    ______ ____
ROOT
ATOM      1  C   UNL     1       1.281   8.164  20.703  0.00  0.00    +0.000 A 
ATOM      2  C   UNL     1       1.171   6.861  21.163  0.00  0.00    +0.000 A 
ATOM      3  C   UNL     1       1.820   5.914  20.304  0.00  0.00    +0.000 A 
ATOM      4  C   UNL     1       2.412   6.549  19.237  0.00  0.00    +0.000 A 
ATOM      5  S   UNL     1       2.183   8.225  19.250  0.00  0.00    +0.000 S 
ATOM      6  C   UNL     1       3.155   5.893  18.194  0.00  0.00    +0.000 C 
ATOM      7  O   UNL     1       3.692   6.455  17.241  0.00  0.00    +0.000 OA
ATOM      8  C   UNL     1       3.260   4.414  18.307  0.00  0.00    +0.000 A 
ATOM      9  C   UNL     1       3.962   3.689  17.336  0.00  0.00    +0.000 A 
ATOM     10  C   UNL     1       4.064   2.304  17.427  0.00  0.00    +0.000 A 
ATOM     11  C   UNL     1       3.461   1.628  18.488  0.00  0.00    +0.000 A 
ATOM     12  C   UNL     1       2.760   2.340  19.464  0.00  0.00    +0.000 A 
ATOM     13  C   UNL     1       2.656   3.735  19.382  0.00  0.00    +0.000 A 
ATOM     14  C   UNL     1       1.901   4.468  20.449  0.00  0.00    +0.000 C 
ATOM     15  O   UNL     1       1.386   3.867  21.382  0.00  0.00    +0.000 OA
ENDROOT
BRANCH   1  17
ATOM     16  C   UNL     1      -0.196   9.222  22.504  0.00  0.00    +0.000 C 
ATOM     17  C   UNL     1       0.734   9.370  21.317  0.00  0.00    +0.000 C 
ATOM     18  O   UNL     1       1.016  10.497  20.909  0.00  0.00    +0.000 OA
ENDBRANCH   1  17
BRANCH   9  19
ATOM     19  O   UNL     1       4.583   4.265  16.259  0.00  0.00    +0.000 OA
ATOM     20  H   UNL     1       4.731   5.220  16.446  0.00  0.00    +0.000 HD
ENDBRANCH   9  19
TORSDOF 2
ENDMDL
