MODEL 1
REMARK VINA RESULT:      -8.0      0.000      0.000
REMARK  Name = 
REMARK  5 active torsions:
REMARK  status: ('A' for Active; 'I' for Inactive)
REMARK    1  A    between atoms: N_19  and  C_20
REMARK    2  A    between atoms: C_20  and  C_21
REMARK    3  A    between atoms: C_21  and  O_22
REMARK    4  A    between atoms: C_21  and  C_23
REMARK    5  A    between atoms: C_23  and  O_24
REMARK                            x       y       z     vdW  Elec       q    Type
REMARK                         _______ _______ _______ _____ _____    ______ ____
ROOT
ATOM      1  O   UNL     1       3.159   8.508  17.046  0.00  0.00    +0.000 OA
ATOM      2  C   UNL     1       2.828   7.757  17.938  0.00  0.00    +0.000 C 
ATOM      3  C   UNL     1       2.005   8.122  19.078  0.00  0.00    +0.000 A 
ATOM      4  C   UNL     1       1.383   9.341  19.312  0.00  0.00    +0.000 A 
ATOM      5  C   UNL     1       0.596   9.449  20.454  0.00  0.00    +0.000 A 
ATOM      6  C   UNL     1       0.500   8.368  21.338  0.00  0.00    +0.000 A 
ATOM      7  C   UNL     1       1.206   7.171  21.112  0.00  0.00    +0.000 A 
ATOM      8  C   UNL     1       1.956   7.021  19.942  0.00  0.00    +0.000 A 
ATOM      9  C   UNL     1       2.795   5.955  19.371  0.00  0.00    +0.000 A 
ATOM     10  C   UNL     1       3.262   6.368  18.172  0.00  0.00    +0.000 A 
ATOM     11  C   UNL     1       4.345   5.678  17.509  0.00  0.00    +0.000 A 
ATOM     12  C   UNL     1       4.879   6.164  16.321  0.00  0.00    +0.000 A 
ATOM     13  C   UNL     1       6.260   6.215  16.205  0.00  0.00    +0.000 A 
ATOM     14  C   UNL     1       7.051   5.462  17.067  0.00  0.00    +0.000 A 
ATOM     15  C   UNL     1       6.438   4.641  18.023  0.00  0.00    +0.000 A 
ATOM     16  C   UNL     1       5.087   4.792  18.288  0.00  0.00    +0.000 A 
ATOM     17  C   UNL     1       4.415   4.138  19.449  0.00  0.00    +0.000 A 
ATOM     18  O   UNL     1       4.909   3.111  19.914  0.00  0.00    +0.000 OA
ATOM     19  N   UNL     1       3.257   4.776  19.963  0.00  0.00    +0.000 N 
ENDROOT
BRANCH  19  20
ATOM     20  C   UNL     1       2.684   4.199  21.190  0.00  0.00    +0.000 C 
BRANCH  20  21
ATOM     21  C   UNL     1       1.915   2.872  20.988  0.00  0.00    +0.000 C 
BRANCH  21  22
ATOM     22  O   UNL     1       1.417   2.343  22.217  0.00  0.00    +0.000 OA
ATOM     23  H   UNL     1       2.043   2.565  22.925  0.00  0.00    +0.000 HD
ENDBRANCH  21  22
BRANCH  21  24
ATOM     24  C   UNL     1       0.757   3.113  20.004  0.00  0.00    +0.000 C 
BRANCH  24  25
ATOM     25  O   UNL     1       0.807   2.242  18.877  0.00  0.00    +0.000 OA
ATOM     26  H   UNL     1       1.277   2.695  18.156  0.00  0.00    +0.000 HD
ENDBRANCH  24  25
ENDBRANCH  21  24
ENDBRANCH  20  21
ENDBRANCH  19  20
TORSDOF 5
ENDMDL
MODEL 2
REMARK VINA RESULT:      -7.8      0.755      1.206
REMARK  Name = 
REMARK  5 active torsions:
REMARK  status: ('A' for Active; 'I' for Inactive)
REMARK    1  A    between atoms: N_19  and  C_20
REMARK    2  A    between atoms: C_20  and  C_21
REMARK    3  A    between atoms: C_21  and  O_22
REMARK    4  A    between atoms: C_21  and  C_23
REMARK    5  A    between atoms: C_23  and  O_24
REMARK                            x       y       z     vdW  Elec       q    Type
REMARK                         _______ _______ _______ _____ _____    ______ ____
ROOT
ATOM      1  O   UNL     1       2.918   9.027  17.053  0.00  0.00    +0.000 OA
ATOM      2  C   UNL     1       2.575   8.278  17.941  0.00  0.00    +0.000 C 
ATOM      3  C   UNL     1       1.753   8.649  19.080  0.00  0.00    +0.000 A 
ATOM      4  C   UNL     1       1.148   9.876  19.317  0.00  0.00    +0.000 A 
ATOM      5  C   UNL     1       0.358   9.991  20.457  0.00  0.00    +0.000 A 
ATOM      6  C   UNL     1       0.245   8.908  21.337  0.00  0.00    +0.000 A 
ATOM      7  C   UNL     1       0.935   7.702  21.109  0.00  0.00    +0.000 A 
ATOM      8  C   UNL     1       1.686   7.546  19.940  0.00  0.00    +0.000 A 
ATOM      9  C   UNL     1       2.511   6.470  19.368  0.00  0.00    +0.000 A 
ATOM     10  C   UNL     1       2.988   6.881  18.171  0.00  0.00    +0.000 A 
ATOM     11  C   UNL     1       4.063   6.179  17.509  0.00  0.00    +0.000 A 
ATOM     12  C   UNL     1       4.607   6.662  16.324  0.00  0.00    +0.000 A 
ATOM     13  C   UNL     1       5.990   6.694  16.212  0.00  0.00    +0.000 A 
ATOM     14  C   UNL     1       6.767   5.926  17.075  0.00  0.00    +0.000 A 
ATOM     15  C   UNL     1       6.139   5.110  18.025  0.00  0.00    +0.000 A 
ATOM     16  C   UNL     1       4.790   5.280  18.287  0.00  0.00    +0.000 A 
ATOM     17  C   UNL     1       4.106   4.631  19.443  0.00  0.00    +0.000 A 
ATOM     18  O   UNL     1       4.584   3.595  19.906  0.00  0.00    +0.000 OA
ATOM     19  N   UNL     1       2.955   5.283  19.956  0.00  0.00    +0.000 N 
ENDROOT
BRANCH  19  20
ATOM     20  C   UNL     1       2.370   4.709  21.179  0.00  0.00    +0.000 C 
BRANCH  20  21
ATOM     21  C   UNL     1       1.211   3.713  20.941  0.00  0.00    +0.000 C 
BRANCH  21  22
ATOM     22  O   UNL     1       0.720   3.765  19.601  0.00  0.00    +0.000 OA
ATOM     23  H   UNL     1       0.333   2.903  19.380  0.00  0.00    +0.000 HD
ENDBRANCH  21  22
BRANCH  21  24
ATOM     24  C   UNL     1       1.699   2.292  21.274  0.00  0.00    +0.000 C 
BRANCH  24  25
ATOM     25  O   UNL     1       2.892   2.292  22.054  0.00  0.00    +0.000 OA
ATOM     26  H   UNL     1       2.648   2.228  22.994  0.00  0.00    +0.000 HD
ENDBRANCH  24  25
ENDBRANCH  21  24
ENDBRANCH  20  21
ENDBRANCH  19  20
TORSDOF 5
ENDMDL
MODEL 3
REMARK VINA RESULT:      -7.6      2.042      4.960
REMARK  Name = 
REMARK  5 active torsions:
REMARK  status: ('A' for Active; 'I' for Inactive)
REMARK    1  A    between atoms: N_19  and  C_20
REMARK    2  A    between atoms: C_20  and  C_21
REMARK    3  A    between atoms: C_21  and  O_22
REMARK    4  A    between atoms: C_21  and  C_23
REMARK    5  A    between atoms: C_23  and  O_24
REMARK                            x       y       z     vdW  Elec       q    Type
REMARK                         _______ _______ _______ _____ _____    ______ ____
ROOT
ATOM      1  O   UNL     1       0.987   6.738  21.443  0.00  0.00    +0.000 OA
ATOM      2  C   UNL     1       1.715   6.871  20.484  0.00  0.00    +0.000 C 
ATOM      3  C   UNL     1       1.743   8.029  19.607  0.00  0.00    +0.000 A 
ATOM      4  C   UNL     1       1.023   9.209  19.747  0.00  0.00    +0.000 A 
ATOM      5  C   UNL     1       1.248  10.211  18.808  0.00  0.00    +0.000 A 
ATOM      6  C   UNL     1       2.131   9.983  17.746  0.00  0.00    +0.000 A 
ATOM      7  C   UNL     1       2.786   8.747  17.588  0.00  0.00    +0.000 A 
ATOM      8  C   UNL     1       2.620   7.748  18.552  0.00  0.00    +0.000 A 
ATOM      9  C   UNL     1       3.124   6.378  18.731  0.00  0.00    +0.000 A 
ATOM     10  C   UNL     1       2.636   5.884  19.890  0.00  0.00    +0.000 A 
ATOM     11  C   UNL     1       2.703   4.474  20.195  0.00  0.00    +0.000 A 
ATOM     12  C   UNL     1       2.116   3.964  21.347  0.00  0.00    +0.000 A 
ATOM     13  C   UNL     1       1.350   2.813  21.230  0.00  0.00    +0.000 A 
ATOM     14  C   UNL     1       1.489   2.007  20.104  0.00  0.00    +0.000 A 
ATOM     15  C   UNL     1       2.421   2.357  19.118  0.00  0.00    +0.000 A 
ATOM     16  C   UNL     1       2.986   3.621  19.129  0.00  0.00    +0.000 A 
ATOM     17  C   UNL     1       3.790   4.154  17.991  0.00  0.00    +0.000 A 
ATOM     18  O   UNL     1       4.352   3.357  17.241  0.00  0.00    +0.000 OA
ATOM     19  N   UNL     1       3.821   5.564  17.833  0.00  0.00    +0.000 N 
ENDROOT
BRANCH  19  20
ATOM     20  C   UNL     1       4.502   6.071  16.630  0.00  0.00    +0.000 C 
BRANCH  20  21
ATOM     21  C   UNL     1       6.046   6.053  16.700  0.00  0.00    +0.000 C 
BRANCH  21  22
ATOM     22  O   UNL     1       6.645   5.941  15.409  0.00  0.00    +0.000 OA
ATOM     23  H   UNL     1       6.404   5.081  15.029  0.00  0.00    +0.000 HD
ENDBRANCH  21  22
BRANCH  21  24
ATOM     24  C   UNL     1       6.528   7.334  17.402  0.00  0.00    +0.000 C 
BRANCH  24  25
ATOM     25  O   UNL     1       7.824   7.740  16.970  0.00  0.00    +0.000 OA
ATOM     26  H   UNL     1       8.065   8.558  17.439  0.00  0.00    +0.000 HD
ENDBRANCH  24  25
ENDBRANCH  21  24
ENDBRANCH  20  21
ENDBRANCH  19  20
TORSDOF 5
ENDMDL
MODEL 4
REMARK VINA RESULT:      -7.6      1.967      4.706
REMARK  Name = 
REMARK  5 active torsions:
REMARK  status: ('A' for Active; 'I' for Inactive)
REMARK    1  A    between atoms: N_19  and  C_20
REMARK    2  A    between atoms: C_20  and  C_21
REMARK    3  A    between atoms: C_21  and  O_22
REMARK    4  A    between atoms: C_21  and  C_23
REMARK    5  A    between atoms: C_23  and  O_24
REMARK                            x       y       z     vdW  Elec       q    Type
REMARK                         _______ _______ _______ _____ _____    ______ ____
ROOT
ATOM      1  O   UNL     1       1.065   6.410  21.279  0.00  0.00    +0.000 OA
ATOM      2  C   UNL     1       1.803   6.638  20.345  0.00  0.00    +0.000 C 
ATOM      3  C   UNL     1       1.798   7.856  19.551  0.00  0.00    +0.000 A 
ATOM      4  C   UNL     1       1.030   8.994  19.760  0.00  0.00    +0.000 A 
ATOM      5  C   UNL     1       1.229  10.067  18.898  0.00  0.00    +0.000 A 
ATOM      6  C   UNL     1       2.136   9.950  17.839  0.00  0.00    +0.000 A 
ATOM      7  C   UNL     1       2.842   8.754  17.606  0.00  0.00    +0.000 A 
ATOM      8  C   UNL     1       2.701   7.684  18.495  0.00  0.00    +0.000 A 
ATOM      9  C   UNL     1       3.257   6.324  18.586  0.00  0.00    +0.000 A 
ATOM     10  C   UNL     1       2.770   5.732  19.700  0.00  0.00    +0.000 A 
ATOM     11  C   UNL     1       2.888   4.307  19.906  0.00  0.00    +0.000 A 
ATOM     12  C   UNL     1       2.305   3.695  21.010  0.00  0.00    +0.000 A 
ATOM     13  C   UNL     1       1.587   2.527  20.799  0.00  0.00    +0.000 A 
ATOM     14  C   UNL     1       1.775   1.808  19.622  0.00  0.00    +0.000 A 
ATOM     15  C   UNL     1       2.707   2.262  18.679  0.00  0.00    +0.000 A 
ATOM     16  C   UNL     1       3.222   3.543  18.789  0.00  0.00    +0.000 A 
ATOM     17  C   UNL     1       4.021   4.186  17.706  0.00  0.00    +0.000 A 
ATOM     18  O   UNL     1       4.626   3.466  16.912  0.00  0.00    +0.000 OA
ATOM     19  N   UNL     1       3.998   5.603  17.646  0.00  0.00    +0.000 N 
ENDROOT
BRANCH  19  20
ATOM     20  C   UNL     1       4.676   6.219  16.494  0.00  0.00    +0.000 C 
BRANCH  20  21
ATOM     21  C   UNL     1       6.176   6.529  16.711  0.00  0.00    +0.000 C 
BRANCH  21  22
ATOM     22  O   UNL     1       6.536   6.517  18.093  0.00  0.00    +0.000 OA
ATOM     23  H   UNL     1       5.763   6.242  18.611  0.00  0.00    +0.000 HD
ENDBRANCH  21  22
BRANCH  21  24
ATOM     24  C   UNL     1       7.015   5.501  15.933  0.00  0.00    +0.000 C 
BRANCH  24  25
ATOM     25  O   UNL     1       7.606   4.522  16.783  0.00  0.00    +0.000 OA
ATOM     26  H   UNL     1       7.076   3.708  16.732  0.00  0.00    +0.000 HD
ENDBRANCH  24  25
ENDBRANCH  21  24
ENDBRANCH  20  21
ENDBRANCH  19  20
TORSDOF 5
ENDMDL
MODEL 5
REMARK VINA RESULT:      -7.4      2.143      6.125
REMARK  Name = 
REMARK  5 active torsions:
REMARK  status: ('A' for Active; 'I' for Inactive)
REMARK    1  A    between atoms: N_19  and  C_20
REMARK    2  A    between atoms: C_20  and  C_21
REMARK    3  A    between atoms: C_21  and  O_22
REMARK    4  A    between atoms: C_21  and  C_23
REMARK    5  A    between atoms: C_23  and  O_24
REMARK                            x       y       z     vdW  Elec       q    Type
REMARK                         _______ _______ _______ _____ _____    ______ ____
ROOT
ATOM      1  O   UNL     1       3.763   2.042  17.314  0.00  0.00    +0.000 OA
ATOM      2  C   UNL     1       3.769   3.251  17.231  0.00  0.00    +0.000 C 
ATOM      3  C   UNL     1       4.703   4.032  16.439  0.00  0.00    +0.000 A 
ATOM      4  C   UNL     1       5.685   3.554  15.582  0.00  0.00    +0.000 A 
ATOM      5  C   UNL     1       6.437   4.493  14.882  0.00  0.00    +0.000 A 
ATOM      6  C   UNL     1       6.221   5.859  15.101  0.00  0.00    +0.000 A 
ATOM      7  C   UNL     1       5.271   6.312  16.037  0.00  0.00    +0.000 A 
ATOM      8  C   UNL     1       4.465   5.386  16.706  0.00  0.00    +0.000 A 
ATOM      9  C   UNL     1       3.397   5.472  17.715  0.00  0.00    +0.000 A 
ATOM     10  C   UNL     1       2.953   4.223  17.982  0.00  0.00    +0.000 A 
ATOM     11  C   UNL     1       2.128   3.949  19.135  0.00  0.00    +0.000 A 
ATOM     12  C   UNL     1       1.753   2.649  19.452  0.00  0.00    +0.000 A 
ATOM     13  C   UNL     1       1.872   2.243  20.773  0.00  0.00    +0.000 A 
ATOM     14  C   UNL     1       1.985   3.200  21.778  0.00  0.00    +0.000 A 
ATOM     15  C   UNL     1       1.949   4.560  21.441  0.00  0.00    +0.000 A 
ATOM     16  C   UNL     1       2.082   4.939  20.116  0.00  0.00    +0.000 A 
ATOM     17  C   UNL     1       2.299   6.356  19.701  0.00  0.00    +0.000 A 
ATOM     18  O   UNL     1       1.911   7.255  20.447  0.00  0.00    +0.000 OA
ATOM     19  N   UNL     1       2.978   6.568  18.473  0.00  0.00    +0.000 N 
ENDROOT
BRANCH  19  20
ATOM     20  C   UNL     1       3.307   7.964  18.143  0.00  0.00    +0.000 C 
BRANCH  20  21
ATOM     21  C   UNL     1       2.146   8.778  17.525  0.00  0.00    +0.000 C 
BRANCH  21  22
ATOM     22  O   UNL     1       0.902   8.079  17.588  0.00  0.00    +0.000 OA
ATOM     23  H   UNL     1       1.052   7.157  17.322  0.00  0.00    +0.000 HD
ENDBRANCH  21  22
BRANCH  21  24
ATOM     24  C   UNL     1       2.036  10.126  18.258  0.00  0.00    +0.000 C 
BRANCH  24  25
ATOM     25  O   UNL     1       2.311  11.235  17.407  0.00  0.00    +0.000 OA
ATOM     26  H   UNL     1       2.194  12.055  17.918  0.00  0.00    +0.000 HD
ENDBRANCH  24  25
ENDBRANCH  21  24
ENDBRANCH  20  21
ENDBRANCH  19  20
TORSDOF 5
ENDMDL
MODEL 6
REMARK VINA RESULT:      -7.0      1.865      4.727
REMARK  Name = 
REMARK  5 active torsions:
REMARK  status: ('A' for Active; 'I' for Inactive)
REMARK    1  A    between atoms: N_19  and  C_20
REMARK    2  A    between atoms: C_20  and  C_21
REMARK    3  A    between atoms: C_21  and  O_22
REMARK    4  A    between atoms: C_21  and  C_23
REMARK    5  A    between atoms: C_23  and  O_24
REMARK                            x       y       z     vdW  Elec       q    Type
REMARK                         _______ _______ _______ _____ _____    ______ ____
ROOT
ATOM      1  O   UNL     1       5.515   2.832  19.659  0.00  0.00    +0.000 OA
ATOM      2  C   UNL     1       4.666   3.691  19.567  0.00  0.00    +0.000 C 
ATOM      3  C   UNL     1       3.309   3.587  20.077  0.00  0.00    +0.000 A 
ATOM      4  C   UNL     1       2.768   2.549  20.824  0.00  0.00    +0.000 A 
ATOM      5  C   UNL     1       1.451   2.686  21.251  0.00  0.00    +0.000 A 
ATOM      6  C   UNL     1       0.714   3.816  20.878  0.00  0.00    +0.000 A 
ATOM      7  C   UNL     1       1.266   4.814  20.053  0.00  0.00    +0.000 A 
ATOM      8  C   UNL     1       2.606   4.724  19.662  0.00  0.00    +0.000 A 
ATOM      9  C   UNL     1       3.508   5.544  18.838  0.00  0.00    +0.000 A 
ATOM     10  C   UNL     1       4.729   4.965  18.827  0.00  0.00    +0.000 A 
ATOM     11  C   UNL     1       5.740   5.360  17.874  0.00  0.00    +0.000 A 
ATOM     12  C   UNL     1       6.960   4.696  17.811  0.00  0.00    +0.000 A 
ATOM     13  C   UNL     1       7.440   4.339  16.559  0.00  0.00    +0.000 A 
ATOM     14  C   UNL     1       6.922   4.955  15.423  0.00  0.00    +0.000 A 
ATOM     15  C   UNL     1       5.943   5.948  15.564  0.00  0.00    +0.000 A 
ATOM     16  C   UNL     1       5.306   6.111  16.783  0.00  0.00    +0.000 A 
ATOM     17  C   UNL     1       4.095   6.967  16.950  0.00  0.00    +0.000 A 
ATOM     18  O   UNL     1       3.910   7.889  16.156  0.00  0.00    +0.000 OA
ATOM     19  N   UNL     1       3.213   6.630  18.009  0.00  0.00    +0.000 N 
ENDROOT
BRANCH  19  20
ATOM     20  C   UNL     1       1.956   7.393  18.079  0.00  0.00    +0.000 C 
BRANCH  20  21
ATOM     21  C   UNL     1       2.117   8.874  18.494  0.00  0.00    +0.000 C 
BRANCH  21  22
ATOM     22  O   UNL     1       1.874   9.770  17.409  0.00  0.00    +0.000 OA
ATOM     23  H   UNL     1       2.240   9.380  16.599  0.00  0.00    +0.000 HD
ENDBRANCH  21  22
BRANCH  21  24
ATOM     24  C   UNL     1       1.155   9.173  19.657  0.00  0.00    +0.000 C 
BRANCH  24  25
ATOM     25  O   UNL     1       1.364   8.314  20.774  0.00  0.00    +0.000 OA
ATOM     26  H   UNL     1       2.322   8.204  20.905  0.00  0.00    +0.000 HD
ENDBRANCH  24  25
ENDBRANCH  21  24
ENDBRANCH  20  21
ENDBRANCH  19  20
TORSDOF 5
ENDMDL
MODEL 7
REMARK VINA RESULT:      -6.8      1.792      4.759
REMARK  Name = 
REMARK  5 active torsions:
REMARK  status: ('A' for Active; 'I' for Inactive)
REMARK    1  A    between atoms: N_19  and  C_20
REMARK    2  A    between atoms: C_20  and  C_21
REMARK    3  A    between atoms: C_21  and  O_22
REMARK    4  A    between atoms: C_21  and  C_23
REMARK    5  A    between atoms: C_23  and  O_24
REMARK                            x       y       z     vdW  Elec       q    Type
REMARK                         _______ _______ _______ _____ _____    ______ ____
ROOT
ATOM      1  O   UNL     1       5.581   3.073  19.151  0.00  0.00    +0.000 OA
ATOM      2  C   UNL     1       4.689   3.845  19.428  0.00  0.00    +0.000 C 
ATOM      3  C   UNL     1       3.501   3.511  20.197  0.00  0.00    +0.000 A 
ATOM      4  C   UNL     1       3.212   2.303  20.817  0.00  0.00    +0.000 A 
ATOM      5  C   UNL     1       2.030   2.225  21.547  0.00  0.00    +0.000 A 
ATOM      6  C   UNL     1       1.164   3.324  21.587  0.00  0.00    +0.000 A 
ATOM      7  C   UNL     1       1.449   4.509  20.882  0.00  0.00    +0.000 A 
ATOM      8  C   UNL     1       2.658   4.629  20.191  0.00  0.00    +0.000 A 
ATOM      9  C   UNL     1       3.292   5.675  19.372  0.00  0.00    +0.000 A 
ATOM     10  C   UNL     1       4.504   5.234  18.970  0.00  0.00    +0.000 A 
ATOM     11  C   UNL     1       5.235   5.900  17.916  0.00  0.00    +0.000 A 
ATOM     12  C   UNL     1       6.438   5.385  17.448  0.00  0.00    +0.000 A 
ATOM     13  C   UNL     1       6.623   5.317  16.074  0.00  0.00    +0.000 A 
ATOM     14  C   UNL     1       5.816   6.079  15.234  0.00  0.00    +0.000 A 
ATOM     15  C   UNL     1       4.847   6.925  15.791  0.00  0.00    +0.000 A 
ATOM     16  C   UNL     1       4.512   6.793  17.128  0.00  0.00    +0.000 A 
ATOM     17  C   UNL     1       3.332   7.476  17.733  0.00  0.00    +0.000 A 
ATOM     18  O   UNL     1       2.912   8.506  17.207  0.00  0.00    +0.000 OA
ATOM     19  N   UNL     1       2.748   6.860  18.871  0.00  0.00    +0.000 N 
ENDROOT
BRANCH  19  20
ATOM     20  C   UNL     1       1.505   7.467  19.375  0.00  0.00    +0.000 C 
BRANCH  20  21
ATOM     21  C   UNL     1       1.695   8.797  20.141  0.00  0.00    +0.000 C 
BRANCH  21  22
ATOM     22  O   UNL     1       1.141   9.910  19.438  0.00  0.00    +0.000 OA
ATOM     23  H   UNL     1       1.685  10.081  18.653  0.00  0.00    +0.000 HD
ENDBRANCH  21  22
BRANCH  21  24
ATOM     24  C   UNL     1       1.046   8.669  21.530  0.00  0.00    +0.000 C 
BRANCH  24  25
ATOM     25  O   UNL     1       1.866   9.200  22.568  0.00  0.00    +0.000 OA
ATOM     26  H   UNL     1       2.401   9.924  22.199  0.00  0.00    +0.000 HD
ENDBRANCH  24  25
ENDBRANCH  21  24
ENDBRANCH  20  21
ENDBRANCH  19  20
TORSDOF 5
ENDMDL
MODEL 8
REMARK VINA RESULT:      -6.8      6.995     10.071
REMARK  Name = 
REMARK  5 active torsions:
REMARK  status: ('A' for Active; 'I' for Inactive)
REMARK    1  A    between atoms: N_19  and  C_20
REMARK    2  A    between atoms: C_20  and  C_21
REMARK    3  A    between atoms: C_21  and  O_22
REMARK    4  A    between atoms: C_21  and  C_23
REMARK    5  A    between atoms: C_23  and  O_24
REMARK                            x       y       z     vdW  Elec       q    Type
REMARK                         _______ _______ _______ _____ _____    ______ ____
ROOT
ATOM      1  O   UNL     1      -5.807  12.680  19.428  0.00  0.00    +0.000 OA
ATOM      2  C   UNL     1      -4.625  12.435  19.324  0.00  0.00    +0.000 C 
ATOM      3  C   UNL     1      -4.016  11.697  18.230  0.00  0.00    +0.000 A 
ATOM      4  C   UNL     1      -4.641  11.221  17.085  0.00  0.00    +0.000 A 
ATOM      5  C   UNL     1      -3.844  10.581  16.141  0.00  0.00    +0.000 A 
ATOM      6  C   UNL     1      -2.480  10.394  16.393  0.00  0.00    +0.000 A 
ATOM      7  C   UNL     1      -1.892  10.818  17.600  0.00  0.00    +0.000 A 
ATOM      8  C   UNL     1      -2.662  11.515  18.536  0.00  0.00    +0.000 A 
ATOM      9  C   UNL     1      -2.410  12.103  19.861  0.00  0.00    +0.000 A 
ATOM     10  C   UNL     1      -3.547  12.688  20.298  0.00  0.00    +0.000 A 
ATOM     11  C   UNL     1      -3.708  13.085  21.678  0.00  0.00    +0.000 A 
ATOM     12  C   UNL     1      -4.914  13.601  22.137  0.00  0.00    +0.000 A 
ATOM     13  C   UNL     1      -5.416  13.110  23.333  0.00  0.00    +0.000 A 
ATOM     14  C   UNL     1      -4.570  12.434  24.208  0.00  0.00    +0.000 A 
ATOM     15  C   UNL     1      -3.216  12.284  23.878  0.00  0.00    +0.000 A 
ATOM     16  C   UNL     1      -2.794  12.554  22.587  0.00  0.00    +0.000 A 
ATOM     17  C   UNL     1      -1.434  12.190  22.092  0.00  0.00    +0.000 A 
ATOM     18  O   UNL     1      -0.521  12.073  22.908  0.00  0.00    +0.000 OA
ATOM     19  N   UNL     1      -1.298  11.967  20.697  0.00  0.00    +0.000 N 
ENDROOT
BRANCH  19  20
ATOM     20  C   UNL     1       0.012  11.475  20.240  0.00  0.00    +0.000 C 
BRANCH  20  21
ATOM     21  C   UNL     1       1.074  12.575  20.006  0.00  0.00    +0.000 C 
BRANCH  21  22
ATOM     22  O   UNL     1       1.954  12.721  21.121  0.00  0.00    +0.000 OA
ATOM     23  H   UNL     1       2.678  13.316  20.868  0.00  0.00    +0.000 HD
ENDBRANCH  21  22
BRANCH  21  24
ATOM     24  C   UNL     1       1.874  12.234  18.738  0.00  0.00    +0.000 C 
BRANCH  24  25
ATOM     25  O   UNL     1       1.524  10.963  18.195  0.00  0.00    +0.000 OA
ATOM     26  H   UNL     1       0.710  10.654  18.630  0.00  0.00    +0.000 HD
ENDBRANCH  24  25
ENDBRANCH  21  24
ENDBRANCH  20  21
ENDBRANCH  19  20
TORSDOF 5
ENDMDL
MODEL 9
REMARK VINA RESULT:      -6.8      5.969      9.234
REMARK  Name = 
REMARK  5 active torsions:
REMARK  status: ('A' for Active; 'I' for Inactive)
REMARK    1  A    between atoms: N_19  and  C_20
REMARK    2  A    between atoms: C_20  and  C_21
REMARK    3  A    between atoms: C_21  and  O_22
REMARK    4  A    between atoms: C_21  and  C_23
REMARK    5  A    between atoms: C_23  and  O_24
REMARK                            x       y       z     vdW  Elec       q    Type
REMARK                         _______ _______ _______ _____ _____    ______ ____
ROOT
ATOM      1  O   UNL     1      -4.850  12.853  19.158  0.00  0.00    +0.000 OA
ATOM      2  C   UNL     1      -3.804  12.285  18.935  0.00  0.00    +0.000 C 
ATOM      3  C   UNL     1      -3.545  11.421  17.795  0.00  0.00    +0.000 A 
ATOM      4  C   UNL     1      -4.395  11.159  16.728  0.00  0.00    +0.000 A 
ATOM      5  C   UNL     1      -3.915  10.334  15.716  0.00  0.00    +0.000 A 
ATOM      6  C   UNL     1      -2.641   9.764  15.829  0.00  0.00    +0.000 A 
ATOM      7  C   UNL     1      -1.835   9.986  16.962  0.00  0.00    +0.000 A 
ATOM      8  C   UNL     1      -2.275  10.858  17.962  0.00  0.00    +0.000 A 
ATOM      9  C   UNL     1      -1.731  11.330  19.245  0.00  0.00    +0.000 A 
ATOM     10  C   UNL     1      -2.604  12.207  19.789  0.00  0.00    +0.000 A 
ATOM     11  C   UNL     1      -2.501  12.612  21.172  0.00  0.00    +0.000 A 
ATOM     12  C   UNL     1      -3.458  13.442  21.745  0.00  0.00    +0.000 A 
ATOM     13  C   UNL     1      -3.952  13.096  22.994  0.00  0.00    +0.000 A 
ATOM     14  C   UNL     1      -3.246  12.194  23.786  0.00  0.00    +0.000 A 
ATOM     15  C   UNL     1      -2.032  11.671  23.320  0.00  0.00    +0.000 A 
ATOM     16  C   UNL     1      -1.687  11.830  21.989  0.00  0.00    +0.000 A 
ATOM     17  C   UNL     1      -0.545  11.103  21.361  0.00  0.00    +0.000 A 
ATOM     18  O   UNL     1       0.377  10.719  22.080  0.00  0.00    +0.000 OA
ATOM     19  N   UNL     1      -0.623  10.871  19.963  0.00  0.00    +0.000 N 
ENDROOT
BRANCH  19  20
ATOM     20  C   UNL     1       0.439  10.035  19.380  0.00  0.00    +0.000 C 
BRANCH  20  21
ATOM     21  C   UNL     1       1.599  10.821  18.725  0.00  0.00    +0.000 C 
BRANCH  21  22
ATOM     22  O   UNL     1       1.865  10.381  17.392  0.00  0.00    +0.000 OA
ATOM     23  H   UNL     1       2.430   9.593  17.434  0.00  0.00    +0.000 HD
ENDBRANCH  21  22
BRANCH  21  24
ATOM     24  C   UNL     1       1.253  12.319  18.732  0.00  0.00    +0.000 C 
BRANCH  24  25
ATOM     25  O   UNL     1       1.892  13.034  17.676  0.00  0.00    +0.000 OA
ATOM     26  H   UNL     1       1.577  13.954  17.690  0.00  0.00    +0.000 HD
ENDBRANCH  24  25
ENDBRANCH  21  24
ENDBRANCH  20  21
ENDBRANCH  19  20
TORSDOF 5
ENDMDL
