MODEL 1
REMARK VINA RESULT:      -8.0      0.000      0.000
REMARK  Name = 
REMARK  4 active torsions:
REMARK  status: ('A' for Active; 'I' for Inactive)
REMARK    1  A    between atoms: C_1  and  C_2
REMARK    2  A    between atoms: N_7  and  S_8
REMARK    3  A    between atoms: S_8  and  C_11
REMARK    4  A    between atoms: C_14  and  C_15
REMARK                            x       y       z     vdW  Elec       q    Type
REMARK                         _______ _______ _______ _____ _____    ______ ____
ROOT
ATOM      1  C   UNL     1       2.611   5.854  19.225  0.00  0.00    +0.000 A 
ATOM      2  C   UNL     1       2.598   7.102  18.598  0.00  0.00    +0.000 A 
ATOM      3  C   UNL     1       1.991   8.196  19.236  0.00  0.00    +0.000 A 
ATOM      4  C   UNL     1       1.348   8.065  20.484  0.00  0.00    +0.000 A 
ATOM      5  C   UNL     1       1.360   6.784  21.071  0.00  0.00    +0.000 A 
ATOM      6  C   UNL     1       1.981   5.691  20.457  0.00  0.00    +0.000 A 
ENDROOT
BRANCH   4   7
ATOM      7  C   UNL     1       0.668   9.209  21.151  0.00  0.00    +0.000 A 
ATOM      8  C   UNL     1      -0.065   9.053  22.342  0.00  0.00    +0.000 A 
ATOM      9  C   UNL     1      -0.697  10.136  22.967  0.00  0.00    +0.000 A 
ATOM     10  C   UNL     1      -0.598  11.408  22.418  0.00  0.00    +0.000 A 
ATOM     11 CL   UNL     1      -1.370  12.741  23.183  0.00  0.00    +0.000 Cl
ATOM     12  C   UNL     1       0.126  11.605  21.249  0.00  0.00    +0.000 A 
ATOM     13  C   UNL     1       0.744  10.516  20.622  0.00  0.00    +0.000 A 
ENDBRANCH   4   7
BRANCH   1  14
ATOM     14  S   UNL     1       3.300   4.428  18.395  0.00  0.00    +0.000 S 
ATOM     15  O   UNL     1       2.610   4.308  17.126  0.00  0.00    +0.000 OA
ATOM     16  O   UNL     1       3.279   3.331  19.337  0.00  0.00    +0.000 OA
BRANCH  14  23
ATOM     17  C   UNL     1       5.000   4.180  15.641  0.00  0.00    +0.000 C 
ATOM     18  C   UNL     1       5.693   4.134  17.005  0.00  0.00    +0.000 C 
ATOM     19  C   UNL     1       7.094   4.743  16.803  0.00  0.00    +0.000 C 
ATOM     20  C   UNL     1       7.871   4.860  18.102  0.00  0.00    +0.000 C 
ATOM     21  C   UNL     1       7.080   5.718  19.071  0.00  0.00    +0.000 C 
ATOM     22  C   UNL     1       5.719   5.095  19.335  0.00  0.00    +0.000 C 
ATOM     23  N   UNL     1       4.939   4.884  18.075  0.00  0.00    +0.000 NA
ENDBRANCH  14  23
ENDBRANCH   1  14
TORSDOF 3
ENDMDL
MODEL 2
REMARK VINA RESULT:      -8.0      0.963      2.052
REMARK  Name = 
REMARK  4 active torsions:
REMARK  status: ('A' for Active; 'I' for Inactive)
REMARK    1  A    between atoms: C_1  and  C_2
REMARK    2  A    between atoms: N_7  and  S_8
REMARK    3  A    between atoms: S_8  and  C_11
REMARK    4  A    between atoms: C_14  and  C_15
REMARK                            x       y       z     vdW  Elec       q    Type
REMARK                         _______ _______ _______ _____ _____    ______ ____
ROOT
ATOM      1  C   UNL     1       3.032   5.093  18.853  0.00  0.00    +0.000 A 
ATOM      2  C   UNL     1       2.931   6.264  18.099  0.00  0.00    +0.000 A 
ATOM      3  C   UNL     1       2.362   7.415  18.668  0.00  0.00    +0.000 A 
ATOM      4  C   UNL     1       1.842   7.414  19.979  0.00  0.00    +0.000 A 
ATOM      5  C   UNL     1       1.938   6.206  20.698  0.00  0.00    +0.000 A 
ATOM      6  C   UNL     1       2.523   5.060  20.151  0.00  0.00    +0.000 A 
ENDROOT
BRANCH   4   7
ATOM      7  C   UNL     1       1.202   8.617  20.579  0.00  0.00    +0.000 A 
ATOM      8  C   UNL     1       0.853   9.742  19.809  0.00  0.00    +0.000 A 
ATOM      9  C   UNL     1       0.246  10.868  20.380  0.00  0.00    +0.000 A 
ATOM     10  C   UNL     1      -0.039  10.888  21.740  0.00  0.00    +0.000 A 
ATOM     11 CL   UNL     1      -0.786  12.267  22.445  0.00  0.00    +0.000 Cl
ATOM     12  C   UNL     1       0.279   9.792  22.531  0.00  0.00    +0.000 A 
ATOM     13  C   UNL     1       0.899   8.675  21.957  0.00  0.00    +0.000 A 
ENDBRANCH   4   7
BRANCH   1  14
ATOM     14  S   UNL     1       3.672   3.593  18.122  0.00  0.00    +0.000 S 
ATOM     15  O   UNL     1       2.737   3.200  17.087  0.00  0.00    +0.000 OA
ATOM     16  O   UNL     1       3.978   2.683  19.204  0.00  0.00    +0.000 OA
BRANCH  14  23
ATOM     17  C   UNL     1       6.217   5.157  19.392  0.00  0.00    +0.000 C 
ATOM     18  C   UNL     1       5.858   5.303  17.911  0.00  0.00    +0.000 C 
ATOM     19  C   UNL     1       7.185   5.534  17.163  0.00  0.00    +0.000 C 
ATOM     20  C   UNL     1       7.000   5.596  15.657  0.00  0.00    +0.000 C 
ATOM     21  C   UNL     1       6.373   4.299  15.186  0.00  0.00    +0.000 C 
ATOM     22  C   UNL     1       5.029   4.087  15.865  0.00  0.00    +0.000 C 
ATOM     23  N   UNL     1       5.142   4.096  17.357  0.00  0.00    +0.000 NA
ENDBRANCH  14  23
ENDBRANCH   1  14
TORSDOF 3
ENDMDL
MODEL 3
REMARK VINA RESULT:      -7.9      0.968      1.822
REMARK  Name = 
REMARK  4 active torsions:
REMARK  status: ('A' for Active; 'I' for Inactive)
REMARK    1  A    between atoms: C_1  and  C_2
REMARK    2  A    between atoms: N_7  and  S_8
REMARK    3  A    between atoms: S_8  and  C_11
REMARK    4  A    between atoms: C_14  and  C_15
REMARK                            x       y       z     vdW  Elec       q    Type
REMARK                         _______ _______ _______ _____ _____    ______ ____
ROOT
ATOM      1  C   UNL     1       3.013   5.049  18.856  0.00  0.00    +0.000 A 
ATOM      2  C   UNL     1       2.918   6.226  18.110  0.00  0.00    +0.000 A 
ATOM      3  C   UNL     1       2.349   7.373  18.687  0.00  0.00    +0.000 A 
ATOM      4  C   UNL     1       1.823   7.363  19.995  0.00  0.00    +0.000 A 
ATOM      5  C   UNL     1       1.913   6.149  20.705  0.00  0.00    +0.000 A 
ATOM      6  C   UNL     1       2.499   5.006  20.151  0.00  0.00    +0.000 A 
ENDROOT
BRANCH   4   7
ATOM      7  C   UNL     1       1.182   8.562  20.602  0.00  0.00    +0.000 A 
ATOM      8  C   UNL     1       0.897   8.642  21.978  0.00  0.00    +0.000 A 
ATOM      9  C   UNL     1       0.299   9.776  22.543  0.00  0.00    +0.000 A 
ATOM     10  C   UNL     1      -0.016  10.867  21.741  0.00  0.00    +0.000 A 
ATOM     11 CL   UNL     1      -0.747  12.262  22.430  0.00  0.00    +0.000 Cl
ATOM     12  C   UNL     1       0.261  10.830  20.381  0.00  0.00    +0.000 A 
ATOM     13  C   UNL     1       0.845   9.687  19.820  0.00  0.00    +0.000 A 
ENDBRANCH   4   7
BRANCH   1  14
ATOM     14  S   UNL     1       3.654   3.553  18.116  0.00  0.00    +0.000 S 
ATOM     15  O   UNL     1       2.723   3.171  17.073  0.00  0.00    +0.000 OA
ATOM     16  O   UNL     1       3.952   2.634  19.192  0.00  0.00    +0.000 OA
BRANCH  14  23
ATOM     17  C   UNL     1       6.197   5.098  19.413  0.00  0.00    +0.000 C 
ATOM     18  C   UNL     1       5.846   5.258  17.932  0.00  0.00    +0.000 C 
ATOM     19  C   UNL     1       7.177   5.493  17.191  0.00  0.00    +0.000 C 
ATOM     20  C   UNL     1       6.999   5.570  15.685  0.00  0.00    +0.000 C 
ATOM     21  C   UNL     1       6.370   4.279  15.199  0.00  0.00    +0.000 C 
ATOM     22  C   UNL     1       5.023   4.064  15.870  0.00  0.00    +0.000 C 
ATOM     23  N   UNL     1       5.128   4.059  17.363  0.00  0.00    +0.000 NA
ENDBRANCH  14  23
ENDBRANCH   1  14
TORSDOF 3
ENDMDL
MODEL 4
REMARK VINA RESULT:      -7.9      0.261      1.439
REMARK  Name = 
REMARK  4 active torsions:
REMARK  status: ('A' for Active; 'I' for Inactive)
REMARK    1  A    between atoms: C_1  and  C_2
REMARK    2  A    between atoms: N_7  and  S_8
REMARK    3  A    between atoms: S_8  and  C_11
REMARK    4  A    between atoms: C_14  and  C_15
REMARK                            x       y       z     vdW  Elec       q    Type
REMARK                         _______ _______ _______ _____ _____    ______ ____
ROOT
ATOM      1  C   UNL     1       2.565   5.572  19.098  0.00  0.00    +0.000 A 
ATOM      2  C   UNL     1       1.955   5.437  20.347  0.00  0.00    +0.000 A 
ATOM      3  C   UNL     1       1.353   6.552  20.953  0.00  0.00    +0.000 A 
ATOM      4  C   UNL     1       1.383   7.828  20.355  0.00  0.00    +0.000 A 
ATOM      5  C   UNL     1       2.030   7.929  19.108  0.00  0.00    +0.000 A 
ATOM      6  C   UNL     1       2.613   6.822  18.482  0.00  0.00    +0.000 A 
ENDROOT
BRANCH   4   7
ATOM      7  C   UNL     1       0.781   9.024  21.007  0.00  0.00    +0.000 A 
ATOM      8  C   UNL     1       0.767  10.287  20.386  0.00  0.00    +0.000 A 
ATOM      9  C   UNL     1       0.194  11.407  21.003  0.00  0.00    +0.000 A 
ATOM     10  C   UNL     1      -0.393  11.284  22.257  0.00  0.00    +0.000 A 
ATOM     11 CL   UNL     1      -1.100  12.655  23.017  0.00  0.00    +0.000 Cl
ATOM     12  C   UNL     1      -0.409  10.051  22.897  0.00  0.00    +0.000 A 
ATOM     13  C   UNL     1       0.179   8.939  22.280  0.00  0.00    +0.000 A 
ENDBRANCH   4   7
BRANCH   1  14
ATOM     14  S   UNL     1       3.413   4.190  18.346  0.00  0.00    +0.000 S 
ATOM     15  O   UNL     1       2.787   3.963  17.059  0.00  0.00    +0.000 OA
ATOM     16  O   UNL     1       3.456   3.127  19.327  0.00  0.00    +0.000 OA
BRANCH  14  23
ATOM     17  C   UNL     1       5.140   4.232  15.598  0.00  0.00    +0.000 C 
ATOM     18  C   UNL     1       5.828   4.158  16.963  0.00  0.00    +0.000 C 
ATOM     19  C   UNL     1       7.180   4.881  16.809  0.00  0.00    +0.000 C 
ATOM     20  C   UNL     1       7.940   4.979  18.120  0.00  0.00    +0.000 C 
ATOM     21  C   UNL     1       7.083   5.717  19.130  0.00  0.00    +0.000 C 
ATOM     22  C   UNL     1       5.771   4.980  19.345  0.00  0.00    +0.000 C 
ATOM     23  N   UNL     1       5.015   4.785  18.068  0.00  0.00    +0.000 NA
ENDBRANCH  14  23
ENDBRANCH   1  14
TORSDOF 3
ENDMDL
MODEL 5
REMARK VINA RESULT:      -7.8      0.253      1.035
REMARK  Name = 
REMARK  4 active torsions:
REMARK  status: ('A' for Active; 'I' for Inactive)
REMARK    1  A    between atoms: C_1  and  C_2
REMARK    2  A    between atoms: N_7  and  S_8
REMARK    3  A    between atoms: S_8  and  C_11
REMARK    4  A    between atoms: C_14  and  C_15
REMARK                            x       y       z     vdW  Elec       q    Type
REMARK                         _______ _______ _______ _____ _____    ______ ____
ROOT
ATOM      1  C   UNL     1       2.546   5.575  19.147  0.00  0.00    +0.000 A 
ATOM      2  C   UNL     1       1.910   5.443  20.383  0.00  0.00    +0.000 A 
ATOM      3  C   UNL     1       1.305   6.561  20.979  0.00  0.00    +0.000 A 
ATOM      4  C   UNL     1       1.357   7.838  20.385  0.00  0.00    +0.000 A 
ATOM      5  C   UNL     1       2.031   7.936  19.151  0.00  0.00    +0.000 A 
ATOM      6  C   UNL     1       2.618   6.826  18.535  0.00  0.00    +0.000 A 
ENDROOT
BRANCH   4   7
ATOM      7  C   UNL     1       0.752   9.038  21.027  0.00  0.00    +0.000 A 
ATOM      8  C   UNL     1       0.153   8.984  22.300  0.00  0.00    +0.000 A 
ATOM      9  C   UNL     1      -0.409  10.117  22.900  0.00  0.00    +0.000 A 
ATOM     10  C   UNL     1      -0.373  11.341  22.242  0.00  0.00    +0.000 A 
ATOM     11 CL   UNL     1      -1.060  12.737  22.975  0.00  0.00    +0.000 Cl
ATOM     12  C   UNL     1       0.220  11.438  20.990  0.00  0.00    +0.000 A 
ATOM     13  C   UNL     1       0.767  10.297  20.389  0.00  0.00    +0.000 A 
ENDBRANCH   4   7
BRANCH   1  14
ATOM     14  S   UNL     1       3.398   4.187  18.410  0.00  0.00    +0.000 S 
ATOM     15  O   UNL     1       2.765   3.938  17.131  0.00  0.00    +0.000 OA
ATOM     16  O   UNL     1       3.455   3.139  19.406  0.00  0.00    +0.000 OA
BRANCH  14  23
ATOM     17  C   UNL     1       5.083   4.255  15.636  0.00  0.00    +0.000 C 
ATOM     18  C   UNL     1       5.792   4.172  16.990  0.00  0.00    +0.000 C 
ATOM     19  C   UNL     1       7.140   4.900  16.822  0.00  0.00    +0.000 C 
ATOM     20  C   UNL     1       7.919   4.989  18.122  0.00  0.00    +0.000 C 
ATOM     21  C   UNL     1       7.076   5.717  19.150  0.00  0.00    +0.000 C 
ATOM     22  C   UNL     1       5.769   4.975  19.379  0.00  0.00    +0.000 C 
ATOM     23  N   UNL     1       4.994   4.788  18.112  0.00  0.00    +0.000 NA
ENDBRANCH  14  23
ENDBRANCH   1  14
TORSDOF 3
ENDMDL
MODEL 6
REMARK VINA RESULT:      -7.8      1.145      2.227
REMARK  Name = 
REMARK  4 active torsions:
REMARK  status: ('A' for Active; 'I' for Inactive)
REMARK    1  A    between atoms: C_1  and  C_2
REMARK    2  A    between atoms: N_7  and  S_8
REMARK    3  A    between atoms: S_8  and  C_11
REMARK    4  A    between atoms: C_14  and  C_15
REMARK                            x       y       z     vdW  Elec       q    Type
REMARK                         _______ _______ _______ _____ _____    ______ ____
ROOT
ATOM      1  C   UNL     1       3.250   4.858  19.079  0.00  0.00    +0.000 A 
ATOM      2  C   UNL     1       2.681   4.903  20.354  0.00  0.00    +0.000 A 
ATOM      3  C   UNL     1       2.017   6.064  20.781  0.00  0.00    +0.000 A 
ATOM      4  C   UNL     1       1.942   7.216  19.971  0.00  0.00    +0.000 A 
ATOM      5  C   UNL     1       2.551   7.140  18.703  0.00  0.00    +0.000 A 
ATOM      6  C   UNL     1       3.196   5.981  18.257  0.00  0.00    +0.000 A 
ENDROOT
BRANCH   4   7
ATOM      7  C   UNL     1       1.273   8.465  20.428  0.00  0.00    +0.000 A 
ATOM      8  C   UNL     1       0.919   8.676  21.774  0.00  0.00    +0.000 A 
ATOM      9  C   UNL     1       0.295   9.856  22.198  0.00  0.00    +0.000 A 
ATOM     10  C   UNL     1       0.021  10.863  21.281  0.00  0.00    +0.000 A 
ATOM     11 CL   UNL     1      -0.743  12.315  21.797  0.00  0.00    +0.000 Cl
ATOM     12  C   UNL     1       0.366  10.699  19.946  0.00  0.00    +0.000 A 
ATOM     13  C   UNL     1       0.976   9.510  19.526  0.00  0.00    +0.000 A 
ENDBRANCH   4   7
BRANCH   1  14
ATOM     14  S   UNL     1       4.176   3.424  18.548  0.00  0.00    +0.000 S 
ATOM     15  O   UNL     1       3.290   2.641  17.710  0.00  0.00    +0.000 OA
ATOM     16  O   UNL     1       4.768   2.832  19.727  0.00  0.00    +0.000 OA
BRANCH  14  23
ATOM     17  C   UNL     1       6.650   5.365  19.353  0.00  0.00    +0.000 C 
ATOM     18  C   UNL     1       6.046   5.396  17.947  0.00  0.00    +0.000 C 
ATOM     19  C   UNL     1       7.194   5.767  16.987  0.00  0.00    +0.000 C 
ATOM     20  C   UNL     1       6.767   5.737  15.530  0.00  0.00    +0.000 C 
ATOM     21  C   UNL     1       6.258   4.348  15.197  0.00  0.00    +0.000 C 
ATOM     22  C   UNL     1       5.080   3.991  16.090  0.00  0.00    +0.000 C 
ATOM     23  N   UNL     1       5.424   4.082  17.544  0.00  0.00    +0.000 NA
ENDBRANCH  14  23
ENDBRANCH   1  14
TORSDOF 3
ENDMDL
MODEL 7
REMARK VINA RESULT:      -7.8      1.117      2.406
REMARK  Name = 
REMARK  4 active torsions:
REMARK  status: ('A' for Active; 'I' for Inactive)
REMARK    1  A    between atoms: C_1  and  C_2
REMARK    2  A    between atoms: N_7  and  S_8
REMARK    3  A    between atoms: S_8  and  C_11
REMARK    4  A    between atoms: C_14  and  C_15
REMARK                            x       y       z     vdW  Elec       q    Type
REMARK                         _______ _______ _______ _____ _____    ______ ____
ROOT
ATOM      1  C   UNL     1       3.223   4.862  19.141  0.00  0.00    +0.000 A 
ATOM      2  C   UNL     1       2.640   4.907  20.410  0.00  0.00    +0.000 A 
ATOM      3  C   UNL     1       1.978   6.071  20.832  0.00  0.00    +0.000 A 
ATOM      4  C   UNL     1       1.919   7.226  20.025  0.00  0.00    +0.000 A 
ATOM      5  C   UNL     1       2.542   7.149  18.763  0.00  0.00    +0.000 A 
ATOM      6  C   UNL     1       3.185   5.988  18.321  0.00  0.00    +0.000 A 
ENDROOT
BRANCH   4   7
ATOM      7  C   UNL     1       1.253   8.478  20.478  0.00  0.00    +0.000 A 
ATOM      8  C   UNL     1       0.942   9.524  19.589  0.00  0.00    +0.000 A 
ATOM      9  C   UNL     1       0.310  10.697  20.022  0.00  0.00    +0.000 A 
ATOM     10  C   UNL     1      -0.038  10.844  21.359  0.00  0.00    +0.000 A 
ATOM     11 CL   UNL     1      -0.816  12.281  21.895  0.00  0.00    +0.000 Cl
ATOM     12  C   UNL     1       0.242   9.829  22.265  0.00  0.00    +0.000 A 
ATOM     13  C   UNL     1       0.887   8.665  21.828  0.00  0.00    +0.000 A 
ENDBRANCH   4   7
BRANCH   1  14
ATOM     14  S   UNL     1       4.145   3.423  18.616  0.00  0.00    +0.000 S 
ATOM     15  O   UNL     1       3.248   2.622  17.808  0.00  0.00    +0.000 OA
ATOM     16  O   UNL     1       4.762   2.854  19.794  0.00  0.00    +0.000 OA
BRANCH  14  23
ATOM     17  C   UNL     1       6.639   5.369  19.347  0.00  0.00    +0.000 C 
ATOM     18  C   UNL     1       6.004   5.387  17.955  0.00  0.00    +0.000 C 
ATOM     19  C   UNL     1       7.131   5.748  16.967  0.00  0.00    +0.000 C 
ATOM     20  C   UNL     1       6.671   5.705  15.520  0.00  0.00    +0.000 C 
ATOM     21  C   UNL     1       6.153   4.314  15.211  0.00  0.00    +0.000 C 
ATOM     22  C   UNL     1       4.995   3.967  16.133  0.00  0.00    +0.000 C 
ATOM     23  N   UNL     1       5.371   4.071  17.578  0.00  0.00    +0.000 NA
ENDBRANCH  14  23
ENDBRANCH   1  14
TORSDOF 3
ENDMDL
MODEL 8
REMARK VINA RESULT:      -7.7      2.751      3.522
REMARK  Name = 
REMARK  4 active torsions:
REMARK  status: ('A' for Active; 'I' for Inactive)
REMARK    1  A    between atoms: C_1  and  C_2
REMARK    2  A    between atoms: N_7  and  S_8
REMARK    3  A    between atoms: S_8  and  C_11
REMARK    4  A    between atoms: C_14  and  C_15
REMARK                            x       y       z     vdW  Elec       q    Type
REMARK                         _______ _______ _______ _____ _____    ______ ____
ROOT
ATOM      1  C   UNL     1       2.916   6.936  18.909  0.00  0.00    +0.000 A 
ATOM      2  C   UNL     1       2.613   7.825  17.876  0.00  0.00    +0.000 A 
ATOM      3  C   UNL     1       1.764   8.917  18.122  0.00  0.00    +0.000 A 
ATOM      4  C   UNL     1       1.166   9.123  19.382  0.00  0.00    +0.000 A 
ATOM      5  C   UNL     1       1.476   8.189  20.391  0.00  0.00    +0.000 A 
ATOM      6  C   UNL     1       2.339   7.111  20.165  0.00  0.00    +0.000 A 
ENDROOT
BRANCH   4   7
ATOM      7  C   UNL     1       0.235  10.255  19.643  0.00  0.00    +0.000 A 
ATOM      8  C   UNL     1      -0.806  10.588  18.755  0.00  0.00    +0.000 A 
ATOM      9  C   UNL     1      -1.681  11.651  19.010  0.00  0.00    +0.000 A 
ATOM     10  C   UNL     1      -1.543  12.400  20.173  0.00  0.00    +0.000 A 
ATOM     11 CL   UNL     1      -2.617  13.705  20.492  0.00  0.00    +0.000 Cl
ATOM     12  C   UNL     1      -0.536  12.095  21.079  0.00  0.00    +0.000 A 
ATOM     13  C   UNL     1       0.345  11.040  20.811  0.00  0.00    +0.000 A 
ENDBRANCH   4   7
BRANCH   1  14
ATOM     14  S   UNL     1       3.923   5.492  18.598  0.00  0.00    +0.000 S 
ATOM     15  O   UNL     1       5.125   5.640  19.394  0.00  0.00    +0.000 OA
ATOM     16  O   UNL     1       4.020   5.335  17.164  0.00  0.00    +0.000 OA
BRANCH  14  23
ATOM     17  C   UNL     1       1.233   4.090  17.444  0.00  0.00    +0.000 C 
ATOM     18  C   UNL     1       1.522   4.127  18.946  0.00  0.00    +0.000 C 
ATOM     19  C   UNL     1       0.895   2.852  19.543  0.00  0.00    +0.000 C 
ATOM     20  C   UNL     1       1.190   2.696  21.024  0.00  0.00    +0.000 C 
ATOM     21  C   UNL     1       2.693   2.662  21.223  0.00  0.00    +0.000 C 
ATOM     22  C   UNL     1       3.322   3.943  20.701  0.00  0.00    +0.000 C 
ATOM     23  N   UNL     1       2.996   4.188  19.261  0.00  0.00    +0.000 NA
ENDBRANCH  14  23
ENDBRANCH   1  14
TORSDOF 3
ENDMDL
MODEL 9
REMARK VINA RESULT:      -7.6      4.699      8.556
REMARK  Name = 
REMARK  4 active torsions:
REMARK  status: ('A' for Active; 'I' for Inactive)
REMARK    1  A    between atoms: C_1  and  C_2
REMARK    2  A    between atoms: N_7  and  S_8
REMARK    3  A    between atoms: S_8  and  C_11
REMARK    4  A    between atoms: C_14  and  C_15
REMARK                            x       y       z     vdW  Elec       q    Type
REMARK                         _______ _______ _______ _____ _____    ______ ____
ROOT
ATOM      1  C   UNL     1       1.276   8.604  20.141  0.00  0.00    +0.000 A 
ATOM      2  C   UNL     1       1.671   9.114  18.902  0.00  0.00    +0.000 A 
ATOM      3  C   UNL     1       2.441   8.322  18.036  0.00  0.00    +0.000 A 
ATOM      4  C   UNL     1       2.872   7.029  18.398  0.00  0.00    +0.000 A 
ATOM      5  C   UNL     1       2.476   6.561  19.666  0.00  0.00    +0.000 A 
ATOM      6  C   UNL     1       1.689   7.331  20.530  0.00  0.00    +0.000 A 
ENDROOT
BRANCH   4   7
ATOM      7  C   UNL     1       3.721   6.196  17.503  0.00  0.00    +0.000 A 
ATOM      8  C   UNL     1       3.649   4.790  17.497  0.00  0.00    +0.000 A 
ATOM      9  C   UNL     1       4.447   4.013  16.648  0.00  0.00    +0.000 A 
ATOM     10  C   UNL     1       5.331   4.629  15.771  0.00  0.00    +0.000 A 
ATOM     11 CL   UNL     1       6.312   3.680  14.725  0.00  0.00    +0.000 Cl
ATOM     12  C   UNL     1       5.424   6.015  15.738  0.00  0.00    +0.000 A 
ATOM     13  C   UNL     1       4.633   6.785  16.601  0.00  0.00    +0.000 A 
ENDBRANCH   4   7
BRANCH   1  14
ATOM     14  S   UNL     1       0.370   9.624  21.296  0.00  0.00    +0.000 S 
ATOM     15  O   UNL     1       1.352  10.385  22.043  0.00  0.00    +0.000 OA
ATOM     16  O   UNL     1      -0.561   8.763  21.993  0.00  0.00    +0.000 OA
BRANCH  14  23
ATOM     17  C   UNL     1      -0.598  12.660  21.916  0.00  0.00    +0.000 C 
ATOM     18  C   UNL     1      -1.373  11.766  20.945  0.00  0.00    +0.000 C 
ATOM     19  C   UNL     1      -1.991  12.703  19.889  0.00  0.00    +0.000 C 
ATOM     20  C   UNL     1      -2.713  11.944  18.789  0.00  0.00    +0.000 C 
ATOM     21  C   UNL     1      -1.732  11.002  18.119  0.00  0.00    +0.000 C 
ATOM     22  C   UNL     1      -1.162  10.025  19.134  0.00  0.00    +0.000 C 
ATOM     23  N   UNL     1      -0.506  10.723  20.284  0.00  0.00    +0.000 NA
ENDBRANCH  14  23
ENDBRANCH   1  14
TORSDOF 3
ENDMDL
