MODEL 1
REMARK VINA RESULT:      -7.1      0.000      0.000
REMARK  Name = 
REMARK  8 active torsions:
REMARK  status: ('A' for Active; 'I' for Inactive)
REMARK    1  A    between atoms: C_1  and  C_2
REMARK    2  A    between atoms: C_2  and  O_3
REMARK    3  A    between atoms: O_3  and  C_4
REMARK    4  A    between atoms: C_8  and  C_9
REMARK    5  A    between atoms: C_18  and  C_19
REMARK    6  A    between atoms: C_19  and  C_20
REMARK    7  A    between atoms: C_19  and  C_21
REMARK    8  A    between atoms: C_19  and  C_22
REMARK                            x       y       z     vdW  Elec       q    Type
REMARK                         _______ _______ _______ _____ _____    ______ ____
ROOT
ATOM      1  C   UNL     1       2.007   7.772  19.490  0.00  0.00    +0.000 C 
ATOM      2  O   UNL     1       1.858   7.372  20.642  0.00  0.00    +0.000 OA
ATOM      3  N   UNL     1       1.477   8.920  18.938  0.00  0.00    +0.000 N 
ATOM      4  C   UNL     1       0.658   9.726  19.687  0.00  0.00    +0.000 A 
ATOM      5  N   UNL     1       0.456   9.699  20.979  0.00  0.00    +0.000 NA
ATOM      6  C   UNL     1      -0.505  10.621  21.311  0.00  0.00    +0.000 A 
ATOM      7  C   UNL     1      -1.001  11.357  20.255  0.00  0.00    +0.000 A 
ATOM      8  S   UNL     1      -0.230  10.895  18.804  0.00  0.00    +0.000 S 
ATOM      9  C   UNL     1      -2.040  12.419  20.377  0.00  0.00    +0.000 C 
ATOM     10  C   UNL     1      -2.059  13.000  21.825  0.00  0.00    +0.000 C 
ATOM     11  C   UNL     1      -2.085  11.810  22.839  0.00  0.00    +0.000 C 
ATOM     12  C   UNL     1      -0.907  10.830  22.729  0.00  0.00    +0.000 C 
ATOM     13  H   UNL     1       1.526   9.107  17.949  0.00  0.00    +0.000 HD
ENDROOT
BRANCH   1  18
ATOM     14  C   UNL     1       4.594   6.486  17.034  0.00  0.00    +0.000 A 
ATOM     15  C   UNL     1       4.240   5.129  17.005  0.00  0.00    +0.000 A 
ATOM     16  C   UNL     1       3.168   4.655  17.752  0.00  0.00    +0.000 A 
ATOM     17  C   UNL     1       2.441   5.541  18.547  0.00  0.00    +0.000 A 
ATOM     18  C   UNL     1       2.783   6.897  18.577  0.00  0.00    +0.000 A 
ATOM     19  C   UNL     1       3.865   7.375  17.826  0.00  0.00    +0.000 A 
BRANCH  14  20
ATOM     20  O   UNL     1       5.675   6.800  16.257  0.00  0.00    +0.000 OA
BRANCH  20  22
ATOM     21  C   UNL     1       7.523   6.869  17.759  0.00  0.00    +0.000 C 
ATOM     22  C   UNL     1       6.908   6.159  16.566  0.00  0.00    +0.000 C 
ENDBRANCH  20  22
ENDBRANCH  14  20
ENDBRANCH   1  18
BRANCH  10  23
ATOM     23  C   UNL     1      -0.992  14.136  22.110  0.00  0.00    +0.000 C 
ATOM     24  C   UNL     1      -1.379  15.433  21.359  0.00  0.00    +0.000 C 
ATOM     25  C   UNL     1      -0.977  14.481  23.616  0.00  0.00    +0.000 C 
ATOM     26  C   UNL     1       0.448  13.799  21.686  0.00  0.00    +0.000 C 
ENDBRANCH  10  23
TORSDOF 4
ENDMDL
MODEL 2
REMARK VINA RESULT:      -7.1      1.984      3.448
REMARK  Name = 
REMARK  8 active torsions:
REMARK  status: ('A' for Active; 'I' for Inactive)
REMARK    1  A    between atoms: C_1  and  C_2
REMARK    2  A    between atoms: C_2  and  O_3
REMARK    3  A    between atoms: O_3  and  C_4
REMARK    4  A    between atoms: C_8  and  C_9
REMARK    5  A    between atoms: C_18  and  C_19
REMARK    6  A    between atoms: C_19  and  C_20
REMARK    7  A    between atoms: C_19  and  C_21
REMARK    8  A    between atoms: C_19  and  C_22
REMARK                            x       y       z     vdW  Elec       q    Type
REMARK                         _______ _______ _______ _____ _____    ______ ____
ROOT
ATOM      1  C   UNL     1       2.116   8.295  18.290  0.00  0.00    +0.000 C 
ATOM      2  O   UNL     1       2.147   9.041  17.315  0.00  0.00    +0.000 OA
ATOM      3  N   UNL     1       1.561   8.568  19.523  0.00  0.00    +0.000 N 
ATOM      4  C   UNL     1       1.002   9.797  19.767  0.00  0.00    +0.000 A 
ATOM      5  N   UNL     1       0.698  10.733  18.906  0.00  0.00    +0.000 NA
ATOM      6  C   UNL     1       0.238  11.839  19.576  0.00  0.00    +0.000 A 
ATOM      7  C   UNL     1       0.176  11.709  20.948  0.00  0.00    +0.000 A 
ATOM      8  S   UNL     1       0.692  10.150  21.414  0.00  0.00    +0.000 S 
ATOM      9  C   UNL     1      -0.301  12.771  21.879  0.00  0.00    +0.000 C 
ATOM     10  C   UNL     1      -1.245  13.766  21.134  0.00  0.00    +0.000 C 
ATOM     11  C   UNL     1      -0.559  14.197  19.797  0.00  0.00    +0.000 C 
ATOM     12  C   UNL     1      -0.217  13.048  18.836  0.00  0.00    +0.000 C 
ATOM     13  H   UNL     1       1.700   7.961  20.316  0.00  0.00    +0.000 HD
ENDROOT
BRANCH   1  18
ATOM     14  C   UNL     1       2.912   4.589  18.404  0.00  0.00    +0.000 A 
ATOM     15  C   UNL     1       4.130   4.587  17.708  0.00  0.00    +0.000 A 
ATOM     16  C   UNL     1       4.685   5.770  17.237  0.00  0.00    +0.000 A 
ATOM     17  C   UNL     1       4.016   6.975  17.451  0.00  0.00    +0.000 A 
ATOM     18  C   UNL     1       2.804   6.988  18.150  0.00  0.00    +0.000 A 
ATOM     19  C   UNL     1       2.243   5.795  18.624  0.00  0.00    +0.000 A 
BRANCH  14  20
ATOM     20  O   UNL     1       2.489   3.349  18.796  0.00  0.00    +0.000 OA
BRANCH  20  22
ATOM     21  C   UNL     1       1.292   2.959  20.818  0.00  0.00    +0.000 C 
ATOM     22  C   UNL     1       1.174   3.250  19.333  0.00  0.00    +0.000 C 
ENDBRANCH  20  22
ENDBRANCH  14  20
ENDBRANCH   1  18
BRANCH  10  23
ATOM     23  C   UNL     1      -2.757  13.307  21.027  0.00  0.00    +0.000 C 
ATOM     24  C   UNL     1      -3.139  12.432  22.245  0.00  0.00    +0.000 C 
ATOM     25  C   UNL     1      -3.687  14.540  21.056  0.00  0.00    +0.000 C 
ATOM     26  C   UNL     1      -3.102  12.484  19.773  0.00  0.00    +0.000 C 
ENDBRANCH  10  23
TORSDOF 4
ENDMDL
MODEL 3
REMARK VINA RESULT:      -7.0      1.650      1.844
REMARK  Name = 
REMARK  8 active torsions:
REMARK  status: ('A' for Active; 'I' for Inactive)
REMARK    1  A    between atoms: C_1  and  C_2
REMARK    2  A    between atoms: C_2  and  O_3
REMARK    3  A    between atoms: O_3  and  C_4
REMARK    4  A    between atoms: C_8  and  C_9
REMARK    5  A    between atoms: C_18  and  C_19
REMARK    6  A    between atoms: C_19  and  C_20
REMARK    7  A    between atoms: C_19  and  C_21
REMARK    8  A    between atoms: C_19  and  C_22
REMARK                            x       y       z     vdW  Elec       q    Type
REMARK                         _______ _______ _______ _____ _____    ______ ____
ROOT
ATOM      1  C   UNL     1       2.187   6.760  19.742  0.00  0.00    +0.000 C 
ATOM      2  O   UNL     1       1.567   6.582  20.787  0.00  0.00    +0.000 OA
ATOM      3  N   UNL     1       2.199   7.903  18.971  0.00  0.00    +0.000 N 
ATOM      4  C   UNL     1       1.431   8.981  19.331  0.00  0.00    +0.000 A 
ATOM      5  N   UNL     1       0.817   9.195  20.466  0.00  0.00    +0.000 NA
ATOM      6  C   UNL     1       0.088  10.355  20.380  0.00  0.00    +0.000 A 
ATOM      7  C   UNL     1       0.184  11.019  19.175  0.00  0.00    +0.000 A 
ATOM      8  S   UNL     1       1.232  10.179  18.122  0.00  0.00    +0.000 S 
ATOM      9  C   UNL     1      -0.509  12.300  18.857  0.00  0.00    +0.000 C 
ATOM     10  C   UNL     1      -0.844  13.080  20.167  0.00  0.00    +0.000 C 
ATOM     11  C   UNL     1      -1.522  12.094  21.173  0.00  0.00    +0.000 C 
ATOM     12  C   UNL     1      -0.684  10.861  21.548  0.00  0.00    +0.000 C 
ATOM     13  H   UNL     1       2.618   7.923  18.055  0.00  0.00    +0.000 HD
ENDROOT
BRANCH   1  18
ATOM     14  C   UNL     1       5.000   4.368  18.874  0.00  0.00    +0.000 A 
ATOM     15  C   UNL     1       4.255   3.319  18.315  0.00  0.00    +0.000 A 
ATOM     16  C   UNL     1       2.873   3.404  18.205  0.00  0.00    +0.000 A 
ATOM     17  C   UNL     1       2.217   4.547  18.665  0.00  0.00    +0.000 A 
ATOM     18  C   UNL     1       2.952   5.601  19.218  0.00  0.00    +0.000 A 
ATOM     19  C   UNL     1       4.345   5.515  19.331  0.00  0.00    +0.000 A 
BRANCH  14  20
ATOM     20  O   UNL     1       6.346   4.135  18.924  0.00  0.00    +0.000 OA
BRANCH  20  22
ATOM     21  C   UNL     1       7.850   5.974  18.741  0.00  0.00    +0.000 C 
ATOM     22  C   UNL     1       7.164   4.842  17.997  0.00  0.00    +0.000 C 
ENDBRANCH  20  22
ENDBRANCH  14  20
ENDBRANCH   1  18
BRANCH  10  23
ATOM     23  C   UNL     1       0.336  13.966  20.745  0.00  0.00    +0.000 C 
ATOM     24  C   UNL     1       0.379  15.335  20.025  0.00  0.00    +0.000 C 
ATOM     25  C   UNL     1       0.093  14.257  22.242  0.00  0.00    +0.000 C 
ATOM     26  C   UNL     1       1.741  13.354  20.603  0.00  0.00    +0.000 C 
ENDBRANCH  10  23
TORSDOF 4
ENDMDL
MODEL 4
REMARK VINA RESULT:      -7.0      1.013      1.196
REMARK  Name = 
REMARK  8 active torsions:
REMARK  status: ('A' for Active; 'I' for Inactive)
REMARK    1  A    between atoms: C_1  and  C_2
REMARK    2  A    between atoms: C_2  and  O_3
REMARK    3  A    between atoms: O_3  and  C_4
REMARK    4  A    between atoms: C_8  and  C_9
REMARK    5  A    between atoms: C_18  and  C_19
REMARK    6  A    between atoms: C_19  and  C_20
REMARK    7  A    between atoms: C_19  and  C_21
REMARK    8  A    between atoms: C_19  and  C_22
REMARK                            x       y       z     vdW  Elec       q    Type
REMARK                         _______ _______ _______ _____ _____    ______ ____
ROOT
ATOM      1  C   UNL     1       2.444   7.339  19.039  0.00  0.00    +0.000 C 
ATOM      2  O   UNL     1       2.386   7.018  20.223  0.00  0.00    +0.000 OA
ATOM      3  N   UNL     1       1.851   8.436  18.449  0.00  0.00    +0.000 N 
ATOM      4  C   UNL     1       1.070   9.278  19.198  0.00  0.00    +0.000 A 
ATOM      5  N   UNL     1       0.960   9.338  20.500  0.00  0.00    +0.000 NA
ATOM      6  C   UNL     1       0.005  10.264  20.837  0.00  0.00    +0.000 A 
ATOM      7  C   UNL     1      -0.580  10.916  19.771  0.00  0.00    +0.000 A 
ATOM      8  S   UNL     1       0.096  10.367  18.303  0.00  0.00    +0.000 S 
ATOM      9  C   UNL     1      -1.631  11.966  19.895  0.00  0.00    +0.000 C 
ATOM     10  C   UNL     1      -1.562  12.646  21.298  0.00  0.00    +0.000 C 
ATOM     11  C   UNL     1      -1.490  11.529  22.389  0.00  0.00    +0.000 C 
ATOM     12  C   UNL     1      -0.300  10.564  22.262  0.00  0.00    +0.000 C 
ATOM     13  H   UNL     1       1.826   8.554  17.449  0.00  0.00    +0.000 HD
ENDROOT
BRANCH   1  18
ATOM     14  C   UNL     1       4.985   5.882  16.630  0.00  0.00    +0.000 A 
ATOM     15  C   UNL     1       4.529   4.557  16.576  0.00  0.00    +0.000 A 
ATOM     16  C   UNL     1       3.405   4.159  17.291  0.00  0.00    +0.000 A 
ATOM     17  C   UNL     1       2.729   5.090  18.080  0.00  0.00    +0.000 A 
ATOM     18  C   UNL     1       3.173   6.416  18.134  0.00  0.00    +0.000 A 
ATOM     19  C   UNL     1       4.306   6.816  17.415  0.00  0.00    +0.000 A 
BRANCH  14  20
ATOM     20  O   UNL     1       6.106   6.119  15.882  0.00  0.00    +0.000 OA
BRANCH  20  22
ATOM     21  C   UNL     1       6.922   4.775  14.094  0.00  0.00    +0.000 C 
ATOM     22  C   UNL     1       6.944   5.005  15.594  0.00  0.00    +0.000 C 
ENDBRANCH  20  22
ENDBRANCH  14  20
ENDBRANCH   1  18
BRANCH  10  23
ATOM     23  C   UNL     1      -0.503  13.818  21.426  0.00  0.00    +0.000 C 
ATOM     24  C   UNL     1      -0.874  14.982  20.477  0.00  0.00    +0.000 C 
ATOM     25  C   UNL     1      -0.521  14.390  22.861  0.00  0.00    +0.000 C 
ATOM     26  C   UNL     1       0.947  13.426  21.090  0.00  0.00    +0.000 C 
ENDBRANCH  10  23
TORSDOF 4
ENDMDL
MODEL 5
REMARK VINA RESULT:      -6.9      1.587      2.362
REMARK  Name = 
REMARK  8 active torsions:
REMARK  status: ('A' for Active; 'I' for Inactive)
REMARK    1  A    between atoms: C_1  and  C_2
REMARK    2  A    between atoms: C_2  and  O_3
REMARK    3  A    between atoms: O_3  and  C_4
REMARK    4  A    between atoms: C_8  and  C_9
REMARK    5  A    between atoms: C_18  and  C_19
REMARK    6  A    between atoms: C_19  and  C_20
REMARK    7  A    between atoms: C_19  and  C_21
REMARK    8  A    between atoms: C_19  and  C_22
REMARK                            x       y       z     vdW  Elec       q    Type
REMARK                         _______ _______ _______ _____ _____    ______ ____
ROOT
ATOM      1  C   UNL     1       2.177   8.421  18.196  0.00  0.00    +0.000 C 
ATOM      2  O   UNL     1       2.189   9.194  17.242  0.00  0.00    +0.000 OA
ATOM      3  N   UNL     1       1.625   8.649  19.440  0.00  0.00    +0.000 N 
ATOM      4  C   UNL     1       1.046   9.860  19.721  0.00  0.00    +0.000 A 
ATOM      5  N   UNL     1       0.721  10.815  18.889  0.00  0.00    +0.000 NA
ATOM      6  C   UNL     1       0.245  11.893  19.593  0.00  0.00    +0.000 A 
ATOM      7  C   UNL     1       0.194  11.723  20.960  0.00  0.00    +0.000 A 
ATOM      8  S   UNL     1       0.741  10.161  21.379  0.00  0.00    +0.000 S 
ATOM      9  C   UNL     1      -0.295  12.750  21.924  0.00  0.00    +0.000 C 
ATOM     10  C   UNL     1      -1.262  13.749  21.214  0.00  0.00    +0.000 C 
ATOM     11  C   UNL     1      -0.592  14.230  19.885  0.00  0.00    +0.000 C 
ATOM     12  C   UNL     1      -0.236  13.114  18.890  0.00  0.00    +0.000 C 
ATOM     13  H   UNL     1       1.780   8.023  20.213  0.00  0.00    +0.000 HD
ENDROOT
BRANCH   1  18
ATOM     14  C   UNL     1       4.810   5.818  17.376  0.00  0.00    +0.000 A 
ATOM     15  C   UNL     1       4.164   4.668  17.852  0.00  0.00    +0.000 A 
ATOM     16  C   UNL     1       2.891   4.742  18.405  0.00  0.00    +0.000 A 
ATOM     17  C   UNL     1       2.253   5.979  18.494  0.00  0.00    +0.000 A 
ATOM     18  C   UNL     1       2.887   7.131  18.015  0.00  0.00    +0.000 A 
ATOM     19  C   UNL     1       4.171   7.057  17.459  0.00  0.00    +0.000 A 
BRANCH  14  20
ATOM     20  O   UNL     1       6.060   5.590  16.869  0.00  0.00    +0.000 OA
BRANCH  20  22
ATOM     21  C   UNL     1       7.601   6.142  18.600  0.00  0.00    +0.000 C 
ATOM     22  C   UNL     1       7.085   6.513  17.222  0.00  0.00    +0.000 C 
ENDBRANCH  20  22
ENDBRANCH  14  20
ENDBRANCH   1  18
BRANCH  10  23
ATOM     23  C   UNL     1      -2.767  13.266  21.102  0.00  0.00    +0.000 C 
ATOM     24  C   UNL     1      -3.132  12.369  22.309  0.00  0.00    +0.000 C 
ATOM     25  C   UNL     1      -3.717  14.483  21.148  0.00  0.00    +0.000 C 
ATOM     26  C   UNL     1      -3.099  12.453  19.839  0.00  0.00    +0.000 C 
ENDBRANCH  10  23
TORSDOF 4
ENDMDL
MODEL 6
REMARK VINA RESULT:      -6.8      1.600      2.456
REMARK  Name = 
REMARK  8 active torsions:
REMARK  status: ('A' for Active; 'I' for Inactive)
REMARK    1  A    between atoms: C_1  and  C_2
REMARK    2  A    between atoms: C_2  and  O_3
REMARK    3  A    between atoms: O_3  and  C_4
REMARK    4  A    between atoms: C_8  and  C_9
REMARK    5  A    between atoms: C_18  and  C_19
REMARK    6  A    between atoms: C_19  and  C_20
REMARK    7  A    between atoms: C_19  and  C_21
REMARK    8  A    between atoms: C_19  and  C_22
REMARK                            x       y       z     vdW  Elec       q    Type
REMARK                         _______ _______ _______ _____ _____    ______ ____
ROOT
ATOM      1  C   UNL     1       1.551   8.148  20.204  0.00  0.00    +0.000 C 
ATOM      2  O   UNL     1       1.266   7.739  21.326  0.00  0.00    +0.000 OA
ATOM      3  N   UNL     1       1.137   9.328  19.622  0.00  0.00    +0.000 N 
ATOM      4  C   UNL     1       0.286  10.164  20.298  0.00  0.00    +0.000 A 
ATOM      5  N   UNL     1      -0.050  10.129  21.561  0.00  0.00    +0.000 NA
ATOM      6  C   UNL     1      -0.994  11.092  21.811  0.00  0.00    +0.000 A 
ATOM      7  C   UNL     1      -1.343  11.867  20.724  0.00  0.00    +0.000 A 
ATOM      8  S   UNL     1      -0.449  11.388  19.351  0.00  0.00    +0.000 S 
ATOM      9  C   UNL     1      -2.336  12.978  20.758  0.00  0.00    +0.000 C 
ATOM     10  C   UNL     1      -2.478  13.539  22.208  0.00  0.00    +0.000 C 
ATOM     11  C   UNL     1      -2.666  12.337  23.191  0.00  0.00    +0.000 C 
ATOM     12  C   UNL     1      -1.530  11.301  23.184  0.00  0.00    +0.000 C 
ATOM     13  H   UNL     1       1.298   9.526  18.647  0.00  0.00    +0.000 HD
ENDROOT
BRANCH   1  18
ATOM     14  C   UNL     1       3.313   5.091  18.812  0.00  0.00    +0.000 A 
ATOM     15  C   UNL     1       3.827   5.633  17.625  0.00  0.00    +0.000 A 
ATOM     16  C   UNL     1       3.621   6.970  17.302  0.00  0.00    +0.000 A 
ATOM     17  C   UNL     1       2.886   7.779  18.169  0.00  0.00    +0.000 A 
ATOM     18  C   UNL     1       2.375   7.248  19.359  0.00  0.00    +0.000 A 
ATOM     19  C   UNL     1       2.581   5.901  19.683  0.00  0.00    +0.000 A 
BRANCH  14  20
ATOM     20  O   UNL     1       3.589   3.763  18.987  0.00  0.00    +0.000 OA
BRANCH  20  22
ATOM     21  C   UNL     1       1.640   2.567  18.322  0.00  0.00    +0.000 C 
ATOM     22  C   UNL     1       2.540   2.940  19.486  0.00  0.00    +0.000 C 
ENDBRANCH  20  22
ENDBRANCH  14  20
ENDBRANCH   1  18
BRANCH  10  23
ATOM     23  C   UNL     1      -1.392  14.616  22.622  0.00  0.00    +0.000 C 
ATOM     24  C   UNL     1      -1.802  16.016  22.104  0.00  0.00    +0.000 C 
ATOM     25  C   UNL     1      -1.310  14.718  24.161  0.00  0.00    +0.000 C 
ATOM     26  C   UNL     1       0.026  14.352  22.089  0.00  0.00    +0.000 C 
ENDBRANCH  10  23
TORSDOF 4
ENDMDL
MODEL 7
REMARK VINA RESULT:      -6.8      1.730      2.549
REMARK  Name = 
REMARK  8 active torsions:
REMARK  status: ('A' for Active; 'I' for Inactive)
REMARK    1  A    between atoms: C_1  and  C_2
REMARK    2  A    between atoms: C_2  and  O_3
REMARK    3  A    between atoms: O_3  and  C_4
REMARK    4  A    between atoms: C_8  and  C_9
REMARK    5  A    between atoms: C_18  and  C_19
REMARK    6  A    between atoms: C_19  and  C_20
REMARK    7  A    between atoms: C_19  and  C_21
REMARK    8  A    between atoms: C_19  and  C_22
REMARK                            x       y       z     vdW  Elec       q    Type
REMARK                         _______ _______ _______ _____ _____    ______ ____
ROOT
ATOM      1  C   UNL     1       2.096   8.473  18.293  0.00  0.00    +0.000 C 
ATOM      2  O   UNL     1       2.135   9.242  17.336  0.00  0.00    +0.000 OA
ATOM      3  N   UNL     1       1.518   8.711  19.523  0.00  0.00    +0.000 N 
ATOM      4  C   UNL     1       0.940   9.927  19.785  0.00  0.00    +0.000 A 
ATOM      5  N   UNL     1       0.639  10.880  18.941  0.00  0.00    +0.000 NA
ATOM      6  C   UNL     1       0.155  11.964  19.628  0.00  0.00    +0.000 A 
ATOM      7  C   UNL     1       0.072  11.801  20.996  0.00  0.00    +0.000 A 
ATOM      8  S   UNL     1       0.600  10.239  21.435  0.00  0.00    +0.000 S 
ATOM      9  C   UNL     1      -0.432  12.836  21.943  0.00  0.00    +0.000 C 
ATOM     10  C   UNL     1      -1.377  13.837  21.206  0.00  0.00    +0.000 C 
ATOM     11  C   UNL     1      -0.675  14.307  19.890  0.00  0.00    +0.000 C 
ATOM     12  C   UNL     1      -0.303  13.184  18.909  0.00  0.00    +0.000 C 
ATOM     13  H   UNL     1       1.652   8.088  20.303  0.00  0.00    +0.000 HD
ENDROOT
BRANCH   1  18
ATOM     14  C   UNL     1       4.609   5.815  17.293  0.00  0.00    +0.000 A 
ATOM     15  C   UNL     1       4.110   4.728  18.025  0.00  0.00    +0.000 A 
ATOM     16  C   UNL     1       2.967   4.858  18.807  0.00  0.00    +0.000 A 
ATOM     17  C   UNL     1       2.315   6.090  18.868  0.00  0.00    +0.000 A 
ATOM     18  C   UNL     1       2.803   7.178  18.135  0.00  0.00    +0.000 A 
ATOM     19  C   UNL     1       3.955   7.047  17.349  0.00  0.00    +0.000 A 
BRANCH  14  20
ATOM     20  O   UNL     1       5.743   5.536  16.581  0.00  0.00    +0.000 OA
BRANCH  20  22
ATOM     21  C   UNL     1       5.944   4.100  14.691  0.00  0.00    +0.000 C 
ATOM     22  C   UNL     1       5.631   5.509  15.162  0.00  0.00    +0.000 C 
ENDBRANCH  20  22
ENDBRANCH  14  20
ENDBRANCH   1  18
BRANCH  10  23
ATOM     23  C   UNL     1      -2.882  13.362  21.063  0.00  0.00    +0.000 C 
ATOM     24  C   UNL     1      -3.307  12.551  22.310  0.00  0.00    +0.000 C 
ATOM     25  C   UNL     1      -3.818  14.589  20.989  0.00  0.00    +0.000 C 
ATOM     26  C   UNL     1      -3.172  12.471  19.843  0.00  0.00    +0.000 C 
ENDBRANCH  10  23
TORSDOF 4
ENDMDL
MODEL 8
REMARK VINA RESULT:      -6.8      0.615      1.124
REMARK  Name = 
REMARK  8 active torsions:
REMARK  status: ('A' for Active; 'I' for Inactive)
REMARK    1  A    between atoms: C_1  and  C_2
REMARK    2  A    between atoms: C_2  and  O_3
REMARK    3  A    between atoms: O_3  and  C_4
REMARK    4  A    between atoms: C_8  and  C_9
REMARK    5  A    between atoms: C_18  and  C_19
REMARK    6  A    between atoms: C_19  and  C_20
REMARK    7  A    between atoms: C_19  and  C_21
REMARK    8  A    between atoms: C_19  and  C_22
REMARK                            x       y       z     vdW  Elec       q    Type
REMARK                         _______ _______ _______ _____ _____    ______ ____
ROOT
ATOM      1  C   UNL     1       2.078   7.870  19.231  0.00  0.00    +0.000 C 
ATOM      2  O   UNL     1       2.098   7.655  20.440  0.00  0.00    +0.000 OA
ATOM      3  N   UNL     1       1.380   8.865  18.578  0.00  0.00    +0.000 N 
ATOM      4  C   UNL     1       0.574   9.716  19.290  0.00  0.00    +0.000 A 
ATOM      5  N   UNL     1       0.519   9.886  20.585  0.00  0.00    +0.000 NA
ATOM      6  C   UNL     1      -0.486  10.771  20.888  0.00  0.00    +0.000 A 
ATOM      7  C   UNL     1      -1.165  11.280  19.801  0.00  0.00    +0.000 A 
ATOM      8  S   UNL     1      -0.518  10.648  18.354  0.00  0.00    +0.000 S 
ATOM      9  C   UNL     1      -2.284  12.262  19.886  0.00  0.00    +0.000 C 
ATOM     10  C   UNL     1      -2.202  13.071  21.218  0.00  0.00    +0.000 C 
ATOM     11  C   UNL     1      -1.998  12.066  22.399  0.00  0.00    +0.000 C 
ATOM     12  C   UNL     1      -0.748  11.178  22.296  0.00  0.00    +0.000 C 
ATOM     13  H   UNL     1       1.302   8.889  17.574  0.00  0.00    +0.000 HD
ENDROOT
BRANCH   1  18
ATOM     14  C   UNL     1       4.673   6.349  16.920  0.00  0.00    +0.000 A 
ATOM     15  C   UNL     1       4.232   5.018  16.912  0.00  0.00    +0.000 A 
ATOM     16  C   UNL     1       3.103   4.635  17.625  0.00  0.00    +0.000 A 
ATOM     17  C   UNL     1       2.404   5.589  18.366  0.00  0.00    +0.000 A 
ATOM     18  C   UNL     1       2.832   6.921  18.374  0.00  0.00    +0.000 A 
ATOM     19  C   UNL     1       3.972   7.306  17.657  0.00  0.00    +0.000 A 
BRANCH  14  20
ATOM     20  O   UNL     1       5.802   6.571  16.181  0.00  0.00    +0.000 OA
BRANCH  20  22
ATOM     21  C   UNL     1       7.512   6.841  17.817  0.00  0.00    +0.000 C 
ATOM     22  C   UNL     1       7.015   5.997  16.657  0.00  0.00    +0.000 C 
ENDBRANCH  20  22
ENDBRANCH  14  20
ENDBRANCH   1  18
BRANCH  10  23
ATOM     23  C   UNL     1      -1.227  14.319  21.189  0.00  0.00    +0.000 C 
ATOM     24  C   UNL     1      -0.205  14.228  22.347  0.00  0.00    +0.000 C 
ATOM     25  C   UNL     1      -0.412  14.322  19.876  0.00  0.00    +0.000 C 
ATOM     26  C   UNL     1      -1.916  15.689  21.321  0.00  0.00    +0.000 C 
ENDBRANCH  10  23
TORSDOF 4
ENDMDL
MODEL 9
REMARK VINA RESULT:      -6.8      1.318      2.302
REMARK  Name = 
REMARK  8 active torsions:
REMARK  status: ('A' for Active; 'I' for Inactive)
REMARK    1  A    between atoms: C_1  and  C_2
REMARK    2  A    between atoms: C_2  and  O_3
REMARK    3  A    between atoms: O_3  and  C_4
REMARK    4  A    between atoms: C_8  and  C_9
REMARK    5  A    between atoms: C_18  and  C_19
REMARK    6  A    between atoms: C_19  and  C_20
REMARK    7  A    between atoms: C_19  and  C_21
REMARK    8  A    between atoms: C_19  and  C_22
REMARK                            x       y       z     vdW  Elec       q    Type
REMARK                         _______ _______ _______ _____ _____    ______ ____
ROOT
ATOM      1  C   UNL     1       2.174   7.592  19.305  0.00  0.00    +0.000 C 
ATOM      2  O   UNL     1       2.133   7.326  20.503  0.00  0.00    +0.000 OA
ATOM      3  N   UNL     1       1.557   8.651  18.670  0.00  0.00    +0.000 N 
ATOM      4  C   UNL     1       0.769   9.515  19.387  0.00  0.00    +0.000 A 
ATOM      5  N   UNL     1       0.671   9.634  20.686  0.00  0.00    +0.000 NA
ATOM      6  C   UNL     1      -0.295  10.559  20.989  0.00  0.00    +0.000 A 
ATOM      7  C   UNL     1      -0.902  11.150  19.900  0.00  0.00    +0.000 A 
ATOM      8  S   UNL     1      -0.231  10.545  18.453  0.00  0.00    +0.000 S 
ATOM      9  C   UNL     1      -1.969  12.188  19.985  0.00  0.00    +0.000 C 
ATOM     10  C   UNL     1      -1.897  12.935  21.354  0.00  0.00    +0.000 C 
ATOM     11  C   UNL     1      -1.796  11.872  22.496  0.00  0.00    +0.000 C 
ATOM     12  C   UNL     1      -0.592  10.921  22.402  0.00  0.00    +0.000 C 
ATOM     13  H   UNL     1       1.521   8.721  17.666  0.00  0.00    +0.000 HD
ENDROOT
BRANCH   1  18
ATOM     14  C   UNL     1       3.175   4.497  17.355  0.00  0.00    +0.000 A 
ATOM     15  C   UNL     1       4.300   4.994  16.682  0.00  0.00    +0.000 A 
ATOM     16  C   UNL     1       4.732   6.300  16.881  0.00  0.00    +0.000 A 
ATOM     17  C   UNL     1       4.029   7.129  17.756  0.00  0.00    +0.000 A 
ATOM     18  C   UNL     1       2.909   6.639  18.437  0.00  0.00    +0.000 A 
ATOM     19  C   UNL     1       2.473   5.324  18.235  0.00  0.00    +0.000 A 
BRANCH  14  20
ATOM     20  O   UNL     1       2.867   3.200  17.050  0.00  0.00    +0.000 OA
BRANCH  20  22
ATOM     21  C   UNL     1       3.555   1.509  18.581  0.00  0.00    +0.000 C 
ATOM     22  C   UNL     1       2.399   2.374  18.112  0.00  0.00    +0.000 C 
ENDBRANCH  20  22
ENDBRANCH  14  20
ENDBRANCH   1  18
BRANCH  10  23
ATOM     23  C   UNL     1      -0.856  14.128  21.417  0.00  0.00    +0.000 C 
ATOM     24  C   UNL     1      -1.443  15.387  20.735  0.00  0.00    +0.000 C 
ATOM     25  C   UNL     1      -0.576  14.508  22.888  0.00  0.00    +0.000 C 
ATOM     26  C   UNL     1       0.495  13.852  20.734  0.00  0.00    +0.000 C 
ENDBRANCH  10  23
TORSDOF 4
ENDMDL
