MODEL 1
REMARK VINA RESULT:      -9.1      0.000      0.000
REMARK  Name = 
REMARK  7 active torsions:
REMARK  status: ('A' for Active; 'I' for Inactive)
REMARK    1  A    between atoms: O5*_1  and  C5*_2
REMARK    2  A    between atoms: C5*_2  and  C4*_3
REMARK    3  A    between atoms: C1*_5  and  N_6
REMARK    4  A    between atoms: N_11  and  C_12
REMARK    5  A    between atoms: C_12  and  C_13
REMARK    6  A    between atoms: C2*_31  and  O2*_32
REMARK    7  A    between atoms: C3*_33  and  O3*_34
REMARK                            x       y       z     vdW  Elec       q    Type
REMARK                         _______ _______ _______ _____ _____    ______ ____
ROOT
ATOM      1  N   UNL     1       2.457   6.518  19.571  0.00  0.00    +0.000 N 
ATOM      2  C   UNL     1       1.852   6.506  20.800  0.00  0.00    +0.000 A 
ATOM      3  N   UNL     1       1.190   7.616  21.044  0.00  0.00    +0.000 NA
ATOM      4  C   UNL     1       1.390   8.384  19.918  0.00  0.00    +0.000 A 
ATOM      5  C   UNL     1       0.835   9.617  19.481  0.00  0.00    +0.000 A 
ATOM      6  N   UNL     1      -0.172  10.256  20.179  0.00  0.00    +0.000 N 
ATOM      7  N   UNL     1       1.264  10.113  18.281  0.00  0.00    +0.000 NA
ATOM      8  C   UNL     1       2.131   9.402  17.551  0.00  0.00    +0.000 A 
ATOM      9  N   UNL     1       2.662   8.199  17.831  0.00  0.00    +0.000 NA
ATOM     10  C   UNL     1       2.234   7.752  19.025  0.00  0.00    +0.000 A 
ATOM     11  H   UNL     1      -0.116  10.166  21.190  0.00  0.00    +0.000 HD
ENDROOT
BRANCH   1  14
ATOM     12  C4* UNL     1       2.543   3.072  18.851  0.00  0.00    +0.000 C 
ATOM     13  O4* UNL     1       1.989   4.391  18.644  0.00  0.00    +0.000 OA
ATOM     14  C1* UNL     1       3.022   5.361  18.905  0.00  0.00    +0.000 C 
ATOM     15  C2* UNL     1       4.135   4.656  19.686  0.00  0.00    +0.000 C 
ATOM     16  C3* UNL     1       4.041   3.243  19.136  0.00  0.00    +0.000 C 
BRANCH  15  17
ATOM     17  O2* UNL     1       5.420   5.232  19.444  0.00  0.00    +0.000 OA
ATOM     18  H2* UNL     1       5.554   5.182  18.473  0.00  0.00    +0.000 HD
ENDBRANCH  15  17
BRANCH  16  19
ATOM     19  O3* UNL     1       4.841   3.209  17.935  0.00  0.00    +0.000 OA
ATOM     20  H3* UNL     1       5.641   2.680  18.102  0.00  0.00    +0.000 HD
ENDBRANCH  16  19
BRANCH  12  21
ATOM     21  C5* UNL     1       1.782   2.362  19.975  0.00  0.00    +0.000 C 
BRANCH  21  22
ATOM     22  O5* UNL     1       0.642   3.125  20.353  0.00  0.00    +0.000 OA
ATOM     23  H5* UNL     1      -0.069   2.915  19.721  0.00  0.00    +0.000 HD
ENDBRANCH  21  22
ENDBRANCH  12  21
ENDBRANCH   1  14
BRANCH   6  24
ATOM     24  C   UNL     1      -0.633  11.498  19.610  0.00  0.00    +0.000 C 
BRANCH  24  25
ATOM     25  C   UNL     1      -2.147  11.661  19.594  0.00  0.00    +0.000 A 
ATOM     26  C   UNL     1      -2.792  11.131  18.448  0.00  0.00    +0.000 A 
ATOM     27  C   UNL     1      -2.174  10.185  17.610  0.00  0.00    +0.000 A 
ATOM     28  C   UNL     1      -2.489  10.136  16.264  0.00  0.00    +0.000 A 
ATOM     29  C   UNL     1      -3.570  10.869  15.803  0.00  0.00    +0.000 A 
ATOM     30  C   UNL     1      -4.407  11.519  16.717  0.00  0.00    +0.000 A 
ATOM     31  C   UNL     1      -4.027  11.658  18.064  0.00  0.00    +0.000 A 
ATOM     32  C   UNL     1      -4.780  12.367  19.017  0.00  0.00    +0.000 A 
ATOM     33  C   UNL     1      -4.240  12.707  20.272  0.00  0.00    +0.000 A 
ATOM     34  C   UNL     1      -5.008  13.421  21.209  0.00  0.00    +0.000 A 
ATOM     35  C   UNL     1      -4.450  13.880  22.402  0.00  0.00    +0.000 A 
ATOM     36  C   UNL     1      -3.119  13.611  22.687  0.00  0.00    +0.000 A 
ATOM     37  C   UNL     1      -2.361  12.860  21.789  0.00  0.00    +0.000 A 
ATOM     38  C   UNL     1      -2.889  12.398  20.559  0.00  0.00    +0.000 A 
ENDBRANCH  24  25
ENDBRANCH   6  24
TORSDOF 7
ENDMDL
MODEL 2
REMARK VINA RESULT:      -9.0      3.970      9.476
REMARK  Name = 
REMARK  7 active torsions:
REMARK  status: ('A' for Active; 'I' for Inactive)
REMARK    1  A    between atoms: O5*_1  and  C5*_2
REMARK    2  A    between atoms: C5*_2  and  C4*_3
REMARK    3  A    between atoms: C1*_5  and  N_6
REMARK    4  A    between atoms: N_11  and  C_12
REMARK    5  A    between atoms: C_12  and  C_13
REMARK    6  A    between atoms: C2*_31  and  O2*_32
REMARK    7  A    between atoms: C3*_33  and  O3*_34
REMARK                            x       y       z     vdW  Elec       q    Type
REMARK                         _______ _______ _______ _____ _____    ______ ____
ROOT
ATOM      1  N   UNL     1      -0.228  11.860  19.629  0.00  0.00    +0.000 N 
ATOM      2  C   UNL     1       0.482  11.860  18.457  0.00  0.00    +0.000 A 
ATOM      3  N   UNL     1       1.270  10.814  18.347  0.00  0.00    +0.000 NA
ATOM      4  C   UNL     1       1.065  10.111  19.515  0.00  0.00    +0.000 A 
ATOM      5  C   UNL     1       1.490   8.830  19.956  0.00  0.00    +0.000 A 
ATOM      6  N   UNL     1       2.194   7.967  19.136  0.00  0.00    +0.000 N 
ATOM      7  N   UNL     1       1.097   8.427  21.202  0.00  0.00    +0.000 NA
ATOM      8  C   UNL     1       0.292   9.218  21.921  0.00  0.00    +0.000 A 
ATOM      9  N   UNL     1      -0.227  10.409  21.576  0.00  0.00    +0.000 NA
ATOM     10  C   UNL     1       0.196  10.781  20.355  0.00  0.00    +0.000 A 
ATOM     11  H   UNL     1       2.843   8.419  18.496  0.00  0.00    +0.000 HD
ENDROOT
BRANCH   1  14
ATOM     12  C4* UNL     1      -2.588  13.255  21.839  0.00  0.00    +0.000 C 
ATOM     13  O4* UNL     1      -1.261  13.221  21.267  0.00  0.00    +0.000 OA
ATOM     14  C1* UNL     1      -1.361  12.714  19.922  0.00  0.00    +0.000 C 
ATOM     15  C2* UNL     1      -2.726  12.033  19.783  0.00  0.00    +0.000 C 
ATOM     16  C3* UNL     1      -3.575  12.861  20.732  0.00  0.00    +0.000 C 
BRANCH  15  17
ATOM     17  O2* UNL     1      -3.227  12.085  18.445  0.00  0.00    +0.000 OA
ATOM     18  H2* UNL     1      -4.135  12.450  18.516  0.00  0.00    +0.000 HD
ENDBRANCH  15  17
BRANCH  16  19
ATOM     19  O3* UNL     1      -4.049  14.000  19.982  0.00  0.00    +0.000 OA
ATOM     20  H3* UNL     1      -3.907  14.807  20.507  0.00  0.00    +0.000 HD
ENDBRANCH  16  19
BRANCH  12  21
ATOM     21  C5* UNL     1      -2.646  12.340  23.066  0.00  0.00    +0.000 C 
BRANCH  21  22
ATOM     22  O5* UNL     1      -1.332  12.077  23.544  0.00  0.00    +0.000 OA
ATOM     23  H5* UNL     1      -0.713  12.560  22.967  0.00  0.00    +0.000 HD
ENDBRANCH  21  22
ENDBRANCH  12  21
ENDBRANCH   1  14
BRANCH   6  24
ATOM     24  C   UNL     1       2.556   6.703  19.725  0.00  0.00    +0.000 C 
BRANCH  24  25
ATOM     25  C   UNL     1       2.806   5.587  18.720  0.00  0.00    +0.000 A 
ATOM     26  C   UNL     1       2.142   4.366  19.004  0.00  0.00    +0.000 A 
ATOM     27  C   UNL     1       1.041   4.298  19.876  0.00  0.00    +0.000 A 
ATOM     28  C   UNL     1       0.799   3.147  20.605  0.00  0.00    +0.000 A 
ATOM     29  C   UNL     1       1.515   2.000  20.301  0.00  0.00    +0.000 A 
ATOM     30  C   UNL     1       2.351   1.983  19.178  0.00  0.00    +0.000 A 
ATOM     31  C   UNL     1       2.676   3.176  18.508  0.00  0.00    +0.000 A 
ATOM     32  C   UNL     1       3.571   3.241  17.425  0.00  0.00    +0.000 A 
ATOM     33  C   UNL     1       4.071   4.472  16.961  0.00  0.00    +0.000 A 
ATOM     34  C   UNL     1       4.969   4.516  15.879  0.00  0.00    +0.000 A 
ATOM     35  C   UNL     1       5.575   5.711  15.490  0.00  0.00    +0.000 A 
ATOM     36  C   UNL     1       5.274   6.885  16.163  0.00  0.00    +0.000 A 
ATOM     37  C   UNL     1       4.346   6.865  17.204  0.00  0.00    +0.000 A 
ATOM     38  C   UNL     1       3.729   5.666  17.640  0.00  0.00    +0.000 A 
ENDBRANCH  24  25
ENDBRANCH   6  24
TORSDOF 7
ENDMDL
MODEL 3
REMARK VINA RESULT:      -9.0      0.817      3.228
REMARK  Name = 
REMARK  7 active torsions:
REMARK  status: ('A' for Active; 'I' for Inactive)
REMARK    1  A    between atoms: O5*_1  and  C5*_2
REMARK    2  A    between atoms: C5*_2  and  C4*_3
REMARK    3  A    between atoms: C1*_5  and  N_6
REMARK    4  A    between atoms: N_11  and  C_12
REMARK    5  A    between atoms: C_12  and  C_13
REMARK    6  A    between atoms: C2*_31  and  O2*_32
REMARK    7  A    between atoms: C3*_33  and  O3*_34
REMARK                            x       y       z     vdW  Elec       q    Type
REMARK                         _______ _______ _______ _____ _____    ______ ____
ROOT
ATOM      1  N   UNL     1       2.145   6.561  19.776  0.00  0.00    +0.000 N 
ATOM      2  C   UNL     1       1.514   6.635  20.990  0.00  0.00    +0.000 A 
ATOM      3  N   UNL     1       0.988   7.819  21.212  0.00  0.00    +0.000 NA
ATOM      4  C   UNL     1       1.307   8.547  20.086  0.00  0.00    +0.000 A 
ATOM      5  C   UNL     1       0.918   9.835  19.628  0.00  0.00    +0.000 A 
ATOM      6  N   UNL     1      -0.019  10.599  20.299  0.00  0.00    +0.000 N 
ATOM      7  N   UNL     1       1.432  10.265  18.437  0.00  0.00    +0.000 NA
ATOM      8  C   UNL     1       2.222   9.446  17.732  0.00  0.00    +0.000 A 
ATOM      9  N   UNL     1       2.595   8.190  18.031  0.00  0.00    +0.000 NA
ATOM     10  C   UNL     1       2.088   7.809  19.218  0.00  0.00    +0.000 A 
ATOM     11  H   UNL     1       0.002  10.511  21.311  0.00  0.00    +0.000 HD
ENDROOT
BRANCH   1  14
ATOM     12  C4* UNL     1       2.831   3.107  19.788  0.00  0.00    +0.000 C 
ATOM     13  O4* UNL     1       1.897   4.208  19.709  0.00  0.00    +0.000 OA
ATOM     14  C1* UNL     1       2.579   5.339  19.131  0.00  0.00    +0.000 C 
ATOM     15  C2* UNL     1       4.084   5.069  19.221  0.00  0.00    +0.000 C 
ATOM     16  C3* UNL     1       4.127   3.556  19.101  0.00  0.00    +0.000 C 
BRANCH  15  17
ATOM     17  O2* UNL     1       4.816   5.703  18.169  0.00  0.00    +0.000 OA
ATOM     18  H2* UNL     1       4.194   5.761  17.412  0.00  0.00    +0.000 HD
ENDBRANCH  15  17
BRANCH  16  19
ATOM     19  O3* UNL     1       4.142   3.249  17.690  0.00  0.00    +0.000 OA
ATOM     20  H3* UNL     1       4.934   2.719  17.489  0.00  0.00    +0.000 HD
ENDBRANCH  16  19
BRANCH  12  21
ATOM     21  C5* UNL     1       3.022   2.695  21.250  0.00  0.00    +0.000 C 
BRANCH  21  22
ATOM     22  O5* UNL     1       2.023   3.299  22.064  0.00  0.00    +0.000 OA
ATOM     23  H5* UNL     1       1.518   2.578  22.483  0.00  0.00    +0.000 HD
ENDBRANCH  21  22
ENDBRANCH  12  21
ENDBRANCH   1  14
BRANCH   6  24
ATOM     24  C   UNL     1      -0.311  11.883  19.712  0.00  0.00    +0.000 C 
BRANCH  24  25
ATOM     25  C   UNL     1      -1.791  12.144  19.470  0.00  0.00    +0.000 A 
ATOM     26  C   UNL     1      -2.472  12.765  20.547  0.00  0.00    +0.000 A 
ATOM     27  C   UNL     1      -1.791  13.453  21.568  0.00  0.00    +0.000 A 
ATOM     28  C   UNL     1      -2.322  13.509  22.844  0.00  0.00    +0.000 A 
ATOM     29  C   UNL     1      -3.623  13.079  23.047  0.00  0.00    +0.000 A 
ATOM     30  C   UNL     1      -4.420  12.740  21.947  0.00  0.00    +0.000 A 
ATOM     31  C   UNL     1      -3.851  12.580  20.671  0.00  0.00    +0.000 A 
ATOM     32  C   UNL     1      -4.577  12.163  19.542  0.00  0.00    +0.000 A 
ATOM     33  C   UNL     1      -3.926  11.760  18.361  0.00  0.00    +0.000 A 
ATOM     34  C   UNL     1      -4.670  11.342  17.242  0.00  0.00    +0.000 A 
ATOM     35  C   UNL     1      -4.045  10.816  16.112  0.00  0.00    +0.000 A 
ATOM     36  C   UNL     1      -2.661  10.723  16.073  0.00  0.00    +0.000 A 
ATOM     37  C   UNL     1      -1.909  11.181  17.154  0.00  0.00    +0.000 A 
ATOM     38  C   UNL     1      -2.512  11.699  18.326  0.00  0.00    +0.000 A 
ENDBRANCH  24  25
ENDBRANCH   6  24
TORSDOF 7
ENDMDL
MODEL 4
REMARK VINA RESULT:      -9.0      4.192      9.329
REMARK  Name = 
REMARK  7 active torsions:
REMARK  status: ('A' for Active; 'I' for Inactive)
REMARK    1  A    between atoms: O5*_1  and  C5*_2
REMARK    2  A    between atoms: C5*_2  and  C4*_3
REMARK    3  A    between atoms: C1*_5  and  N_6
REMARK    4  A    between atoms: N_11  and  C_12
REMARK    5  A    between atoms: C_12  and  C_13
REMARK    6  A    between atoms: C2*_31  and  O2*_32
REMARK    7  A    between atoms: C3*_33  and  O3*_34
REMARK                            x       y       z     vdW  Elec       q    Type
REMARK                         _______ _______ _______ _____ _____    ______ ____
ROOT
ATOM      1  N   UNL     1      -0.452  10.980  21.509  0.00  0.00    +0.000 N 
ATOM      2  C   UNL     1      -0.067  10.018  22.406  0.00  0.00    +0.000 A 
ATOM      3  N   UNL     1       0.578   9.026  21.833  0.00  0.00    +0.000 NA
ATOM      4  C   UNL     1       0.599   9.363  20.498  0.00  0.00    +0.000 A 
ATOM      5  C   UNL     1       1.259   8.801  19.372  0.00  0.00    +0.000 A 
ATOM      6  N   UNL     1       2.152   7.752  19.493  0.00  0.00    +0.000 N 
ATOM      7  N   UNL     1       1.060   9.398  18.158  0.00  0.00    +0.000 NA
ATOM      8  C   UNL     1       0.309  10.504  18.089  0.00  0.00    +0.000 A 
ATOM      9  N   UNL     1      -0.301  11.159  19.092  0.00  0.00    +0.000 NA
ATOM     10  C   UNL     1      -0.099  10.533  20.266  0.00  0.00    +0.000 A 
ATOM     11  H   UNL     1       1.920   7.074  20.214  0.00  0.00    +0.000 HD
ENDROOT
BRANCH   1  14
ATOM     12  C4* UNL     1      -2.405  13.178  23.447  0.00  0.00    +0.000 C 
ATOM     13  O4* UNL     1      -1.221  12.368  23.265  0.00  0.00    +0.000 OA
ATOM     14  C1* UNL     1      -0.931  12.303  21.855  0.00  0.00    +0.000 C 
ATOM     15  C2* UNL     1      -2.188  12.743  21.100  0.00  0.00    +0.000 C 
ATOM     16  C3* UNL     1      -2.789  13.744  22.073  0.00  0.00    +0.000 C 
BRANCH  15  17
ATOM     17  O2* UNL     1      -1.885  13.349  19.841  0.00  0.00    +0.000 OA
ATOM     18  H2* UNL     1      -2.524  12.966  19.203  0.00  0.00    +0.000 HD
ENDBRANCH  15  17
BRANCH  16  19
ATOM     19  O3* UNL     1      -2.162  15.016  21.803  0.00  0.00    +0.000 OA
ATOM     20  H3* UNL     1      -1.392  14.874  21.226  0.00  0.00    +0.000 HD
ENDBRANCH  16  19
BRANCH  12  21
ATOM     21  C5* UNL     1      -3.511  12.339  24.095  0.00  0.00    +0.000 C 
BRANCH  21  22
ATOM     22  O5* UNL     1      -4.163  13.090  25.112  0.00  0.00    +0.000 OA
ATOM     23  H5* UNL     1      -4.346  12.480  25.850  0.00  0.00    +0.000 HD
ENDBRANCH  21  22
ENDBRANCH  12  21
ENDBRANCH   1  14
BRANCH   6  24
ATOM     24  C   UNL     1       2.743   7.291  18.262  0.00  0.00    +0.000 C 
BRANCH  24  25
ATOM     25  C   UNL     1       3.240   5.853  18.300  0.00  0.00    +0.000 A 
ATOM     26  C   UNL     1       4.300   5.563  17.405  0.00  0.00    +0.000 A 
ATOM     27  C   UNL     1       5.100   6.572  16.839  0.00  0.00    +0.000 A 
ATOM     28  C   UNL     1       5.667   6.393  15.590  0.00  0.00    +0.000 A 
ATOM     29  C   UNL     1       5.624   5.136  15.009  0.00  0.00    +0.000 A 
ATOM     30  C   UNL     1       5.147   4.047  15.749  0.00  0.00    +0.000 A 
ATOM     31  C   UNL     1       4.476   4.248  16.968  0.00  0.00    +0.000 A 
ATOM     32  C   UNL     1       3.902   3.208  17.721  0.00  0.00    +0.000 A 
ATOM     33  C   UNL     1       3.018   3.475  18.783  0.00  0.00    +0.000 A 
ATOM     34  C   UNL     1       2.451   2.421  19.522  0.00  0.00    +0.000 A 
ATOM     35  C   UNL     1       1.474   2.658  20.489  0.00  0.00    +0.000 A 
ATOM     36  C   UNL     1       1.066   3.958  20.750  0.00  0.00    +0.000 A 
ATOM     37  C   UNL     1       1.657   5.017  20.061  0.00  0.00    +0.000 A 
ATOM     38  C   UNL     1       2.635   4.810  19.057  0.00  0.00    +0.000 A 
ENDBRANCH  24  25
ENDBRANCH   6  24
TORSDOF 7
ENDMDL
MODEL 5
REMARK VINA RESULT:      -9.0      4.225      9.713
REMARK  Name = 
REMARK  7 active torsions:
REMARK  status: ('A' for Active; 'I' for Inactive)
REMARK    1  A    between atoms: O5*_1  and  C5*_2
REMARK    2  A    between atoms: C5*_2  and  C4*_3
REMARK    3  A    between atoms: C1*_5  and  N_6
REMARK    4  A    between atoms: N_11  and  C_12
REMARK    5  A    between atoms: C_12  and  C_13
REMARK    6  A    between atoms: C2*_31  and  O2*_32
REMARK    7  A    between atoms: C3*_33  and  O3*_34
REMARK                            x       y       z     vdW  Elec       q    Type
REMARK                         _______ _______ _______ _____ _____    ______ ____
ROOT
ATOM      1  N   UNL     1      -0.456  11.549  20.302  0.00  0.00    +0.000 N 
ATOM      2  C   UNL     1      -0.198  11.502  18.957  0.00  0.00    +0.000 A 
ATOM      3  N   UNL     1       0.611  10.517  18.635  0.00  0.00    +0.000 NA
ATOM      4  C   UNL     1       0.897   9.907  19.838  0.00  0.00    +0.000 A 
ATOM      5  C   UNL     1       1.584   8.709  20.172  0.00  0.00    +0.000 A 
ATOM      6  N   UNL     1       2.049   7.837  19.206  0.00  0.00    +0.000 N 
ATOM      7  N   UNL     1       1.690   8.389  21.497  0.00  0.00    +0.000 NA
ATOM      8  C   UNL     1       1.102   9.174  22.408  0.00  0.00    +0.000 A 
ATOM      9  N   UNL     1       0.372  10.283  22.202  0.00  0.00    +0.000 NA
ATOM     10  C   UNL     1       0.306  10.578  20.891  0.00  0.00    +0.000 A 
ATOM     11  H   UNL     1       2.385   8.280  18.355  0.00  0.00    +0.000 HD
ENDROOT
BRANCH   1  14
ATOM     12  C4* UNL     1      -2.313  14.515  20.698  0.00  0.00    +0.000 C 
ATOM     13  O4* UNL     1      -2.029  13.289  19.987  0.00  0.00    +0.000 OA
ATOM     14  C1* UNL     1      -1.503  12.332  20.927  0.00  0.00    +0.000 C 
ATOM     15  C2* UNL     1      -1.065  13.101  22.177  0.00  0.00    +0.000 C 
ATOM     16  C3* UNL     1      -2.060  14.249  22.188  0.00  0.00    +0.000 C 
BRANCH  15  17
ATOM     17  O2* UNL     1      -1.159  12.311  23.364  0.00  0.00    +0.000 OA
ATOM     18  H2* UNL     1      -1.724  11.544  23.128  0.00  0.00    +0.000 HD
ENDBRANCH  15  17
BRANCH  16  19
ATOM     19  O3* UNL     1      -3.238  13.774  22.874  0.00  0.00    +0.000 OA
ATOM     20  H3* UNL     1      -3.065  13.767  23.832  0.00  0.00    +0.000 HD
ENDBRANCH  16  19
BRANCH  12  21
ATOM     21  C5* UNL     1      -1.463  15.653  20.125  0.00  0.00    +0.000 C 
BRANCH  21  22
ATOM     22  O5* UNL     1      -0.859  15.247  18.904  0.00  0.00    +0.000 OA
ATOM     23  H5* UNL     1       0.097  15.424  18.981  0.00  0.00    +0.000 HD
ENDBRANCH  21  22
ENDBRANCH  12  21
ENDBRANCH   1  14
BRANCH   6  24
ATOM     24  C   UNL     1       2.725   6.663  19.700  0.00  0.00    +0.000 C 
BRANCH  24  25
ATOM     25  C   UNL     1       2.894   5.553  18.671  0.00  0.00    +0.000 A 
ATOM     26  C   UNL     1       2.176   4.363  18.953  0.00  0.00    +0.000 A 
ATOM     27  C   UNL     1       1.093   4.336  19.850  0.00  0.00    +0.000 A 
ATOM     28  C   UNL     1       0.811   3.187  20.567  0.00  0.00    +0.000 A 
ATOM     29  C   UNL     1       1.459   2.011  20.228  0.00  0.00    +0.000 A 
ATOM     30  C   UNL     1       2.266   1.970  19.085  0.00  0.00    +0.000 A 
ATOM     31  C   UNL     1       2.636   3.155  18.425  0.00  0.00    +0.000 A 
ATOM     32  C   UNL     1       3.508   3.193  17.322  0.00  0.00    +0.000 A 
ATOM     33  C   UNL     1       4.058   4.405  16.865  0.00  0.00    +0.000 A 
ATOM     34  C   UNL     1       4.931   4.421  15.762  0.00  0.00    +0.000 A 
ATOM     35  C   UNL     1       5.589   5.590  15.377  0.00  0.00    +0.000 A 
ATOM     36  C   UNL     1       5.364   6.767  16.075  0.00  0.00    +0.000 A 
ATOM     37  C   UNL     1       4.462   6.776  17.138  0.00  0.00    +0.000 A 
ATOM     38  C   UNL     1       3.795   5.603  17.570  0.00  0.00    +0.000 A 
ENDBRANCH  24  25
ENDBRANCH   6  24
TORSDOF 7
ENDMDL
MODEL 6
REMARK VINA RESULT:      -8.9      4.033      9.196
REMARK  Name = 
REMARK  7 active torsions:
REMARK  status: ('A' for Active; 'I' for Inactive)
REMARK    1  A    between atoms: O5*_1  and  C5*_2
REMARK    2  A    between atoms: C5*_2  and  C4*_3
REMARK    3  A    between atoms: C1*_5  and  N_6
REMARK    4  A    between atoms: N_11  and  C_12
REMARK    5  A    between atoms: C_12  and  C_13
REMARK    6  A    between atoms: C2*_31  and  O2*_32
REMARK    7  A    between atoms: C3*_33  and  O3*_34
REMARK                            x       y       z     vdW  Elec       q    Type
REMARK                         _______ _______ _______ _____ _____    ______ ____
ROOT
ATOM      1  N   UNL     1      -0.335  10.748  21.990  0.00  0.00    +0.000 N 
ATOM      2  C   UNL     1       0.184   9.788  22.818  0.00  0.00    +0.000 A 
ATOM      3  N   UNL     1       0.798   8.832  22.156  0.00  0.00    +0.000 NA
ATOM      4  C   UNL     1       0.656   9.192  20.833  0.00  0.00    +0.000 A 
ATOM      5  C   UNL     1       1.207   8.676  19.629  0.00  0.00    +0.000 A 
ATOM      6  N   UNL     1       2.146   7.661  19.628  0.00  0.00    +0.000 N 
ATOM      7  N   UNL     1       0.849   9.285  18.458  0.00  0.00    +0.000 NA
ATOM      8  C   UNL     1       0.054  10.360  18.497  0.00  0.00    +0.000 A 
ATOM      9  N   UNL     1      -0.463  10.973  19.576  0.00  0.00    +0.000 NA
ATOM     10  C   UNL     1      -0.107  10.336  20.706  0.00  0.00    +0.000 A 
ATOM     11  H   UNL     1       2.022   6.963  20.356  0.00  0.00    +0.000 HD
ENDROOT
BRANCH   1  14
ATOM     12  C4* UNL     1      -2.694  13.362  21.931  0.00  0.00    +0.000 C 
ATOM     13  O4* UNL     1      -2.262  12.062  22.393  0.00  0.00    +0.000 OA
ATOM     14  C1* UNL     1      -0.821  12.045  22.415  0.00  0.00    +0.000 C 
ATOM     15  C2* UNL     1      -0.330  13.220  21.564  0.00  0.00    +0.000 C 
ATOM     16  C3* UNL     1      -1.440  14.234  21.780  0.00  0.00    +0.000 C 
BRANCH  15  17
ATOM     17  O2* UNL     1       0.934  13.721  22.004  0.00  0.00    +0.000 OA
ATOM     18  H2* UNL     1       1.542  13.614  21.240  0.00  0.00    +0.000 HD
ENDBRANCH  15  17
BRANCH  16  19
ATOM     19  O3* UNL     1      -1.118  14.955  22.989  0.00  0.00    +0.000 OA
ATOM     20  H3* UNL     1      -0.328  15.502  22.831  0.00  0.00    +0.000 HD
ENDBRANCH  16  19
BRANCH  12  21
ATOM     21  C5* UNL     1      -3.495  13.211  20.635  0.00  0.00    +0.000 C 
BRANCH  21  22
ATOM     22  O5* UNL     1      -2.620  12.945  19.545  0.00  0.00    +0.000 OA
ATOM     23  H5* UNL     1      -3.092  12.353  18.932  0.00  0.00    +0.000 HD
ENDBRANCH  21  22
ENDBRANCH  12  21
ENDBRANCH   1  14
BRANCH   6  24
ATOM     24  C   UNL     1       2.612   7.245  18.329  0.00  0.00    +0.000 C 
BRANCH  24  25
ATOM     25  C   UNL     1       3.147   5.821  18.278  0.00  0.00    +0.000 A 
ATOM     26  C   UNL     1       4.226   5.620  17.380  0.00  0.00    +0.000 A 
ATOM     27  C   UNL     1       5.005   6.686  16.895  0.00  0.00    +0.000 A 
ATOM     28  C   UNL     1       5.592   6.607  15.645  0.00  0.00    +0.000 A 
ATOM     29  C   UNL     1       5.590   5.392  14.980  0.00  0.00    +0.000 A 
ATOM     30  C   UNL     1       5.134   4.243  15.638  0.00  0.00    +0.000 A 
ATOM     31  C   UNL     1       4.443   4.343  16.858  0.00  0.00    +0.000 A 
ATOM     32  C   UNL     1       3.888   3.240  17.531  0.00  0.00    +0.000 A 
ATOM     33  C   UNL     1       2.984   3.411  18.596  0.00  0.00    +0.000 A 
ATOM     34  C   UNL     1       2.437   2.294  19.254  0.00  0.00    +0.000 A 
ATOM     35  C   UNL     1       1.442   2.440  20.221  0.00  0.00    +0.000 A 
ATOM     36  C   UNL     1       0.996   3.708  20.563  0.00  0.00    +0.000 A 
ATOM     37  C   UNL     1       1.566   4.826  19.955  0.00  0.00    +0.000 A 
ATOM     38  C   UNL     1       2.561   4.713  18.954  0.00  0.00    +0.000 A 
ENDBRANCH  24  25
ENDBRANCH   6  24
TORSDOF 7
ENDMDL
MODEL 7
REMARK VINA RESULT:      -8.9      1.382      3.786
REMARK  Name = 
REMARK  7 active torsions:
REMARK  status: ('A' for Active; 'I' for Inactive)
REMARK    1  A    between atoms: O5*_1  and  C5*_2
REMARK    2  A    between atoms: C5*_2  and  C4*_3
REMARK    3  A    between atoms: C1*_5  and  N_6
REMARK    4  A    between atoms: N_11  and  C_12
REMARK    5  A    between atoms: C_12  and  C_13
REMARK    6  A    between atoms: C2*_31  and  O2*_32
REMARK    7  A    between atoms: C3*_33  and  O3*_34
REMARK                            x       y       z     vdW  Elec       q    Type
REMARK                         _______ _______ _______ _____ _____    ______ ____
ROOT
ATOM      1  N   UNL     1       2.425   5.548  19.716  0.00  0.00    +0.000 N 
ATOM      2  C   UNL     1       1.744   5.752  20.887  0.00  0.00    +0.000 A 
ATOM      3  N   UNL     1       1.333   6.993  21.020  0.00  0.00    +0.000 NA
ATOM      4  C   UNL     1       1.783   7.623  19.880  0.00  0.00    +0.000 A 
ATOM      5  C   UNL     1       1.554   8.916  19.338  0.00  0.00    +0.000 A 
ATOM      6  N   UNL     1       0.669   9.807  19.915  0.00  0.00    +0.000 N 
ATOM      7  N   UNL     1       2.171   9.226  18.157  0.00  0.00    +0.000 NA
ATOM      8  C   UNL     1       2.906   8.294  17.540  0.00  0.00    +0.000 A 
ATOM      9  N   UNL     1       3.131   7.025  17.921  0.00  0.00    +0.000 NA
ATOM     10  C   UNL     1       2.526   6.762  19.094  0.00  0.00    +0.000 A 
ATOM     11  H   UNL     1       0.629   9.773  20.931  0.00  0.00    +0.000 HD
ENDROOT
BRANCH   1  14
ATOM     12  C4* UNL     1       4.324   3.466  17.604  0.00  0.00    +0.000 C 
ATOM     13  O4* UNL     1       4.166   4.208  18.834  0.00  0.00    +0.000 OA
ATOM     14  C1* UNL     1       2.762   4.254  19.157  0.00  0.00    +0.000 C 
ATOM     15  C2* UNL     1       1.982   3.883  17.893  0.00  0.00    +0.000 C 
ATOM     16  C3* UNL     1       2.943   2.919  17.218  0.00  0.00    +0.000 C 
BRANCH  15  17
ATOM     17  O2* UNL     1       0.730   3.259  18.188  0.00  0.00    +0.000 OA
ATOM     18  H2* UNL     1       0.410   2.891  17.336  0.00  0.00    +0.000 HD
ENDBRANCH  15  17
BRANCH  16  19
ATOM     19  O3* UNL     1       2.688   1.613  17.778  0.00  0.00    +0.000 OA
ATOM     20  H3* UNL     1       1.812   1.308  17.482  0.00  0.00    +0.000 HD
ENDBRANCH  16  19
BRANCH  12  21
ATOM     21  C5* UNL     1       4.949   4.367  16.534  0.00  0.00    +0.000 C 
BRANCH  21  22
ATOM     22  O5* UNL     1       5.520   5.521  17.137  0.00  0.00    +0.000 OA
ATOM     23  H5* UNL     1       4.885   5.844  17.802  0.00  0.00    +0.000 HD
ENDBRANCH  21  22
ENDBRANCH  12  21
ENDBRANCH   1  14
BRANCH   6  24
ATOM     24  C   UNL     1       0.543  11.080  19.250  0.00  0.00    +0.000 C 
BRANCH  24  25
ATOM     25  C   UNL     1      -0.876  11.629  19.204  0.00  0.00    +0.000 A 
ATOM     26  C   UNL     1      -1.206  12.522  20.254  0.00  0.00    +0.000 A 
ATOM     27  C   UNL     1      -0.223  13.170  21.024  0.00  0.00    +0.000 A 
ATOM     28  C   UNL     1      -0.480  13.510  22.340  0.00  0.00    +0.000 A 
ATOM     29  C   UNL     1      -1.778  13.410  22.815  0.00  0.00    +0.000 A 
ATOM     30  C   UNL     1      -2.819  13.115  21.928  0.00  0.00    +0.000 A 
ATOM     31  C   UNL     1      -2.545  12.666  20.624  0.00  0.00    +0.000 A 
ATOM     32  C   UNL     1      -3.539  12.276  19.710  0.00  0.00    +0.000 A 
ATOM     33  C   UNL     1      -3.216  11.587  18.526  0.00  0.00    +0.000 A 
ATOM     34  C   UNL     1      -4.226  11.201  17.625  0.00  0.00    +0.000 A 
ATOM     35  C   UNL     1      -3.941  10.405  16.516  0.00  0.00    +0.000 A 
ATOM     36  C   UNL     1      -2.636  10.002  16.276  0.00  0.00    +0.000 A 
ATOM     37  C   UNL     1      -1.617  10.420  17.132  0.00  0.00    +0.000 A 
ATOM     38  C   UNL     1      -1.874  11.209  18.280  0.00  0.00    +0.000 A 
ENDBRANCH  24  25
ENDBRANCH   6  24
TORSDOF 7
ENDMDL
MODEL 8
REMARK VINA RESULT:      -8.9      1.156      2.097
REMARK  Name = 
REMARK  7 active torsions:
REMARK  status: ('A' for Active; 'I' for Inactive)
REMARK    1  A    between atoms: O5*_1  and  C5*_2
REMARK    2  A    between atoms: C5*_2  and  C4*_3
REMARK    3  A    between atoms: C1*_5  and  N_6
REMARK    4  A    between atoms: N_11  and  C_12
REMARK    5  A    between atoms: C_12  and  C_13
REMARK    6  A    between atoms: C2*_31  and  O2*_32
REMARK    7  A    between atoms: C3*_33  and  O3*_34
REMARK                            x       y       z     vdW  Elec       q    Type
REMARK                         _______ _______ _______ _____ _____    ______ ____
ROOT
ATOM      1  N   UNL     1       2.843   5.910  19.625  0.00  0.00    +0.000 N 
ATOM      2  C   UNL     1       2.125   5.958  20.791  0.00  0.00    +0.000 A 
ATOM      3  N   UNL     1       1.450   7.079  20.920  0.00  0.00    +0.000 NA
ATOM      4  C   UNL     1       1.760   7.792  19.782  0.00  0.00    +0.000 A 
ATOM      5  C   UNL     1       1.256   9.004  19.237  0.00  0.00    +0.000 A 
ATOM      6  N   UNL     1       0.192   9.679  19.807  0.00  0.00    +0.000 N 
ATOM      7  N   UNL     1       1.798   9.442  18.060  0.00  0.00    +0.000 NA
ATOM      8  C   UNL     1       2.725   8.695  17.450  0.00  0.00    +0.000 A 
ATOM      9  N   UNL     1       3.220   7.506  17.834  0.00  0.00    +0.000 NA
ATOM     10  C   UNL     1       2.679   7.117  19.003  0.00  0.00    +0.000 A 
ATOM     11  H   UNL     1       0.153   9.637  20.822  0.00  0.00    +0.000 HD
ENDROOT
BRANCH   1  14
ATOM     12  C4* UNL     1       5.398   4.271  17.840  0.00  0.00    +0.000 C 
ATOM     13  O4* UNL     1       4.892   4.874  19.052  0.00  0.00    +0.000 OA
ATOM     14  C1* UNL     1       3.459   4.722  19.070  0.00  0.00    +0.000 C 
ATOM     15  C2* UNL     1       3.011   4.375  17.647  0.00  0.00    +0.000 C 
ATOM     16  C3* UNL     1       4.212   3.599  17.134  0.00  0.00    +0.000 C 
BRANCH  15  17
ATOM     17  O2* UNL     1       1.823   3.581  17.628  0.00  0.00    +0.000 OA
ATOM     18  H2* UNL     1       2.110   2.669  17.849  0.00  0.00    +0.000 HD
ENDBRANCH  15  17
BRANCH  16  19
ATOM     19  O3* UNL     1       4.028   2.227  17.542  0.00  0.00    +0.000 OA
ATOM     20  H3* UNL     1       3.790   1.694  16.763  0.00  0.00    +0.000 HD
ENDBRANCH  16  19
BRANCH  12  21
ATOM     21  C5* UNL     1       6.098   5.333  16.987  0.00  0.00    +0.000 C 
BRANCH  21  22
ATOM     22  O5* UNL     1       6.012   6.604  17.619  0.00  0.00    +0.000 OA
ATOM     23  H5* UNL     1       6.704   7.169  17.229  0.00  0.00    +0.000 HD
ENDBRANCH  21  22
ENDBRANCH  12  21
ENDBRANCH   1  14
BRANCH   6  24
ATOM     24  C   UNL     1      -0.205  10.893  19.140  0.00  0.00    +0.000 C 
BRANCH  24  25
ATOM     25  C   UNL     1      -1.675  11.254  19.309  0.00  0.00    +0.000 A 
ATOM     26  C   UNL     1      -2.515  10.858  18.238  0.00  0.00    +0.000 A 
ATOM     27  C   UNL     1      -2.131   9.872  17.310  0.00  0.00    +0.000 A 
ATOM     28  C   UNL     1      -2.604   9.917  16.011  0.00  0.00    +0.000 A 
ATOM     29  C   UNL     1      -3.623  10.802  15.699  0.00  0.00    +0.000 A 
ATOM     30  C   UNL     1      -4.253  11.521  16.723  0.00  0.00    +0.000 A 
ATOM     31  C   UNL     1      -3.703  11.556  18.017  0.00  0.00    +0.000 A 
ATOM     32  C   UNL     1      -4.238  12.321  19.069  0.00  0.00    +0.000 A 
ATOM     33  C   UNL     1      -3.515  12.538  20.257  0.00  0.00    +0.000 A 
ATOM     34  C   UNL     1      -4.066  13.309  21.297  0.00  0.00    +0.000 A 
ATOM     35  C   UNL     1      -3.316  13.645  22.424  0.00  0.00    +0.000 A 
ATOM     36  C   UNL     1      -2.010  13.193  22.540  0.00  0.00    +0.000 A 
ATOM     37  C   UNL     1      -1.469  12.384  21.541  0.00  0.00    +0.000 A 
ATOM     38  C   UNL     1      -2.194  12.044  20.373  0.00  0.00    +0.000 A 
ENDBRANCH  24  25
ENDBRANCH   6  24
TORSDOF 7
ENDMDL
MODEL 9
REMARK VINA RESULT:      -8.9      0.880      1.148
REMARK  Name = 
REMARK  7 active torsions:
REMARK  status: ('A' for Active; 'I' for Inactive)
REMARK    1  A    between atoms: O5*_1  and  C5*_2
REMARK    2  A    between atoms: C5*_2  and  C4*_3
REMARK    3  A    between atoms: C1*_5  and  N_6
REMARK    4  A    between atoms: N_11  and  C_12
REMARK    5  A    between atoms: C_12  and  C_13
REMARK    6  A    between atoms: C2*_31  and  O2*_32
REMARK    7  A    between atoms: C3*_33  and  O3*_34
REMARK                            x       y       z     vdW  Elec       q    Type
REMARK                         _______ _______ _______ _____ _____    ______ ____
ROOT
ATOM      1  N   UNL     1       2.639   6.302  19.300  0.00  0.00    +0.000 N 
ATOM      2  C   UNL     1       2.000   6.176  20.506  0.00  0.00    +0.000 A 
ATOM      3  N   UNL     1       1.352   7.268  20.847  0.00  0.00    +0.000 NA
ATOM      4  C   UNL     1       1.596   8.144  19.813  0.00  0.00    +0.000 A 
ATOM      5  C   UNL     1       1.076   9.427  19.492  0.00  0.00    +0.000 A 
ATOM      6  N   UNL     1       0.062  10.012  20.228  0.00  0.00    +0.000 N 
ATOM      7  N   UNL     1       1.545  10.036  18.362  0.00  0.00    +0.000 NA
ATOM      8  C   UNL     1       2.419   9.386  17.584  0.00  0.00    +0.000 A 
ATOM      9  N   UNL     1       2.920   8.151  17.750  0.00  0.00    +0.000 NA
ATOM     10  C   UNL     1       2.452   7.591  18.880  0.00  0.00    +0.000 A 
ATOM     11  H   UNL     1       0.089   9.816  21.226  0.00  0.00    +0.000 HD
ENDROOT
BRANCH   1  14
ATOM     12  C4* UNL     1       3.794   2.991  18.980  0.00  0.00    +0.000 C 
ATOM     13  O4* UNL     1       2.715   3.951  19.039  0.00  0.00    +0.000 OA
ATOM     14  C1* UNL     1       3.200   5.210  18.532  0.00  0.00    +0.000 C 
ATOM     15  C2* UNL     1       4.731   5.151  18.530  0.00  0.00    +0.000 C 
ATOM     16  C3* UNL     1       4.975   3.674  18.277  0.00  0.00    +0.000 C 
BRANCH  15  17
ATOM     17  O2* UNL     1       5.306   5.965  17.506  0.00  0.00    +0.000 OA
ATOM     18  H2* UNL     1       5.747   6.707  17.974  0.00  0.00    +0.000 HD
ENDBRANCH  15  17
BRANCH  16  19
ATOM     19  O3* UNL     1       4.952   3.486  16.845  0.00  0.00    +0.000 OA
ATOM     20  H3* UNL     1       5.149   2.554  16.645  0.00  0.00    +0.000 HD
ENDBRANCH  16  19
BRANCH  12  21
ATOM     21  C5* UNL     1       4.124   2.496  20.391  0.00  0.00    +0.000 C 
BRANCH  21  22
ATOM     22  O5* UNL     1       5.219   1.589  20.348  0.00  0.00    +0.000 OA
ATOM     23  H5* UNL     1       5.259   1.143  21.214  0.00  0.00    +0.000 HD
ENDBRANCH  21  22
ENDBRANCH  12  21
ENDBRANCH   1  14
BRANCH   6  24
ATOM     24  C   UNL     1      -0.361  11.315  19.781  0.00  0.00    +0.000 C 
BRANCH  24  25
ATOM     25  C   UNL     1      -1.868  11.534  19.810  0.00  0.00    +0.000 A 
ATOM     26  C   UNL     1      -2.560  11.075  18.661  0.00  0.00    +0.000 A 
ATOM     27  C   UNL     1      -1.999  10.141  17.771  0.00  0.00    +0.000 A 
ATOM     28  C   UNL     1      -2.348  10.158  16.432  0.00  0.00    +0.000 A 
ATOM     29  C   UNL     1      -3.412  10.948  16.028  0.00  0.00    +0.000 A 
ATOM     30  C   UNL     1      -4.201  11.591  16.989  0.00  0.00    +0.000 A 
ATOM     31  C   UNL     1      -3.783  11.661  18.330  0.00  0.00    +0.000 A 
ATOM     32  C   UNL     1      -4.486  12.359  19.329  0.00  0.00    +0.000 A 
ATOM     33  C   UNL     1      -3.903  12.628  20.582  0.00  0.00    +0.000 A 
ATOM     34  C   UNL     1      -4.621  13.331  21.567  0.00  0.00    +0.000 A 
ATOM     35  C   UNL     1      -4.017  13.721  22.762  0.00  0.00    +0.000 A 
ATOM     36  C   UNL     1      -2.691  13.392  23.001  0.00  0.00    +0.000 A 
ATOM     37  C   UNL     1      -1.983  12.651  22.056  0.00  0.00    +0.000 A 
ATOM     38  C   UNL     1      -2.558  12.258  20.822  0.00  0.00    +0.000 A 
ENDBRANCH  24  25
ENDBRANCH   6  24
TORSDOF 7
ENDMDL
