MODEL 1
REMARK VINA RESULT:      -8.0      0.000      0.000
REMARK  Name = 
REMARK  10 active torsions:
REMARK  status: ('A' for Active; 'I' for Inactive)
REMARK    1  A    between atoms: C_1  and  C_2
REMARK    2  A    between atoms: C_7  and  N_8
REMARK    3  A    between atoms: C_9  and  C_11
REMARK    4  A    between atoms: C_11  and  C_12
REMARK    5  A    between atoms: C_14  and  C_15
REMARK    6  A    between atoms: C_15  and  O_16
REMARK    7  A    between atoms: O_16  and  C_17
REMARK    8  A    between atoms: C_17  and  C_19
REMARK    9  A    between atoms: C_19  and  C_20
REMARK   10  A    between atoms: C_24  and  C_25
REMARK                            x       y       z     vdW  Elec       q    Type
REMARK                         _______ _______ _______ _____ _____    ______ ____
ROOT
ATOM      1  C   UNL     1       2.017   8.989  18.245  0.00  0.00    +0.000 A 
ATOM      2  N   UNL     1       2.856   8.467  17.371  0.00  0.00    +0.000 NA
ATOM      3  C   UNL     1       3.319   7.238  17.835  0.00  0.00    +0.000 A 
ATOM      4  C   UNL     1       2.826   6.863  19.070  0.00  0.00    +0.000 A 
ATOM      5  S   UNL     1       1.747   8.039  19.663  0.00  0.00    +0.000 S 
ENDROOT
BRANCH   1   6
ATOM      6  C   UNL     1       1.290  10.287  18.147  0.00  0.00    +0.000 C 
BRANCH   6   8
ATOM      7  N   UNL     1       0.280  11.209  20.236  0.00  0.00    +0.000 N 
ATOM      8  C   UNL     1       0.101  10.516  19.053  0.00  0.00    +0.000 C 
ATOM      9  O   UNL     1      -0.983  10.080  18.653  0.00  0.00    +0.000 OA
ATOM     10  H   UNL     1       1.201  11.622  20.376  0.00  0.00    +0.000 HD
BRANCH   7  17
ATOM     11  C   UNL     1       0.008   9.739  22.773  0.00  0.00    +0.000 C 
ATOM     12  C   UNL     1      -0.868  10.897  22.379  0.00  0.00    +0.000 A 
ATOM     13  C   UNL     1      -1.803  11.365  23.322  0.00  0.00    +0.000 A 
ATOM     14  C   UNL     1      -2.646  12.443  23.035  0.00  0.00    +0.000 A 
ATOM     15  C   UNL     1      -2.585  13.048  21.792  0.00  0.00    +0.000 A 
ATOM     16  C   UNL     1      -1.648  12.608  20.858  0.00  0.00    +0.000 A 
ATOM     17  C   UNL     1      -0.744  11.571  21.145  0.00  0.00    +0.000 A 
ENDBRANCH   7  17
ENDBRANCH   6   8
ENDBRANCH   1   6
BRANCH   3  18
ATOM     18  C   UNL     1       4.277   6.440  17.006  0.00  0.00    +0.000 C 
BRANCH  18  19
ATOM     19  O   UNL     1       5.527   6.170  17.668  0.00  0.00    +0.000 OA
BRANCH  19  20
ATOM     20  C   UNL     1       5.639   4.925  18.211  0.00  0.00    +0.000 C 
ATOM     21  O   UNL     1       6.382   4.624  19.138  0.00  0.00    +0.000 OA
BRANCH  20  22
ATOM     22  C   UNL     1       4.793   3.923  17.466  0.00  0.00    +0.000 C 
BRANCH  22  23
ATOM     23  C   UNL     1       3.481   3.585  18.126  0.00  0.00    +0.000 A 
ATOM     24  C   UNL     1       2.297   3.499  17.382  0.00  0.00    +0.000 A 
ATOM     25  C   UNL     1       1.087   3.195  18.010  0.00  0.00    +0.000 A 
ATOM     26  C   UNL     1       1.046   2.977  19.387  0.00  0.00    +0.000 A 
ATOM     27  C   UNL     1       2.213   3.080  20.155  0.00  0.00    +0.000 A 
ATOM     28  C   UNL     1       3.423   3.389  19.512  0.00  0.00    +0.000 A 
BRANCH  27  29
ATOM     29  C   UNL     1       2.198   2.866  21.648  0.00  0.00    +0.000 C 
ATOM     30  F   UNL     1       2.406   4.000  22.372  0.00  0.00    +0.000 F 
ATOM     31  F   UNL     1       1.013   2.353  22.085  0.00  0.00    +0.000 F 
ATOM     32  F   UNL     1       3.154   1.984  22.054  0.00  0.00    +0.000 F 
ENDBRANCH  27  29
ENDBRANCH  22  23
ENDBRANCH  20  22
ENDBRANCH  19  20
ENDBRANCH  18  19
ENDBRANCH   3  18
TORSDOF 9
ENDMDL
MODEL 2
REMARK VINA RESULT:      -7.9      3.665      4.879
REMARK  Name = 
REMARK  10 active torsions:
REMARK  status: ('A' for Active; 'I' for Inactive)
REMARK    1  A    between atoms: C_1  and  C_2
REMARK    2  A    between atoms: C_7  and  N_8
REMARK    3  A    between atoms: C_9  and  C_11
REMARK    4  A    between atoms: C_11  and  C_12
REMARK    5  A    between atoms: C_14  and  C_15
REMARK    6  A    between atoms: C_15  and  O_16
REMARK    7  A    between atoms: O_16  and  C_17
REMARK    8  A    between atoms: C_17  and  C_19
REMARK    9  A    between atoms: C_19  and  C_20
REMARK   10  A    between atoms: C_24  and  C_25
REMARK                            x       y       z     vdW  Elec       q    Type
REMARK                         _______ _______ _______ _____ _____    ______ ____
ROOT
ATOM      1  C   UNL     1       1.555   9.182  19.570  0.00  0.00    +0.000 A 
ATOM      2  N   UNL     1       1.649   8.083  20.294  0.00  0.00    +0.000 NA
ATOM      3  C   UNL     1       2.154   7.045  19.515  0.00  0.00    +0.000 A 
ATOM      4  C   UNL     1       2.417   7.383  18.201  0.00  0.00    +0.000 A 
ATOM      5  S   UNL     1       2.058   9.024  17.925  0.00  0.00    +0.000 S 
ENDROOT
BRANCH   1   6
ATOM      6  C   UNL     1       1.066  10.521  20.007  0.00  0.00    +0.000 C 
BRANCH   6   8
ATOM      7  N   UNL     1      -1.032  11.224  18.850  0.00  0.00    +0.000 N 
ATOM      8  C   UNL     1      -0.425  10.777  20.009  0.00  0.00    +0.000 C 
ATOM      9  O   UNL     1      -1.020  10.536  21.065  0.00  0.00    +0.000 OA
ATOM     10  H   UNL     1      -0.441  11.254  18.020  0.00  0.00    +0.000 HD
BRANCH   7  17
ATOM     11  C   UNL     1      -2.413   9.923  16.598  0.00  0.00    +0.000 C 
ATOM     12  C   UNL     1      -3.105  10.789  17.616  0.00  0.00    +0.000 A 
ATOM     13  C   UNL     1      -4.507  10.899  17.542  0.00  0.00    +0.000 A 
ATOM     14  C   UNL     1      -5.222  11.677  18.458  0.00  0.00    +0.000 A 
ATOM     15  C   UNL     1      -4.544  12.376  19.440  0.00  0.00    +0.000 A 
ATOM     16  C   UNL     1      -3.158  12.258  19.537  0.00  0.00    +0.000 A 
ATOM     17  C   UNL     1      -2.422  11.430  18.672  0.00  0.00    +0.000 A 
ENDBRANCH   7  17
ENDBRANCH   6   8
ENDBRANCH   1   6
BRANCH   3  18
ATOM     18  C   UNL     1       2.369   5.693  20.121  0.00  0.00    +0.000 C 
BRANCH  18  19
ATOM     19  O   UNL     1       1.571   4.657  19.518  0.00  0.00    +0.000 OA
BRANCH  19  20
ATOM     20  C   UNL     1       2.150   4.015  18.465  0.00  0.00    +0.000 C 
ATOM     21  O   UNL     1       1.655   3.899  17.351  0.00  0.00    +0.000 OA
BRANCH  20  22
ATOM     22  C   UNL     1       3.457   3.376  18.865  0.00  0.00    +0.000 C 
BRANCH  22  23
ATOM     23  C   UNL     1       4.685   4.026  18.282  0.00  0.00    +0.000 A 
ATOM     24  C   UNL     1       5.599   4.707  19.097  0.00  0.00    +0.000 A 
ATOM     25  C   UNL     1       6.728   5.314  18.540  0.00  0.00    +0.000 A 
ATOM     26  C   UNL     1       6.954   5.248  17.165  0.00  0.00    +0.000 A 
ATOM     27  C   UNL     1       6.042   4.592  16.328  0.00  0.00    +0.000 A 
ATOM     28  C   UNL     1       4.910   3.989  16.899  0.00  0.00    +0.000 A 
BRANCH  27  29
ATOM     29  C   UNL     1       6.252   4.519  14.836  0.00  0.00    +0.000 C 
ATOM     30  F   UNL     1       7.393   5.125  14.407  0.00  0.00    +0.000 F 
ATOM     31  F   UNL     1       6.317   3.234  14.387  0.00  0.00    +0.000 F 
ATOM     32  F   UNL     1       5.235   5.103  14.142  0.00  0.00    +0.000 F 
ENDBRANCH  27  29
ENDBRANCH  22  23
ENDBRANCH  20  22
ENDBRANCH  19  20
ENDBRANCH  18  19
ENDBRANCH   3  18
TORSDOF 9
ENDMDL
MODEL 3
REMARK VINA RESULT:      -7.9      7.359     10.351
REMARK  Name = 
REMARK  10 active torsions:
REMARK  status: ('A' for Active; 'I' for Inactive)
REMARK    1  A    between atoms: C_1  and  C_2
REMARK    2  A    between atoms: C_7  and  N_8
REMARK    3  A    between atoms: C_9  and  C_11
REMARK    4  A    between atoms: C_11  and  C_12
REMARK    5  A    between atoms: C_14  and  C_15
REMARK    6  A    between atoms: C_15  and  O_16
REMARK    7  A    between atoms: O_16  and  C_17
REMARK    8  A    between atoms: C_17  and  C_19
REMARK    9  A    between atoms: C_19  and  C_20
REMARK   10  A    between atoms: C_24  and  C_25
REMARK                            x       y       z     vdW  Elec       q    Type
REMARK                         _______ _______ _______ _____ _____    ______ ____
ROOT
ATOM      1  C   UNL     1       6.190   6.568  17.174  0.00  0.00    +0.000 A 
ATOM      2  N   UNL     1       6.669   7.790  17.042  0.00  0.00    +0.000 NA
ATOM      3  C   UNL     1       7.787   7.951  17.856  0.00  0.00    +0.000 A 
ATOM      4  C   UNL     1       8.121   6.840  18.606  0.00  0.00    +0.000 A 
ATOM      5  S   UNL     1       7.049   5.558  18.282  0.00  0.00    +0.000 S 
ENDROOT
BRANCH   1   6
ATOM      6  C   UNL     1       5.008   5.974  16.487  0.00  0.00    +0.000 C 
BRANCH   6   8
ATOM      7  N   UNL     1       3.864   5.271  18.593  0.00  0.00    +0.000 N 
ATOM      8  C   UNL     1       4.134   5.012  17.262  0.00  0.00    +0.000 C 
ATOM      9  O   UNL     1       3.687   4.050  16.630  0.00  0.00    +0.000 OA
ATOM     10  H   UNL     1       4.193   6.168  18.948  0.00  0.00    +0.000 HD
BRANCH   7  17
ATOM     11  C   UNL     1       4.805   2.711  19.703  0.00  0.00    +0.000 C 
ATOM     12  C   UNL     1       3.451   3.300  19.990  0.00  0.00    +0.000 A 
ATOM     13  C   UNL     1       2.630   2.637  20.922  0.00  0.00    +0.000 A 
ATOM     14  C   UNL     1       1.361   3.127  21.249  0.00  0.00    +0.000 A 
ATOM     15  C   UNL     1       0.888   4.270  20.629  0.00  0.00    +0.000 A 
ATOM     16  C   UNL     1       1.700   4.947  19.721  0.00  0.00    +0.000 A 
ATOM     17  C   UNL     1       3.004   4.514  19.425  0.00  0.00    +0.000 A 
ENDBRANCH   7  17
ENDBRANCH   6   8
ENDBRANCH   1   6
BRANCH   3  18
ATOM     18  C   UNL     1       8.520   9.256  17.868  0.00  0.00    +0.000 C 
BRANCH  18  19
ATOM     19  O   UNL     1       8.786   9.757  19.192  0.00  0.00    +0.000 OA
BRANCH  19  20
ATOM     20  C   UNL     1       9.729  10.738  19.264  0.00  0.00    +0.000 C 
ATOM     21  O   UNL     1      10.130  11.257  20.299  0.00  0.00    +0.000 OA
BRANCH  20  22
ATOM     22  C   UNL     1      10.163  11.183  17.889  0.00  0.00    +0.000 C 
BRANCH  22  23
ATOM     23  C   UNL     1      10.602  12.621  17.797  0.00  0.00    +0.000 A 
ATOM     24  C   UNL     1      11.939  12.956  17.545  0.00  0.00    +0.000 A 
ATOM     25  C   UNL     1      12.333  14.295  17.473  0.00  0.00    +0.000 A 
ATOM     26  C   UNL     1      11.396  15.312  17.655  0.00  0.00    +0.000 A 
ATOM     27  C   UNL     1      10.059  15.002  17.930  0.00  0.00    +0.000 A 
ATOM     28  C   UNL     1       9.676  13.653  18.003  0.00  0.00    +0.000 A 
BRANCH  27  29
ATOM     29  C   UNL     1       9.026  16.081  18.147  0.00  0.00    +0.000 C 
ATOM     30  F   UNL     1       9.153  17.144  17.306  0.00  0.00    +0.000 F 
ATOM     31  F   UNL     1       7.755  15.619  17.980  0.00  0.00    +0.000 F 
ATOM     32  F   UNL     1       9.071  16.595  19.408  0.00  0.00    +0.000 F 
ENDBRANCH  27  29
ENDBRANCH  22  23
ENDBRANCH  20  22
ENDBRANCH  19  20
ENDBRANCH  18  19
ENDBRANCH   3  18
TORSDOF 9
ENDMDL
MODEL 4
REMARK VINA RESULT:      -7.8      3.877      5.118
REMARK  Name = 
REMARK  10 active torsions:
REMARK  status: ('A' for Active; 'I' for Inactive)
REMARK    1  A    between atoms: C_1  and  C_2
REMARK    2  A    between atoms: C_7  and  N_8
REMARK    3  A    between atoms: C_9  and  C_11
REMARK    4  A    between atoms: C_11  and  C_12
REMARK    5  A    between atoms: C_14  and  C_15
REMARK    6  A    between atoms: C_15  and  O_16
REMARK    7  A    between atoms: O_16  and  C_17
REMARK    8  A    between atoms: C_17  and  C_19
REMARK    9  A    between atoms: C_19  and  C_20
REMARK   10  A    between atoms: C_24  and  C_25
REMARK                            x       y       z     vdW  Elec       q    Type
REMARK                         _______ _______ _______ _____ _____    ______ ____
ROOT
ATOM      1  C   UNL     1      -0.045  10.265  18.621  0.00  0.00    +0.000 A 
ATOM      2  N   UNL     1       0.821   9.487  18.001  0.00  0.00    +0.000 NA
ATOM      3  C   UNL     1       1.489   8.690  18.928  0.00  0.00    +0.000 A 
ATOM      4  C   UNL     1       1.118   8.898  20.243  0.00  0.00    +0.000 A 
ATOM      5  S   UNL     1      -0.099  10.085  20.338  0.00  0.00    +0.000 S 
ENDROOT
BRANCH   1   6
ATOM      6  C   UNL     1      -0.966  11.268  18.012  0.00  0.00    +0.000 C 
BRANCH   6   8
ATOM      7  N   UNL     1      -3.215  12.108  18.700  0.00  0.00    +0.000 N 
ATOM      8  C   UNL     1      -2.456  11.074  18.185  0.00  0.00    +0.000 C 
ATOM      9  O   UNL     1      -2.912   9.985  17.820  0.00  0.00    +0.000 OA
ATOM     10  H   UNL     1      -2.727  12.993  18.837  0.00  0.00    +0.000 HD
BRANCH   7  17
ATOM     11  C   UNL     1      -4.399  12.652  21.341  0.00  0.00    +0.000 C 
ATOM     12  C   UNL     1      -5.207  12.398  20.098  0.00  0.00    +0.000 A 
ATOM     13  C   UNL     1      -6.607  12.528  20.186  0.00  0.00    +0.000 A 
ATOM     14  C   UNL     1      -7.426  12.316  19.072  0.00  0.00    +0.000 A 
ATOM     15  C   UNL     1      -6.859  11.946  17.866  0.00  0.00    +0.000 A 
ATOM     16  C   UNL     1      -5.473  11.836  17.761  0.00  0.00    +0.000 A 
ATOM     17  C   UNL     1      -4.623  12.108  18.846  0.00  0.00    +0.000 A 
ENDBRANCH   7  17
ENDBRANCH   6   8
ENDBRANCH   1   6
BRANCH   3  18
ATOM     18  C   UNL     1       2.517   7.706  18.463  0.00  0.00    +0.000 C 
BRANCH  18  19
ATOM     19  O   UNL     1       2.886   6.741  19.466  0.00  0.00    +0.000 OA
BRANCH  19  20
ATOM     20  C   UNL     1       2.784   5.437  19.083  0.00  0.00    +0.000 C 
ATOM     21  O   UNL     1       1.812   4.939  18.527  0.00  0.00    +0.000 OA
BRANCH  20  22
ATOM     22  C   UNL     1       3.993   4.643  19.513  0.00  0.00    +0.000 C 
BRANCH  22  23
ATOM     23  C   UNL     1       5.236   4.892  18.700  0.00  0.00    +0.000 A 
ATOM     24  C   UNL     1       6.403   5.388  19.296  0.00  0.00    +0.000 A 
ATOM     25  C   UNL     1       7.546   5.623  18.527  0.00  0.00    +0.000 A 
ATOM     26  C   UNL     1       7.533   5.369  17.155  0.00  0.00    +0.000 A 
ATOM     27  C   UNL     1       6.371   4.895  16.533  0.00  0.00    +0.000 A 
ATOM     28  C   UNL     1       5.228   4.665  17.317  0.00  0.00    +0.000 A 
BRANCH  27  29
ATOM     29  C   UNL     1       6.322   4.626  15.050  0.00  0.00    +0.000 C 
ATOM     30  F   UNL     1       7.429   5.044  14.375  0.00  0.00    +0.000 F 
ATOM     31  F   UNL     1       6.190   3.299  14.770  0.00  0.00    +0.000 F 
ATOM     32  F   UNL     1       5.265   5.239  14.447  0.00  0.00    +0.000 F 
ENDBRANCH  27  29
ENDBRANCH  22  23
ENDBRANCH  20  22
ENDBRANCH  19  20
ENDBRANCH  18  19
ENDBRANCH   3  18
TORSDOF 9
ENDMDL
MODEL 5
REMARK VINA RESULT:      -7.8      5.904      9.360
REMARK  Name = 
REMARK  10 active torsions:
REMARK  status: ('A' for Active; 'I' for Inactive)
REMARK    1  A    between atoms: C_1  and  C_2
REMARK    2  A    between atoms: C_7  and  N_8
REMARK    3  A    between atoms: C_9  and  C_11
REMARK    4  A    between atoms: C_11  and  C_12
REMARK    5  A    between atoms: C_14  and  C_15
REMARK    6  A    between atoms: C_15  and  O_16
REMARK    7  A    between atoms: O_16  and  C_17
REMARK    8  A    between atoms: C_17  and  C_19
REMARK    9  A    between atoms: C_19  and  C_20
REMARK   10  A    between atoms: C_24  and  C_25
REMARK                            x       y       z     vdW  Elec       q    Type
REMARK                         _______ _______ _______ _____ _____    ______ ____
ROOT
ATOM      1  C   UNL     1       7.270   6.109  16.881  0.00  0.00    +0.000 A 
ATOM      2  N   UNL     1       7.441   7.414  16.786  0.00  0.00    +0.000 NA
ATOM      3  C   UNL     1       7.984   7.907  17.970  0.00  0.00    +0.000 A 
ATOM      4  C   UNL     1       8.198   6.955  18.949  0.00  0.00    +0.000 A 
ATOM      5  S   UNL     1       7.743   5.413  18.389  0.00  0.00    +0.000 S 
ENDROOT
BRANCH   1   6
ATOM      6  C   UNL     1       6.718   5.186  15.848  0.00  0.00    +0.000 C 
BRANCH   6   8
ATOM      7  N   UNL     1       4.930   4.498  17.450  0.00  0.00    +0.000 N 
ATOM      8  C   UNL     1       5.481   4.385  16.186  0.00  0.00    +0.000 C 
ATOM      9  O   UNL     1       5.016   3.687  15.279  0.00  0.00    +0.000 OA
ATOM     10  H   UNL     1       5.343   5.209  18.053  0.00  0.00    +0.000 HD
BRANCH   7  17
ATOM     11  C   UNL     1       2.548   6.149  17.967  0.00  0.00    +0.000 C 
ATOM     12  C   UNL     1       2.576   4.652  18.112  0.00  0.00    +0.000 A 
ATOM     13  C   UNL     1       1.366   3.998  18.414  0.00  0.00    +0.000 A 
ATOM     14  C   UNL     1       1.308   2.608  18.555  0.00  0.00    +0.000 A 
ATOM     15  C   UNL     1       2.464   1.858  18.423  0.00  0.00    +0.000 A 
ATOM     16  C   UNL     1       3.663   2.492  18.103  0.00  0.00    +0.000 A 
ATOM     17  C   UNL     1       3.735   3.879  17.890  0.00  0.00    +0.000 A 
ENDBRANCH   7  17
ENDBRANCH   6   8
ENDBRANCH   1   6
BRANCH   3  18
ATOM     18  C   UNL     1       8.287   9.367  18.102  0.00  0.00    +0.000 C 
BRANCH  18  19
ATOM     19  O   UNL     1       9.123   9.684  19.231  0.00  0.00    +0.000 OA
BRANCH  19  20
ATOM     20  C   UNL     1       9.883  10.806  19.095  0.00  0.00    +0.000 C 
ATOM     21  O   UNL     1      10.294  11.256  18.031  0.00  0.00    +0.000 OA
BRANCH  20  22
ATOM     22  C   UNL     1      10.242  11.392  20.438  0.00  0.00    +0.000 C 
BRANCH  22  23
ATOM     23  C   UNL     1       9.168  12.242  21.067  0.00  0.00    +0.000 A 
ATOM     24  C   UNL     1       8.865  13.514  20.566  0.00  0.00    +0.000 A 
ATOM     25  C   UNL     1       7.873  14.294  21.166  0.00  0.00    +0.000 A 
ATOM     26  C   UNL     1       7.176  13.812  22.274  0.00  0.00    +0.000 A 
ATOM     27  C   UNL     1       7.477  12.552  22.806  0.00  0.00    +0.000 A 
ATOM     28  C   UNL     1       8.478  11.778  22.196  0.00  0.00    +0.000 A 
BRANCH  27  29
ATOM     29  C   UNL     1       6.751  12.010  24.013  0.00  0.00    +0.000 C 
ATOM     30  F   UNL     1       7.497  11.159  24.771  0.00  0.00    +0.000 F 
ATOM     31  F   UNL     1       6.338  12.998  24.854  0.00  0.00    +0.000 F 
ATOM     32  F   UNL     1       5.627  11.319  23.673  0.00  0.00    +0.000 F 
ENDBRANCH  27  29
ENDBRANCH  22  23
ENDBRANCH  20  22
ENDBRANCH  19  20
ENDBRANCH  18  19
ENDBRANCH   3  18
TORSDOF 9
ENDMDL
MODEL 6
REMARK VINA RESULT:      -7.8      3.164      4.139
REMARK  Name = 
REMARK  10 active torsions:
REMARK  status: ('A' for Active; 'I' for Inactive)
REMARK    1  A    between atoms: C_1  and  C_2
REMARK    2  A    between atoms: C_7  and  N_8
REMARK    3  A    between atoms: C_9  and  C_11
REMARK    4  A    between atoms: C_11  and  C_12
REMARK    5  A    between atoms: C_14  and  C_15
REMARK    6  A    between atoms: C_15  and  O_16
REMARK    7  A    between atoms: O_16  and  C_17
REMARK    8  A    between atoms: C_17  and  C_19
REMARK    9  A    between atoms: C_19  and  C_20
REMARK   10  A    between atoms: C_24  and  C_25
REMARK                            x       y       z     vdW  Elec       q    Type
REMARK                         _______ _______ _______ _____ _____    ______ ____
ROOT
ATOM      1  C   UNL     1       1.810   8.905  18.882  0.00  0.00    +0.000 A 
ATOM      2  N   UNL     1       1.604   7.997  19.816  0.00  0.00    +0.000 NA
ATOM      3  C   UNL     1       2.223   6.802  19.460  0.00  0.00    +0.000 A 
ATOM      4  C   UNL     1       2.878   6.830  18.243  0.00  0.00    +0.000 A 
ATOM      5  S   UNL     1       2.749   8.372  17.533  0.00  0.00    +0.000 S 
ENDROOT
BRANCH   1   6
ATOM      6  C   UNL     1       1.329  10.316  18.861  0.00  0.00    +0.000 C 
BRANCH   6   8
ATOM      7  N   UNL     1       0.079  11.448  20.704  0.00  0.00    +0.000 N 
ATOM      8  C   UNL     1       0.038  10.645  19.579  0.00  0.00    +0.000 C 
ATOM      9  O   UNL     1      -0.996  10.184  19.083  0.00  0.00    +0.000 OA
ATOM     10  H   UNL     1       0.984  11.861  20.923  0.00  0.00    +0.000 HD
BRANCH   7  17
ATOM     11  C   UNL     1      -0.701  10.069  23.186  0.00  0.00    +0.000 C 
ATOM     12  C   UNL     1      -1.413  11.278  22.641  0.00  0.00    +0.000 A 
ATOM     13  C   UNL     1      -2.446  11.838  23.417  0.00  0.00    +0.000 A 
ATOM     14  C   UNL     1      -3.148  12.967  22.982  0.00  0.00    +0.000 A 
ATOM     15  C   UNL     1      -2.845  13.532  21.757  0.00  0.00    +0.000 A 
ATOM     16  C   UNL     1      -1.810  12.999  20.990  0.00  0.00    +0.000 A 
ATOM     17  C   UNL     1      -1.044  11.907  21.433  0.00  0.00    +0.000 A 
ENDBRANCH   7  17
ENDBRANCH   6   8
ENDBRANCH   1   6
BRANCH   3  18
ATOM     18  C   UNL     1       2.144   5.618  20.373  0.00  0.00    +0.000 C 
BRANCH  18  19
ATOM     19  O   UNL     1       1.766   4.399  19.707  0.00  0.00    +0.000 OA
BRANCH  19  20
ATOM     20  C   UNL     1       2.551   3.319  19.980  0.00  0.00    +0.000 C 
ATOM     21  O   UNL     1       2.734   2.844  21.095  0.00  0.00    +0.000 OA
BRANCH  20  22
ATOM     22  C   UNL     1       3.251   2.822  18.740  0.00  0.00    +0.000 C 
BRANCH  22  23
ATOM     23  C   UNL     1       4.449   3.633  18.319  0.00  0.00    +0.000 A 
ATOM     24  C   UNL     1       5.245   4.292  19.265  0.00  0.00    +0.000 A 
ATOM     25  C   UNL     1       6.347   5.049  18.859  0.00  0.00    +0.000 A 
ATOM     26  C   UNL     1       6.663   5.158  17.504  0.00  0.00    +0.000 A 
ATOM     27  C   UNL     1       5.868   4.527  16.539  0.00  0.00    +0.000 A 
ATOM     28  C   UNL     1       4.761   3.771  16.960  0.00  0.00    +0.000 A 
BRANCH  27  29
ATOM     29  C   UNL     1       6.175   4.639  15.066  0.00  0.00    +0.000 C 
ATOM     30  F   UNL     1       7.451   5.028  14.796  0.00  0.00    +0.000 F 
ATOM     31  F   UNL     1       5.995   3.458  14.410  0.00  0.00    +0.000 F 
ATOM     32  F   UNL     1       5.369   5.539  14.437  0.00  0.00    +0.000 F 
ENDBRANCH  27  29
ENDBRANCH  22  23
ENDBRANCH  20  22
ENDBRANCH  19  20
ENDBRANCH  18  19
ENDBRANCH   3  18
TORSDOF 9
ENDMDL
MODEL 7
REMARK VINA RESULT:      -7.8      3.474      4.596
REMARK  Name = 
REMARK  10 active torsions:
REMARK  status: ('A' for Active; 'I' for Inactive)
REMARK    1  A    between atoms: C_1  and  C_2
REMARK    2  A    between atoms: C_7  and  N_8
REMARK    3  A    between atoms: C_9  and  C_11
REMARK    4  A    between atoms: C_11  and  C_12
REMARK    5  A    between atoms: C_14  and  C_15
REMARK    6  A    between atoms: C_15  and  O_16
REMARK    7  A    between atoms: O_16  and  C_17
REMARK    8  A    between atoms: C_17  and  C_19
REMARK    9  A    between atoms: C_19  and  C_20
REMARK   10  A    between atoms: C_24  and  C_25
REMARK                            x       y       z     vdW  Elec       q    Type
REMARK                         _______ _______ _______ _____ _____    ______ ____
ROOT
ATOM      1  C   UNL     1       1.200  10.066  19.525  0.00  0.00    +0.000 A 
ATOM      2  N   UNL     1       1.231   9.143  20.467  0.00  0.00    +0.000 NA
ATOM      3  C   UNL     1       1.724   7.950  19.946  0.00  0.00    +0.000 A 
ATOM      4  C   UNL     1       2.044   7.994  18.603  0.00  0.00    +0.000 A 
ATOM      5  S   UNL     1       1.754   9.549  17.972  0.00  0.00    +0.000 S 
ENDROOT
BRANCH   1   6
ATOM      6  C   UNL     1       0.746  11.480  19.650  0.00  0.00    +0.000 C 
BRANCH   6   8
ATOM      7  N   UNL     1      -1.648  11.096  19.051  0.00  0.00    +0.000 N 
ATOM      8  C   UNL     1      -0.524  11.893  18.938  0.00  0.00    +0.000 C 
ATOM      9  O   UNL     1      -0.478  12.955  18.309  0.00  0.00    +0.000 OA
ATOM     10  H   UNL     1      -1.579  10.318  19.706  0.00  0.00    +0.000 HD
BRANCH   7  17
ATOM     11  C   UNL     1      -2.358  10.094  16.375  0.00  0.00    +0.000 C 
ATOM     12  C   UNL     1      -3.293  10.888  17.246  0.00  0.00    +0.000 A 
ATOM     13  C   UNL     1      -4.614  11.074  16.795  0.00  0.00    +0.000 A 
ATOM     14  C   UNL     1      -5.544  11.793  17.552  0.00  0.00    +0.000 A 
ATOM     15  C   UNL     1      -5.159  12.357  18.755  0.00  0.00    +0.000 A 
ATOM     16  C   UNL     1      -3.861  12.161  19.222  0.00  0.00    +0.000 A 
ATOM     17  C   UNL     1      -2.925  11.387  18.514  0.00  0.00    +0.000 A 
ENDBRANCH   7  17
ENDBRANCH   6   8
ENDBRANCH   1   6
BRANCH   3  18
ATOM     18  C   UNL     1       1.869   6.752  20.832  0.00  0.00    +0.000 C 
BRANCH  18  19
ATOM     19  O   UNL     1       0.936   5.697  20.533  0.00  0.00    +0.000 OA
BRANCH  19  20
ATOM     20  C   UNL     1       1.495   4.484  20.264  0.00  0.00    +0.000 C 
ATOM     21  O   UNL     1       0.874   3.468  19.977  0.00  0.00    +0.000 OA
BRANCH  20  22
ATOM     22  C   UNL     1       2.992   4.517  20.453  0.00  0.00    +0.000 C 
BRANCH  22  23
ATOM     23  C   UNL     1       3.793   4.447  19.179  0.00  0.00    +0.000 A 
ATOM     24  C   UNL     1       3.220   3.985  17.987  0.00  0.00    +0.000 A 
ATOM     25  C   UNL     1       3.978   3.917  16.816  0.00  0.00    +0.000 A 
ATOM     26  C   UNL     1       5.318   4.306  16.824  0.00  0.00    +0.000 A 
ATOM     27  C   UNL     1       5.919   4.749  18.008  0.00  0.00    +0.000 A 
ATOM     28  C   UNL     1       5.147   4.811  19.180  0.00  0.00    +0.000 A 
BRANCH  27  29
ATOM     29  C   UNL     1       7.370   5.162  18.052  0.00  0.00    +0.000 C 
ATOM     30  F   UNL     1       7.651   6.272  17.314  0.00  0.00    +0.000 F 
ATOM     31  F   UNL     1       7.791   5.436  19.318  0.00  0.00    +0.000 F 
ATOM     32  F   UNL     1       8.200   4.186  17.588  0.00  0.00    +0.000 F 
ENDBRANCH  27  29
ENDBRANCH  22  23
ENDBRANCH  20  22
ENDBRANCH  19  20
ENDBRANCH  18  19
ENDBRANCH   3  18
TORSDOF 9
ENDMDL
MODEL 8
REMARK VINA RESULT:      -7.8      3.541      4.788
REMARK  Name = 
REMARK  10 active torsions:
REMARK  status: ('A' for Active; 'I' for Inactive)
REMARK    1  A    between atoms: C_1  and  C_2
REMARK    2  A    between atoms: C_7  and  N_8
REMARK    3  A    between atoms: C_9  and  C_11
REMARK    4  A    between atoms: C_11  and  C_12
REMARK    5  A    between atoms: C_14  and  C_15
REMARK    6  A    between atoms: C_15  and  O_16
REMARK    7  A    between atoms: O_16  and  C_17
REMARK    8  A    between atoms: C_17  and  C_19
REMARK    9  A    between atoms: C_19  and  C_20
REMARK   10  A    between atoms: C_24  and  C_25
REMARK                            x       y       z     vdW  Elec       q    Type
REMARK                         _______ _______ _______ _____ _____    ______ ____
ROOT
ATOM      1  C   UNL     1       1.820   7.228  20.495  0.00  0.00    +0.000 A 
ATOM      2  N   UNL     1       1.732   5.932  20.725  0.00  0.00    +0.000 NA
ATOM      3  C   UNL     1       2.064   5.223  19.574  0.00  0.00    +0.000 A 
ATOM      4  C   UNL     1       2.385   6.008  18.483  0.00  0.00    +0.000 A 
ATOM      5  S   UNL     1       2.299   7.659  18.892  0.00  0.00    +0.000 S 
ENDROOT
BRANCH   1   6
ATOM      6  C   UNL     1       1.554   8.342  21.449  0.00  0.00    +0.000 C 
BRANCH   6   8
ATOM      7  N   UNL     1       0.275  10.359  20.719  0.00  0.00    +0.000 N 
ATOM      8  C   UNL     1       0.258   9.111  21.313  0.00  0.00    +0.000 C 
ATOM      9  O   UNL     1      -0.759   8.546  21.728  0.00  0.00    +0.000 OA
ATOM     10  H   UNL     1       1.163  10.645  20.307  0.00  0.00    +0.000 HD
BRANCH   7  17
ATOM     11  C   UNL     1      -0.981  10.242  18.058  0.00  0.00    +0.000 C 
ATOM     12  C   UNL     1      -1.493  11.094  19.189  0.00  0.00    +0.000 A 
ATOM     13  C   UNL     1      -2.698  11.795  18.990  0.00  0.00    +0.000 A 
ATOM     14  C   UNL     1      -3.242  12.600  19.996  0.00  0.00    +0.000 A 
ATOM     15  C   UNL     1      -2.575  12.736  21.201  0.00  0.00    +0.000 A 
ATOM     16  C   UNL     1      -1.393  12.029  21.417  0.00  0.00    +0.000 A 
ATOM     17  C   UNL     1      -0.860  11.162  20.448  0.00  0.00    +0.000 A 
ENDBRANCH   7  17
ENDBRANCH   6   8
ENDBRANCH   1   6
BRANCH   3  18
ATOM     18  C   UNL     1       2.053   3.726  19.590  0.00  0.00    +0.000 C 
BRANCH  18  19
ATOM     19  O   UNL     1       3.027   3.151  20.482  0.00  0.00    +0.000 OA
BRANCH  19  20
ATOM     20  C   UNL     1       4.057   2.497  19.875  0.00  0.00    +0.000 C 
ATOM     21  O   UNL     1       4.940   1.878  20.456  0.00  0.00    +0.000 OA
BRANCH  20  22
ATOM     22  C   UNL     1       4.033   2.704  18.381  0.00  0.00    +0.000 C 
BRANCH  22  23
ATOM     23  C   UNL     1       5.060   3.675  17.858  0.00  0.00    +0.000 A 
ATOM     24  C   UNL     1       5.747   4.537  18.723  0.00  0.00    +0.000 A 
ATOM     25  C   UNL     1       6.689   5.439  18.222  0.00  0.00    +0.000 A 
ATOM     26  C   UNL     1       6.952   5.492  16.853  0.00  0.00    +0.000 A 
ATOM     27  C   UNL     1       6.261   4.656  15.967  0.00  0.00    +0.000 A 
ATOM     28  C   UNL     1       5.314   3.755  16.482  0.00  0.00    +0.000 A 
BRANCH  27  29
ATOM     29  C   UNL     1       6.512   4.701  14.480  0.00  0.00    +0.000 C 
ATOM     30  F   UNL     1       7.739   5.183  14.141  0.00  0.00    +0.000 F 
ATOM     31  F   UNL     1       6.419   3.470  13.903  0.00  0.00    +0.000 F 
ATOM     32  F   UNL     1       5.609   5.485  13.826  0.00  0.00    +0.000 F 
ENDBRANCH  27  29
ENDBRANCH  22  23
ENDBRANCH  20  22
ENDBRANCH  19  20
ENDBRANCH  18  19
ENDBRANCH   3  18
TORSDOF 9
ENDMDL
MODEL 9
REMARK VINA RESULT:      -7.7      6.495      9.521
REMARK  Name = 
REMARK  10 active torsions:
REMARK  status: ('A' for Active; 'I' for Inactive)
REMARK    1  A    between atoms: C_1  and  C_2
REMARK    2  A    between atoms: C_7  and  N_8
REMARK    3  A    between atoms: C_9  and  C_11
REMARK    4  A    between atoms: C_11  and  C_12
REMARK    5  A    between atoms: C_14  and  C_15
REMARK    6  A    between atoms: C_15  and  O_16
REMARK    7  A    between atoms: O_16  and  C_17
REMARK    8  A    between atoms: C_17  and  C_19
REMARK    9  A    between atoms: C_19  and  C_20
REMARK   10  A    between atoms: C_24  and  C_25
REMARK                            x       y       z     vdW  Elec       q    Type
REMARK                         _______ _______ _______ _____ _____    ______ ____
ROOT
ATOM      1  C   UNL     1       6.815   6.570  17.418  0.00  0.00    +0.000 A 
ATOM      2  N   UNL     1       7.046   7.836  17.130  0.00  0.00    +0.000 NA
ATOM      3  C   UNL     1       8.021   8.346  17.984  0.00  0.00    +0.000 A 
ATOM      4  C   UNL     1       8.498   7.447  18.919  0.00  0.00    +0.000 A 
ATOM      5  S   UNL     1       7.746   5.931  18.725  0.00  0.00    +0.000 S 
ENDROOT
BRANCH   1   6
ATOM      6  C   UNL     1       5.853   5.646  16.752  0.00  0.00    +0.000 C 
BRANCH   6   8
ATOM      7  N   UNL     1       4.365   4.389  18.316  0.00  0.00    +0.000 N 
ATOM      8  C   UNL     1       4.507   5.419  17.403  0.00  0.00    +0.000 C 
ATOM      9  O   UNL     1       3.608   6.206  17.089  0.00  0.00    +0.000 OA
ATOM     10  H   UNL     1       5.222   3.903  18.575  0.00  0.00    +0.000 HD
BRANCH   7  17
ATOM     11  C   UNL     1       2.714   2.061  17.594  0.00  0.00    +0.000 C 
ATOM     12  C   UNL     1       2.413   2.973  18.752  0.00  0.00    +0.000 A 
ATOM     13  C   UNL     1       1.338   2.632  19.595  0.00  0.00    +0.000 A 
ATOM     14  C   UNL     1       1.001   3.425  20.697  0.00  0.00    +0.000 A 
ATOM     15  C   UNL     1       1.717   4.581  20.953  0.00  0.00    +0.000 A 
ATOM     16  C   UNL     1       2.797   4.917  20.138  0.00  0.00    +0.000 A 
ATOM     17  C   UNL     1       3.198   4.103  19.064  0.00  0.00    +0.000 A 
ENDBRANCH   7  17
ENDBRANCH   6   8
ENDBRANCH   1   6
BRANCH   3  18
ATOM     18  C   UNL     1       8.468   9.767  17.842  0.00  0.00    +0.000 C 
BRANCH  18  19
ATOM     19  O   UNL     1       9.464  10.157  18.807  0.00  0.00    +0.000 OA
BRANCH  19  20
ATOM     20  C   UNL     1       9.617  11.501  18.974  0.00  0.00    +0.000 C 
ATOM     21  O   UNL     1       9.145  12.361  18.240  0.00  0.00    +0.000 OA
BRANCH  20  22
ATOM     22  C   UNL     1      10.526  11.810  20.137  0.00  0.00    +0.000 C 
BRANCH  22  23
ATOM     23  C   UNL     1       9.952  12.759  21.157  0.00  0.00    +0.000 A 
ATOM     24  C   UNL     1      10.335  14.106  21.189  0.00  0.00    +0.000 A 
ATOM     25  C   UNL     1       9.801  14.971  22.147  0.00  0.00    +0.000 A 
ATOM     26  C   UNL     1       8.882  14.500  23.084  0.00  0.00    +0.000 A 
ATOM     27  C   UNL     1       8.502  13.152  23.086  0.00  0.00    +0.000 A 
ATOM     28  C   UNL     1       9.047  12.291  22.120  0.00  0.00    +0.000 A 
BRANCH  27  29
ATOM     29  C   UNL     1       7.522  12.609  24.097  0.00  0.00    +0.000 C 
ATOM     30  F   UNL     1       7.403  11.252  24.078  0.00  0.00    +0.000 F 
ATOM     31  F   UNL     1       7.862  12.938  25.375  0.00  0.00    +0.000 F 
ATOM     32  F   UNL     1       6.263  13.096  23.911  0.00  0.00    +0.000 F 
ENDBRANCH  27  29
ENDBRANCH  22  23
ENDBRANCH  20  22
ENDBRANCH  19  20
ENDBRANCH  18  19
ENDBRANCH   3  18
TORSDOF 9
ENDMDL
