MODEL 1
REMARK VINA RESULT:      -8.5      0.000      0.000
REMARK  Name = 
REMARK  2 active torsions:
REMARK  status: ('A' for Active; 'I' for Inactive)
REMARK    1  A    between atoms: C_3  and  C_4
REMARK    2  A    between atoms: N_5  and  N_6
REMARK                            x       y       z     vdW  Elec       q    Type
REMARK                         _______ _______ _______ _____ _____    ______ ____
ROOT
ATOM      1  N   UNL     1       2.756   8.468  17.533  0.00  0.00    +0.000 N 
ATOM      2  C   UNL     1       3.360   7.193  17.444  0.00  0.00    +0.000 A 
ATOM      3  N   UNL     1       2.780   6.137  18.049  0.00  0.00    +0.000 NA
ATOM      4  C   UNL     1       3.352   4.913  18.016  0.00  0.00    +0.000 A 
ATOM      5  N   UNL     1       2.727   3.846  18.631  0.00  0.00    +0.000 N 
ATOM      6  C   UNL     1       1.265   3.807  18.715  0.00  0.00    +0.000 C 
ATOM      7  C   UNL     1       0.777   3.823  20.170  0.00  0.00    +0.000 C 
ATOM      8  O   UNL     1       1.438   2.824  20.965  0.00  0.00    +0.000 OA
ATOM      9  C   UNL     1       2.850   3.077  20.981  0.00  0.00    +0.000 C 
ATOM     10  C   UNL     1       3.458   2.995  19.573  0.00  0.00    +0.000 C 
ATOM     11  C   UNL     1       4.541   4.793  17.279  0.00  0.00    +0.000 A 
ATOM     12  S   UNL     1       5.504   3.401  16.923  0.00  0.00    +0.000 S 
ATOM     13  C   UNL     1       6.626   4.305  16.015  0.00  0.00    +0.000 A 
ATOM     14  C   UNL     1       6.273   5.632  15.946  0.00  0.00    +0.000 A 
ATOM     15  C   UNL     1       5.072   5.921  16.664  0.00  0.00    +0.000 A 
ATOM     16  N   UNL     1       4.495   7.143  16.745  0.00  0.00    +0.000 NA
ATOM     17  H   UNL     1       3.441   9.144  17.202  0.00  0.00    +0.000 HD
ENDROOT
BRANCH   1  19
ATOM     18  C   UNL     1       1.300   9.803  18.614  0.00  0.00    +0.000 C 
ATOM     19  N   UNL     1       2.038   8.740  18.658  0.00  0.00    +0.000 NA
BRANCH  18  22
ATOM     20  O   UNL     1      -0.911  11.725  18.543  0.00  0.00    +0.000 OA
ATOM     21  C   UNL     1      -0.616  11.230  19.624  0.00  0.00    +0.000 A 
ATOM     22  C   UNL     1       0.473  10.242  19.759  0.00  0.00    +0.000 A 
ATOM     23  C   UNL     1       0.718   9.738  20.976  0.00  0.00    +0.000 A 
ATOM     24  O   UNL     1       0.053  10.049  22.138  0.00  0.00    +0.000 OA
ATOM     25  C   UNL     1      -0.948  10.983  22.063  0.00  0.00    +0.000 A 
ATOM     26  C   UNL     1      -1.595  11.314  23.254  0.00  0.00    +0.000 A 
ATOM     27  C   UNL     1      -2.618  12.261  23.248  0.00  0.00    +0.000 A 
ATOM     28  C   UNL     1      -2.996  12.877  22.052  0.00  0.00    +0.000 A 
ATOM     29  C   UNL     1      -2.351  12.545  20.858  0.00  0.00    +0.000 A 
ATOM     30  C   UNL     1      -1.324  11.595  20.868  0.00  0.00    +0.000 A 
ENDBRANCH  18  22
ENDBRANCH   1  19
TORSDOF 2
ENDMDL
MODEL 2
REMARK VINA RESULT:      -8.2      2.689      4.441
REMARK  Name = 
REMARK  2 active torsions:
REMARK  status: ('A' for Active; 'I' for Inactive)
REMARK    1  A    between atoms: C_3  and  C_4
REMARK    2  A    between atoms: N_5  and  N_6
REMARK                            x       y       z     vdW  Elec       q    Type
REMARK                         _______ _______ _______ _____ _____    ______ ____
ROOT
ATOM      1  N   UNL     1       1.599   6.894  20.941  0.00  0.00    +0.000 N 
ATOM      2  C   UNL     1       2.075   5.801  20.182  0.00  0.00    +0.000 A 
ATOM      3  N   UNL     1       3.206   5.933  19.460  0.00  0.00    +0.000 NA
ATOM      4  C   UNL     1       3.666   4.919  18.692  0.00  0.00    +0.000 A 
ATOM      5  N   UNL     1       4.836   5.077  17.976  0.00  0.00    +0.000 N 
ATOM      6  C   UNL     1       5.894   5.949  18.491  0.00  0.00    +0.000 C 
ATOM      7  C   UNL     1       6.170   7.129  17.551  0.00  0.00    +0.000 C 
ATOM      8  O   UNL     1       6.374   6.694  16.195  0.00  0.00    +0.000 OA
ATOM      9  C   UNL     1       5.196   6.029  15.719  0.00  0.00    +0.000 C 
ATOM     10  C   UNL     1       4.881   4.772  16.544  0.00  0.00    +0.000 C 
ATOM     11  C   UNL     1       2.938   3.719  18.732  0.00  0.00    +0.000 A 
ATOM     12  S   UNL     1       3.253   2.192  17.982  0.00  0.00    +0.000 S 
ATOM     13  C   UNL     1       1.858   1.482  18.652  0.00  0.00    +0.000 A 
ATOM     14  C   UNL     1       1.174   2.361  19.456  0.00  0.00    +0.000 A 
ATOM     15  C   UNL     1       1.792   3.648  19.515  0.00  0.00    +0.000 A 
ATOM     16  N   UNL     1       1.335   4.692  20.245  0.00  0.00    +0.000 NA
ATOM     17  H   UNL     1       0.650   6.663  21.231  0.00  0.00    +0.000 HD
ENDROOT
BRANCH   1  19
ATOM     18  C   UNL     1       0.927   9.019  20.619  0.00  0.00    +0.000 C 
ATOM     19  N   UNL     1       1.870   8.143  20.472  0.00  0.00    +0.000 NA
BRANCH  18  22
ATOM     20  O   UNL     1       0.263  11.445  22.122  0.00  0.00    +0.000 OA
ATOM     21  C   UNL     1       0.686  11.576  20.981  0.00  0.00    +0.000 A 
ATOM     22  C   UNL     1       1.061  10.415  20.149  0.00  0.00    +0.000 A 
ATOM     23  C   UNL     1       1.531  10.649  18.917  0.00  0.00    +0.000 A 
ATOM     24  O   UNL     1       1.704  11.880  18.329  0.00  0.00    +0.000 OA
ATOM     25  C   UNL     1       1.342  12.985  19.056  0.00  0.00    +0.000 A 
ATOM     26  C   UNL     1       1.492  14.226  18.437  0.00  0.00    +0.000 A 
ATOM     27  C   UNL     1       1.137  15.389  19.119  0.00  0.00    +0.000 A 
ATOM     28  C   UNL     1       0.633  15.312  20.420  0.00  0.00    +0.000 A 
ATOM     29  C   UNL     1       0.485  14.070  21.042  0.00  0.00    +0.000 A 
ATOM     30  C   UNL     1       0.841  12.905  20.354  0.00  0.00    +0.000 A 
ENDBRANCH  18  22
ENDBRANCH   1  19
TORSDOF 2
ENDMDL
MODEL 3
REMARK VINA RESULT:      -7.9      6.119     11.087
REMARK  Name = 
REMARK  2 active torsions:
REMARK  status: ('A' for Active; 'I' for Inactive)
REMARK    1  A    between atoms: C_3  and  C_4
REMARK    2  A    between atoms: N_5  and  N_6
REMARK                            x       y       z     vdW  Elec       q    Type
REMARK                         _______ _______ _______ _____ _____    ______ ____
ROOT
ATOM      1  N   UNL     1      -3.509  12.396  23.940  0.00  0.00    +0.000 N 
ATOM      2  C   UNL     1      -4.582  13.141  23.400  0.00  0.00    +0.000 A 
ATOM      3  N   UNL     1      -5.308  12.624  22.388  0.00  0.00    +0.000 NA
ATOM      4  C   UNL     1      -6.315  13.327  21.822  0.00  0.00    +0.000 A 
ATOM      5  N   UNL     1      -7.053  12.767  20.798  0.00  0.00    +0.000 N 
ATOM      6  C   UNL     1      -7.253  11.316  20.753  0.00  0.00    +0.000 C 
ATOM      7  C   UNL     1      -6.635  10.695  19.494  0.00  0.00    +0.000 C 
ATOM      8  O   UNL     1      -7.050  11.383  18.301  0.00  0.00    +0.000 OA
ATOM      9  C   UNL     1      -6.623  12.751  18.361  0.00  0.00    +0.000 C 
ATOM     10  C   UNL     1      -7.261  13.494  19.544  0.00  0.00    +0.000 C 
ATOM     11  C   UNL     1      -6.594  14.586  22.378  0.00  0.00    +0.000 A 
ATOM     12  S   UNL     1      -7.842  15.724  22.006  0.00  0.00    +0.000 S 
ATOM     13  C   UNL     1      -7.313  16.821  23.196  0.00  0.00    +0.000 A 
ATOM     14  C   UNL     1      -6.232  16.335  23.892  0.00  0.00    +0.000 A 
ATOM     15  C   UNL     1      -5.816  15.047  23.434  0.00  0.00    +0.000 A 
ATOM     16  N   UNL     1      -4.789  14.336  23.956  0.00  0.00    +0.000 NA
ATOM     17  H   UNL     1      -2.974  13.032  24.529  0.00  0.00    +0.000 HD
ENDROOT
BRANCH   1  19
ATOM     18  C   UNL     1      -1.563  11.674  23.068  0.00  0.00    +0.000 C 
ATOM     19  N   UNL     1      -2.852  11.550  23.099  0.00  0.00    +0.000 NA
BRANCH  18  22
ATOM     20  O   UNL     1      -0.855  12.213  20.275  0.00  0.00    +0.000 OA
ATOM     21  C   UNL     1      -0.418  11.192  20.790  0.00  0.00    +0.000 A 
ATOM     22  C   UNL     1      -0.707  10.840  22.195  0.00  0.00    +0.000 A 
ATOM     23  C   UNL     1      -0.175   9.712  22.684  0.00  0.00    +0.000 A 
ATOM     24  O   UNL     1       0.627   8.826  22.005  0.00  0.00    +0.000 OA
ATOM     25  C   UNL     1       0.899   9.100  20.689  0.00  0.00    +0.000 A 
ATOM     26  C   UNL     1       1.687   8.178  20.000  0.00  0.00    +0.000 A 
ATOM     27  C   UNL     1       1.996   8.393  18.658  0.00  0.00    +0.000 A 
ATOM     28  C   UNL     1       1.517   9.531  18.003  0.00  0.00    +0.000 A 
ATOM     29  C   UNL     1       0.730  10.457  18.691  0.00  0.00    +0.000 A 
ATOM     30  C   UNL     1       0.421  10.236  20.038  0.00  0.00    +0.000 A 
ENDBRANCH  18  22
ENDBRANCH   1  19
TORSDOF 2
ENDMDL
MODEL 4
REMARK VINA RESULT:      -7.7      5.948     11.169
REMARK  Name = 
REMARK  2 active torsions:
REMARK  status: ('A' for Active; 'I' for Inactive)
REMARK    1  A    between atoms: C_3  and  C_4
REMARK    2  A    between atoms: N_5  and  N_6
REMARK                            x       y       z     vdW  Elec       q    Type
REMARK                         _______ _______ _______ _____ _____    ______ ____
ROOT
ATOM      1  N   UNL     1      -3.295  12.390  23.734  0.00  0.00    +0.000 N 
ATOM      2  C   UNL     1      -4.416  13.124  23.287  0.00  0.00    +0.000 A 
ATOM      3  N   UNL     1      -5.207  12.612  22.322  0.00  0.00    +0.000 NA
ATOM      4  C   UNL     1      -6.264  13.306  21.845  0.00  0.00    +0.000 A 
ATOM      5  N   UNL     1      -7.067  12.750  20.869  0.00  0.00    +0.000 N 
ATOM      6  C   UNL     1      -7.246  11.297  20.812  0.00  0.00    +0.000 C 
ATOM      7  C   UNL     1      -6.713  10.706  19.501  0.00  0.00    +0.000 C 
ATOM      8  O   UNL     1      -7.226  11.407  18.354  0.00  0.00    +0.000 OA
ATOM      9  C   UNL     1      -6.818  12.781  18.406  0.00  0.00    +0.000 C 
ATOM     10  C   UNL     1      -7.378  13.493  19.646  0.00  0.00    +0.000 C 
ATOM     11  C   UNL     1      -6.521  14.551  22.442  0.00  0.00    +0.000 A 
ATOM     12  S   UNL     1      -7.812  15.673  22.183  0.00  0.00    +0.000 S 
ATOM     13  C   UNL     1      -7.213  16.759  23.349  0.00  0.00    +0.000 A 
ATOM     14  C   UNL     1      -6.077  16.280  23.955  0.00  0.00    +0.000 A 
ATOM     15  C   UNL     1      -5.675  15.008  23.446  0.00  0.00    +0.000 A 
ATOM     16  N   UNL     1      -4.601  14.306  23.878  0.00  0.00    +0.000 NA
ATOM     17  H   UNL     1      -2.727  13.025  24.292  0.00  0.00    +0.000 HD
ENDROOT
BRANCH   1  19
ATOM     18  C   UNL     1      -1.494  11.915  22.467  0.00  0.00    +0.000 C 
ATOM     19  N   UNL     1      -2.688  11.569  22.832  0.00  0.00    +0.000 NA
BRANCH  18  22
ATOM     20  O   UNL     1      -0.194   9.328  22.916  0.00  0.00    +0.000 OA
ATOM     21  C   UNL     1      -0.079   9.842  21.811  0.00  0.00    +0.000 A 
ATOM     22  C   UNL     1      -0.709  11.137  21.483  0.00  0.00    +0.000 A 
ATOM     23  C   UNL     1      -0.547  11.621  20.245  0.00  0.00    +0.000 A 
ATOM     24  O   UNL     1       0.160  11.030  19.224  0.00  0.00    +0.000 OA
ATOM     25  C   UNL     1       0.785   9.840  19.493  0.00  0.00    +0.000 A 
ATOM     26  C   UNL     1       1.524   9.266  18.459  0.00  0.00    +0.000 A 
ATOM     27  C   UNL     1       2.190   8.059  18.668  0.00  0.00    +0.000 A 
ATOM     28  C   UNL     1       2.114   7.423  19.911  0.00  0.00    +0.000 A 
ATOM     29  C   UNL     1       1.371   7.995  20.946  0.00  0.00    +0.000 A 
ATOM     30  C   UNL     1       0.706   9.208  20.733  0.00  0.00    +0.000 A 
ENDBRANCH  18  22
ENDBRANCH   1  19
TORSDOF 2
ENDMDL
MODEL 5
REMARK VINA RESULT:      -7.7      3.718      9.331
REMARK  Name = 
REMARK  2 active torsions:
REMARK  status: ('A' for Active; 'I' for Inactive)
REMARK    1  A    between atoms: C_3  and  C_4
REMARK    2  A    between atoms: N_5  and  N_6
REMARK                            x       y       z     vdW  Elec       q    Type
REMARK                         _______ _______ _______ _____ _____    ______ ____
ROOT
ATOM      1  N   UNL     1       0.282   8.383  21.329  0.00  0.00    +0.000 N 
ATOM      2  C   UNL     1       0.025   9.766  21.460  0.00  0.00    +0.000 A 
ATOM      3  N   UNL     1       0.582  10.633  20.590  0.00  0.00    +0.000 NA
ATOM      4  C   UNL     1       0.387  11.965  20.712  0.00  0.00    +0.000 A 
ATOM      5  N   UNL     1       0.956  12.829  19.796  0.00  0.00    +0.000 N 
ATOM      6  C   UNL     1       1.166  12.391  18.414  0.00  0.00    +0.000 C 
ATOM      7  C   UNL     1       2.654  12.381  18.038  0.00  0.00    +0.000 C 
ATOM      8  O   UNL     1       3.294  13.627  18.364  0.00  0.00    +0.000 OA
ATOM      9  C   UNL     1       3.207  13.860  19.777  0.00  0.00    +0.000 C 
ATOM     10  C   UNL     1       1.748  13.976  20.245  0.00  0.00    +0.000 C 
ATOM     11  C   UNL     1      -0.461  12.386  21.748  0.00  0.00    +0.000 A 
ATOM     12  S   UNL     1      -1.025  13.967  22.164  0.00  0.00    +0.000 S 
ATOM     13  C   UNL     1      -1.944  13.387  23.475  0.00  0.00    +0.000 A 
ATOM     14  C   UNL     1      -1.861  12.020  23.589  0.00  0.00    +0.000 A 
ATOM     15  C   UNL     1      -1.016  11.435  22.597  0.00  0.00    +0.000 A 
ATOM     16  N   UNL     1      -0.774  10.108  22.473  0.00  0.00    +0.000 NA
ATOM     17  H   UNL     1      -0.046   7.938  22.184  0.00  0.00    +0.000 HD
ENDROOT
BRANCH   1  19
ATOM     18  C   UNL     1       1.495   6.928  20.111  0.00  0.00    +0.000 C 
ATOM     19  N   UNL     1       1.486   8.020  20.807  0.00  0.00    +0.000 NA
BRANCH  18  22
ATOM     20  O   UNL     1       2.784   7.891  17.661  0.00  0.00    +0.000 OA
ATOM     21  C   UNL     1       3.294   6.941  18.242  0.00  0.00    +0.000 A 
ATOM     22  C   UNL     1       2.726   6.392  19.490  0.00  0.00    +0.000 A 
ATOM     23  C   UNL     1       3.356   5.362  20.069  0.00  0.00    +0.000 A 
ATOM     24  O   UNL     1       4.498   4.744  19.616  0.00  0.00    +0.000 OA
ATOM     25  C   UNL     1       5.043   5.203  18.445  0.00  0.00    +0.000 A 
ATOM     26  C   UNL     1       6.183   4.549  17.978  0.00  0.00    +0.000 A 
ATOM     27  C   UNL     1       6.784   4.962  16.790  0.00  0.00    +0.000 A 
ATOM     28  C   UNL     1       6.246   6.031  16.068  0.00  0.00    +0.000 A 
ATOM     29  C   UNL     1       5.106   6.689  16.535  0.00  0.00    +0.000 A 
ATOM     30  C   UNL     1       4.506   6.271  17.727  0.00  0.00    +0.000 A 
ENDBRANCH  18  22
ENDBRANCH   1  19
TORSDOF 2
ENDMDL
MODEL 6
REMARK VINA RESULT:      -7.7      4.003      9.369
REMARK  Name = 
REMARK  2 active torsions:
REMARK  status: ('A' for Active; 'I' for Inactive)
REMARK    1  A    between atoms: C_3  and  C_4
REMARK    2  A    between atoms: N_5  and  N_6
REMARK                            x       y       z     vdW  Elec       q    Type
REMARK                         _______ _______ _______ _____ _____    ______ ____
ROOT
ATOM      1  N   UNL     1      -0.187   9.401  22.125  0.00  0.00    +0.000 N 
ATOM      2  C   UNL     1      -0.246  10.811  22.039  0.00  0.00    +0.000 A 
ATOM      3  N   UNL     1       0.359  11.442  21.013  0.00  0.00    +0.000 NA
ATOM      4  C   UNL     1       0.355  12.792  20.924  0.00  0.00    +0.000 A 
ATOM      5  N   UNL     1       0.969  13.411  19.854  0.00  0.00    +0.000 N 
ATOM      6  C   UNL     1       1.020  12.738  18.553  0.00  0.00    +0.000 C 
ATOM      7  C   UNL     1       2.463  12.456  18.114  0.00  0.00    +0.000 C 
ATOM      8  O   UNL     1       3.286  13.633  18.200  0.00  0.00    +0.000 OA
ATOM      9  C   UNL     1       3.330  14.092  19.558  0.00  0.00    +0.000 C 
ATOM     10  C   UNL     1       1.937  14.487  20.070  0.00  0.00    +0.000 C 
ATOM     11  C   UNL     1      -0.354  13.486  21.918  0.00  0.00    +0.000 A 
ATOM     12  S   UNL     1      -0.670  15.177  22.095  0.00  0.00    +0.000 S 
ATOM     13  C   UNL     1      -1.564  14.946  23.525  0.00  0.00    +0.000 A 
ATOM     14  C   UNL     1      -1.657  13.616  23.858  0.00  0.00    +0.000 A 
ATOM     15  C   UNL     1      -0.971  12.768  22.936  0.00  0.00    +0.000 A 
ATOM     16  N   UNL     1      -0.919  11.417  23.019  0.00  0.00    +0.000 NA
ATOM     17  H   UNL     1      -0.511   9.147  23.056  0.00  0.00    +0.000 HD
ENDROOT
BRANCH   1  19
ATOM     18  C   UNL     1       0.696   7.793  20.819  0.00  0.00    +0.000 C 
ATOM     19  N   UNL     1       0.918   8.792  21.612  0.00  0.00    +0.000 NA
BRANCH  18  22
ATOM     20  O   UNL     1       2.239   8.545  18.444  0.00  0.00    +0.000 OA
ATOM     21  C   UNL     1       2.503   7.478  18.985  0.00  0.00    +0.000 A 
ATOM     22  C   UNL     1       1.790   7.018  20.193  0.00  0.00    +0.000 A 
ATOM     23  C   UNL     1       2.152   5.845  20.730  0.00  0.00    +0.000 A 
ATOM     24  O   UNL     1       3.135   5.004  20.266  0.00  0.00    +0.000 OA
ATOM     25  C   UNL     1       3.804   5.379  19.129  0.00  0.00    +0.000 A 
ATOM     26  C   UNL     1       4.777   4.503  18.649  0.00  0.00    +0.000 A 
ATOM     27  C   UNL     1       5.490   4.820  17.494  0.00  0.00    +0.000 A 
ATOM     28  C   UNL     1       5.231   6.016  16.818  0.00  0.00    +0.000 A 
ATOM     29  C   UNL     1       4.258   6.896  17.298  0.00  0.00    +0.000 A 
ATOM     30  C   UNL     1       3.544   6.572  18.457  0.00  0.00    +0.000 A 
ENDBRANCH  18  22
ENDBRANCH   1  19
TORSDOF 2
ENDMDL
MODEL 7
REMARK VINA RESULT:      -7.6      2.794      4.544
REMARK  Name = 
REMARK  2 active torsions:
REMARK  status: ('A' for Active; 'I' for Inactive)
REMARK    1  A    between atoms: C_3  and  C_4
REMARK    2  A    between atoms: N_5  and  N_6
REMARK                            x       y       z     vdW  Elec       q    Type
REMARK                         _______ _______ _______ _____ _____    ______ ____
ROOT
ATOM      1  N   UNL     1       1.492   6.757  21.132  0.00  0.00    +0.000 N 
ATOM      2  C   UNL     1       1.957   5.731  20.279  0.00  0.00    +0.000 A 
ATOM      3  N   UNL     1       3.097   5.909  19.582  0.00  0.00    +0.000 NA
ATOM      4  C   UNL     1       3.548   4.963  18.727  0.00  0.00    +0.000 A 
ATOM      5  N   UNL     1       4.727   5.165  18.039  0.00  0.00    +0.000 N 
ATOM      6  C   UNL     1       5.796   5.966  18.642  0.00  0.00    +0.000 C 
ATOM      7  C   UNL     1       6.101   7.223  17.817  0.00  0.00    +0.000 C 
ATOM      8  O   UNL     1       6.311   6.912  16.429  0.00  0.00    +0.000 OA
ATOM      9  C   UNL     1       5.127   6.315  15.883  0.00  0.00    +0.000 C 
ATOM     10  C   UNL     1       4.782   4.993  16.585  0.00  0.00    +0.000 C 
ATOM     11  C   UNL     1       2.799   3.777  18.649  0.00  0.00    +0.000 A 
ATOM     12  S   UNL     1       3.095   2.321  17.764  0.00  0.00    +0.000 S 
ATOM     13  C   UNL     1       1.682   1.576  18.352  0.00  0.00    +0.000 A 
ATOM     14  C   UNL     1       1.005   2.390  19.229  0.00  0.00    +0.000 A 
ATOM     15  C   UNL     1       1.644   3.654  19.412  0.00  0.00    +0.000 A 
ATOM     16  N   UNL     1       1.197   4.635  20.233  0.00  0.00    +0.000 NA
ATOM     17  H   UNL     1       0.537   6.518  21.391  0.00  0.00    +0.000 HD
ENDROOT
BRANCH   1  19
ATOM     18  C   UNL     1       0.841   8.905  20.952  0.00  0.00    +0.000 C 
ATOM     19  N   UNL     1       1.789   8.039  20.783  0.00  0.00    +0.000 NA
BRANCH  18  22
ATOM     20  O   UNL     1       1.866   9.995  18.432  0.00  0.00    +0.000 OA
ATOM     21  C   UNL     1       1.541  10.786  19.308  0.00  0.00    +0.000 A 
ATOM     22  C   UNL     1       1.001  10.335  20.606  0.00  0.00    +0.000 A 
ATOM     23  C   UNL     1       0.654  11.268  21.503  0.00  0.00    +0.000 A 
ATOM     24  O   UNL     1       0.751  12.630  21.343  0.00  0.00    +0.000 OA
ATOM     25  C   UNL     1       1.274  13.092  20.162  0.00  0.00    +0.000 A 
ATOM     26  C   UNL     1       1.397  14.475  20.023  0.00  0.00    +0.000 A 
ATOM     27  C   UNL     1       1.927  15.011  18.851  0.00  0.00    +0.000 A 
ATOM     28  C   UNL     1       2.332  14.165  17.814  0.00  0.00    +0.000 A 
ATOM     29  C   UNL     1       2.207  12.780  17.951  0.00  0.00    +0.000 A 
ATOM     30  C   UNL     1       1.677  12.246  19.130  0.00  0.00    +0.000 A 
ENDBRANCH  18  22
ENDBRANCH   1  19
TORSDOF 2
ENDMDL
MODEL 8
REMARK VINA RESULT:      -7.6      6.903      9.923
REMARK  Name = 
REMARK  2 active torsions:
REMARK  status: ('A' for Active; 'I' for Inactive)
REMARK    1  A    between atoms: C_3  and  C_4
REMARK    2  A    between atoms: N_5  and  N_6
REMARK                            x       y       z     vdW  Elec       q    Type
REMARK                         _______ _______ _______ _____ _____    ______ ____
ROOT
ATOM      1  N   UNL     1       9.414  10.374  17.903  0.00  0.00    +0.000 N 
ATOM      2  C   UNL     1       9.375  11.668  18.469  0.00  0.00    +0.000 A 
ATOM      3  N   UNL     1       8.978  11.824  19.749  0.00  0.00    +0.000 NA
ATOM      4  C   UNL     1       8.892  13.052  20.308  0.00  0.00    +0.000 A 
ATOM      5  N   UNL     1       8.499  13.181  21.625  0.00  0.00    +0.000 N 
ATOM      6  C   UNL     1       8.811  12.120  22.586  0.00  0.00    +0.000 C 
ATOM      7  C   UNL     1       7.542  11.484  23.166  0.00  0.00    +0.000 C 
ATOM      8  O   UNL     1       6.627  12.477  23.663  0.00  0.00    +0.000 OA
ATOM      9  C   UNL     1       6.226  13.342  22.592  0.00  0.00    +0.000 C 
ATOM     10  C   UNL     1       7.421  14.100  21.995  0.00  0.00    +0.000 C 
ATOM     11  C   UNL     1       9.286  14.137  19.508  0.00  0.00    +0.000 A 
ATOM     12  S   UNL     1       9.411  15.821  19.885  0.00  0.00    +0.000 S 
ATOM     13  C   UNL     1       9.958  16.216  18.322  0.00  0.00    +0.000 A 
ATOM     14  C   UNL     1      10.080  15.101  17.528  0.00  0.00    +0.000 A 
ATOM     15  C   UNL     1       9.704  13.900  18.203  0.00  0.00    +0.000 A 
ATOM     16  N   UNL     1       9.745  12.661  17.658  0.00  0.00    +0.000 NA
ATOM     17  H   UNL     1       9.529  10.493  16.898  0.00  0.00    +0.000 HD
ENDROOT
BRANCH   1  19
ATOM     18  C   UNL     1       8.457   8.344  17.719  0.00  0.00    +0.000 C 
ATOM     19  N   UNL     1       8.516   9.463  18.369  0.00  0.00    +0.000 NA
BRANCH  18  22
ATOM     20  O   UNL     1       6.006   7.581  16.305  0.00  0.00    +0.000 OA
ATOM     21  C   UNL     1       6.301   6.958  17.317  0.00  0.00    +0.000 A 
ATOM     22  C   UNL     1       7.522   7.259  18.091  0.00  0.00    +0.000 A 
ATOM     23  C   UNL     1       7.778   6.518  19.177  0.00  0.00    +0.000 A 
ATOM     24  O   UNL     1       7.009   5.486  19.661  0.00  0.00    +0.000 OA
ATOM     25  C   UNL     1       5.850   5.192  18.989  0.00  0.00    +0.000 A 
ATOM     26  C   UNL     1       5.062   4.164  19.508  0.00  0.00    +0.000 A 
ATOM     27  C   UNL     1       3.869   3.818  18.876  0.00  0.00    +0.000 A 
ATOM     28  C   UNL     1       3.463   4.498  17.724  0.00  0.00    +0.000 A 
ATOM     29  C   UNL     1       4.253   5.525  17.201  0.00  0.00    +0.000 A 
ATOM     30  C   UNL     1       5.449   5.870  17.840  0.00  0.00    +0.000 A 
ENDBRANCH  18  22
ENDBRANCH   1  19
TORSDOF 2
ENDMDL
MODEL 9
REMARK VINA RESULT:      -7.6      0.867      1.675
REMARK  Name = 
REMARK  2 active torsions:
REMARK  status: ('A' for Active; 'I' for Inactive)
REMARK    1  A    between atoms: C_3  and  C_4
REMARK    2  A    between atoms: N_5  and  N_6
REMARK                            x       y       z     vdW  Elec       q    Type
REMARK                         _______ _______ _______ _____ _____    ______ ____
ROOT
ATOM      1  N   UNL     1       2.819   8.612  17.303  0.00  0.00    +0.000 N 
ATOM      2  C   UNL     1       3.518   7.414  17.575  0.00  0.00    +0.000 A 
ATOM      3  N   UNL     1       2.885   6.401  18.200  0.00  0.00    +0.000 NA
ATOM      4  C   UNL     1       3.536   5.257  18.510  0.00  0.00    +0.000 A 
ATOM      5  N   UNL     1       2.859   4.229  19.135  0.00  0.00    +0.000 N 
ATOM      6  C   UNL     1       1.428   4.039  18.883  0.00  0.00    +0.000 C 
ATOM      7  C   UNL     1       0.596   4.215  20.160  0.00  0.00    +0.000 C 
ATOM      8  O   UNL     1       1.111   3.425  21.245  0.00  0.00    +0.000 OA
ATOM      9  C   UNL     1       2.453   3.834  21.545  0.00  0.00    +0.000 C 
ATOM     10  C   UNL     1       3.394   3.614  20.352  0.00  0.00    +0.000 C 
ATOM     11  C   UNL     1       4.876   5.164  18.100  0.00  0.00    +0.000 A 
ATOM     12  S   UNL     1       5.997   3.852  18.220  0.00  0.00    +0.000 S 
ATOM     13  C   UNL     1       7.238   4.733  17.457  0.00  0.00    +0.000 A 
ATOM     14  C   UNL     1       6.818   5.987  17.083  0.00  0.00    +0.000 A 
ATOM     15  C   UNL     1       5.459   6.241  17.442  0.00  0.00    +0.000 A 
ATOM     16  N   UNL     1       4.792   7.390  17.178  0.00  0.00    +0.000 NA
ATOM     17  H   UNL     1       3.514   9.305  17.030  0.00  0.00    +0.000 HD
ENDROOT
BRANCH   1  19
ATOM     18  C   UNL     1       1.570  10.232  18.245  0.00  0.00    +0.000 C 
ATOM     19  N   UNL     1       1.828   8.965  18.168  0.00  0.00    +0.000 NA
BRANCH  18  22
ATOM     20  O   UNL     1       1.329   9.754  21.127  0.00  0.00    +0.000 OA
ATOM     21  C   UNL     1       0.488  10.466  20.592  0.00  0.00    +0.000 A 
ATOM     22  C   UNL     1       0.532  10.776  19.149  0.00  0.00    +0.000 A 
ATOM     23  C   UNL     1      -0.418  11.577  18.647  0.00  0.00    +0.000 A 
ATOM     24  O   UNL     1      -1.453  12.152  19.346  0.00  0.00    +0.000 OA
ATOM     25  C   UNL     1      -1.548  11.868  20.684  0.00  0.00    +0.000 A 
ATOM     26  C   UNL     1      -2.620  12.431  21.376  0.00  0.00    +0.000 A 
ATOM     27  C   UNL     1      -2.779  12.177  22.737  0.00  0.00    +0.000 A 
ATOM     28  C   UNL     1      -1.864  11.361  23.409  0.00  0.00    +0.000 A 
ATOM     29  C   UNL     1      -0.788  10.798  22.718  0.00  0.00    +0.000 A 
ATOM     30  C   UNL     1      -0.634  11.054  21.351  0.00  0.00    +0.000 A 
ENDBRANCH  18  22
ENDBRANCH   1  19
TORSDOF 2
ENDMDL
