MODEL 1
REMARK VINA RESULT:      -8.2      0.000      0.000
REMARK  Name = 
REMARK  6 active torsions:
REMARK  status: ('A' for Active; 'I' for Inactive)
REMARK    1  A    between atoms: C_1  and  N_2
REMARK    2  A    between atoms: N_2  and  C_3
REMARK    3  A    between atoms: N_2  and  C_12
REMARK    4  A    between atoms: C_3  and  C_4
REMARK    5  A    between atoms: C_5  and  C_6
REMARK    6  A    between atoms: C_12  and  C_13
REMARK                            x       y       z     vdW  Elec       q    Type
REMARK                         _______ _______ _______ _____ _____    ______ ____
ROOT
ATOM      1  C   UNL     1       7.674   5.827  18.989  0.00  0.00    +0.000 C 
ATOM      2  N   UNL     1       6.758   6.541  18.079  0.00  0.00    +0.000 NA
ENDROOT
BRANCH   2   3
ATOM      3  C   UNL     1       7.554   7.571  17.383  0.00  0.00    +0.000 C 
BRANCH   3   4
ATOM      4  C   UNL     1       8.422   8.456  18.239  0.00  0.00    +0.000 C 
ATOM      5  C   UNL     1       8.540   9.782  18.036  0.00  0.00    +0.000 C 
BRANCH   5   6
ATOM      6  C   UNL     1       9.457  10.708  18.731  0.00  0.00    +0.000 A 
ATOM      7  C   UNL     1       9.335  10.868  20.122  0.00  0.00    +0.000 A 
ATOM      8  C   UNL     1      10.200  11.708  20.833  0.00  0.00    +0.000 A 
ATOM      9  C   UNL     1      11.205  12.399  20.163  0.00  0.00    +0.000 A 
ATOM     10  C   UNL     1      11.341  12.250  18.784  0.00  0.00    +0.000 A 
ATOM     11  C   UNL     1      10.476  11.408  18.074  0.00  0.00    +0.000 A 
ENDBRANCH   5   6
ENDBRANCH   3   4
ENDBRANCH   2   3
BRANCH   2  12
ATOM     12  C   UNL     1       6.060   5.583  17.174  0.00  0.00    +0.000 C 
BRANCH  12  13
ATOM     13  C   UNL     1       4.591   5.468  17.546  0.00  0.00    +0.000 A 
ATOM     14  C   UNL     1       3.750   6.554  17.732  0.00  0.00    +0.000 A 
ATOM     15  O   UNL     1       2.530   6.179  18.175  0.00  0.00    +0.000 OA
ATOM     16  C   UNL     1       2.510   4.823  18.178  0.00  0.00    +0.000 A 
ATOM     17  C   UNL     1       1.402   4.057  18.546  0.00  0.00    +0.000 A 
ATOM     18  C   UNL     1       1.499   2.680  18.356  0.00  0.00    +0.000 A 
ATOM     19  C   UNL     1       2.672   2.109  17.862  0.00  0.00    +0.000 A 
ATOM     20  C   UNL     1       3.810   2.909  17.578  0.00  0.00    +0.000 A 
ATOM     21  C   UNL     1       3.730   4.314  17.731  0.00  0.00    +0.000 A 
ENDBRANCH  12  13
ENDBRANCH   2  12
TORSDOF 5
ENDMDL
MODEL 2
REMARK VINA RESULT:      -8.0      4.801      5.869
REMARK  Name = 
REMARK  6 active torsions:
REMARK  status: ('A' for Active; 'I' for Inactive)
REMARK    1  A    between atoms: C_1  and  N_2
REMARK    2  A    between atoms: N_2  and  C_3
REMARK    3  A    between atoms: N_2  and  C_12
REMARK    4  A    between atoms: C_3  and  C_4
REMARK    5  A    between atoms: C_5  and  C_6
REMARK    6  A    between atoms: C_12  and  C_13
REMARK                            x       y       z     vdW  Elec       q    Type
REMARK                         _______ _______ _______ _____ _____    ______ ____
ROOT
ATOM      1  C   UNL     1       5.743   4.529  14.837  0.00  0.00    +0.000 C 
ATOM      2  N   UNL     1       5.239   4.880  16.178  0.00  0.00    +0.000 NA
ENDROOT
BRANCH   2   3
ATOM      3  C   UNL     1       5.098   6.348  16.218  0.00  0.00    +0.000 C 
BRANCH   3   4
ATOM      4  C   UNL     1       4.399   6.934  17.417  0.00  0.00    +0.000 C 
ATOM      5  C   UNL     1       3.091   7.254  17.418  0.00  0.00    +0.000 C 
BRANCH   5   6
ATOM      6  C   UNL     1       2.348   7.949  18.489  0.00  0.00    +0.000 A 
ATOM      7  C   UNL     1       1.729   9.178  18.199  0.00  0.00    +0.000 A 
ATOM      8  C   UNL     1       0.986   9.860  19.169  0.00  0.00    +0.000 A 
ATOM      9  C   UNL     1       0.845   9.321  20.444  0.00  0.00    +0.000 A 
ATOM     10  C   UNL     1       1.450   8.102  20.747  0.00  0.00    +0.000 A 
ATOM     11  C   UNL     1       2.192   7.420  19.776  0.00  0.00    +0.000 A 
ENDBRANCH   5   6
ENDBRANCH   3   4
ENDBRANCH   2   3
BRANCH   2  12
ATOM     12  C   UNL     1       3.987   4.130  16.484  0.00  0.00    +0.000 C 
BRANCH  12  13
ATOM     13  C   UNL     1       3.956   3.711  17.946  0.00  0.00    +0.000 A 
ATOM     14  C   UNL     1       5.083   3.380  18.682  0.00  0.00    +0.000 A 
ATOM     15  O   UNL     1       4.766   2.927  19.915  0.00  0.00    +0.000 OA
ATOM     16  C   UNL     1       3.424   3.062  20.053  0.00  0.00    +0.000 A 
ATOM     17  C   UNL     1       2.719   2.728  21.211  0.00  0.00    +0.000 A 
ATOM     18  C   UNL     1       1.366   3.062  21.241  0.00  0.00    +0.000 A 
ATOM     19  C   UNL     1       0.754   3.661  20.139  0.00  0.00    +0.000 A 
ATOM     20  C   UNL     1       1.482   3.908  18.945  0.00  0.00    +0.000 A 
ATOM     21  C   UNL     1       2.865   3.609  18.898  0.00  0.00    +0.000 A 
ENDBRANCH  12  13
ENDBRANCH   2  12
TORSDOF 5
ENDMDL
MODEL 3
REMARK VINA RESULT:      -7.8      0.513      1.153
REMARK  Name = 
REMARK  6 active torsions:
REMARK  status: ('A' for Active; 'I' for Inactive)
REMARK    1  A    between atoms: C_1  and  N_2
REMARK    2  A    between atoms: N_2  and  C_3
REMARK    3  A    between atoms: N_2  and  C_12
REMARK    4  A    between atoms: C_3  and  C_4
REMARK    5  A    between atoms: C_5  and  C_6
REMARK    6  A    between atoms: C_12  and  C_13
REMARK                            x       y       z     vdW  Elec       q    Type
REMARK                         _______ _______ _______ _____ _____    ______ ____
ROOT
ATOM      1  C   UNL     1       6.796   5.708  19.115  0.00  0.00    +0.000 C 
ATOM      2  N   UNL     1       6.363   6.679  18.092  0.00  0.00    +0.000 NA
ENDROOT
BRANCH   2   3
ATOM      3  C   UNL     1       7.584   7.264  17.506  0.00  0.00    +0.000 C 
BRANCH   3   4
ATOM      4  C   UNL     1       8.339   8.255  18.353  0.00  0.00    +0.000 C 
ATOM      5  C   UNL     1       8.467   9.554  18.021  0.00  0.00    +0.000 C 
BRANCH   5   6
ATOM      6  C   UNL     1       9.289  10.570  18.709  0.00  0.00    +0.000 A 
ATOM      7  C   UNL     1       9.986  11.516  17.937  0.00  0.00    +0.000 A 
ATOM      8  C   UNL     1      10.753  12.519  18.541  0.00  0.00    +0.000 A 
ATOM      9  C   UNL     1      10.831  12.595  19.929  0.00  0.00    +0.000 A 
ATOM     10  C   UNL     1      10.143  11.667  20.708  0.00  0.00    +0.000 A 
ATOM     11  C   UNL     1       9.376  10.665  20.103  0.00  0.00    +0.000 A 
ENDBRANCH   5   6
ENDBRANCH   3   4
ENDBRANCH   2   3
BRANCH   2  12
ATOM     12  C   UNL     1       5.452   6.032  17.103  0.00  0.00    +0.000 C 
BRANCH  12  13
ATOM     13  C   UNL     1       4.111   5.708  17.742  0.00  0.00    +0.000 A 
ATOM     14  C   UNL     1       3.275   6.655  18.313  0.00  0.00    +0.000 A 
ATOM     15  O   UNL     1       2.207   6.088  18.917  0.00  0.00    +0.000 OA
ATOM     16  C   UNL     1       2.262   4.759  18.651  0.00  0.00    +0.000 A 
ATOM     17  C   UNL     1       1.308   3.836  19.080  0.00  0.00    +0.000 A 
ATOM     18  C   UNL     1       1.435   2.532  18.602  0.00  0.00    +0.000 A 
ATOM     19  C   UNL     1       2.498   2.179  17.770  0.00  0.00    +0.000 A 
ATOM     20  C   UNL     1       3.498   3.124  17.422  0.00  0.00    +0.000 A 
ATOM     21  C   UNL     1       3.377   4.463  17.867  0.00  0.00    +0.000 A 
ENDBRANCH  12  13
ENDBRANCH   2  12
TORSDOF 5
ENDMDL
MODEL 4
REMARK VINA RESULT:      -7.7      1.463      2.064
REMARK  Name = 
REMARK  6 active torsions:
REMARK  status: ('A' for Active; 'I' for Inactive)
REMARK    1  A    between atoms: C_1  and  N_2
REMARK    2  A    between atoms: N_2  and  C_3
REMARK    3  A    between atoms: N_2  and  C_12
REMARK    4  A    between atoms: C_3  and  C_4
REMARK    5  A    between atoms: C_5  and  C_6
REMARK    6  A    between atoms: C_12  and  C_13
REMARK                            x       y       z     vdW  Elec       q    Type
REMARK                         _______ _______ _______ _____ _____    ______ ____
ROOT
ATOM      1  C   UNL     1       7.666   5.674  19.057  0.00  0.00    +0.000 C 
ATOM      2  N   UNL     1       6.618   6.335  18.256  0.00  0.00    +0.000 NA
ENDROOT
BRANCH   2   3
ATOM      3  C   UNL     1       7.279   7.385  17.458  0.00  0.00    +0.000 C 
BRANCH   3   4
ATOM      4  C   UNL     1       8.281   8.255  18.172  0.00  0.00    +0.000 C 
ATOM      5  C   UNL     1       8.290   9.598  18.068  0.00  0.00    +0.000 C 
BRANCH   5   6
ATOM      6  C   UNL     1       9.301  10.524  18.618  0.00  0.00    +0.000 A 
ATOM      7  C   UNL     1       9.333  10.747  20.006  0.00  0.00    +0.000 A 
ATOM      8  C   UNL     1      10.291  11.590  20.581  0.00  0.00    +0.000 A 
ATOM      9  C   UNL     1      11.236  12.220  19.777  0.00  0.00    +0.000 A 
ATOM     10  C   UNL     1      11.220  12.006  18.400  0.00  0.00    +0.000 A 
ATOM     11  C   UNL     1      10.262  11.163  17.825  0.00  0.00    +0.000 A 
ENDBRANCH   5   6
ENDBRANCH   3   4
ENDBRANCH   2   3
BRANCH   2  12
ATOM     12  C   UNL     1       5.858   5.334  17.453  0.00  0.00    +0.000 C 
BRANCH  12  13
ATOM     13  C   UNL     1       4.875   4.576  18.331  0.00  0.00    +0.000 A 
ATOM     14  C   UNL     1       4.971   3.222  18.613  0.00  0.00    +0.000 A 
ATOM     15  O   UNL     1       3.906   2.775  19.313  0.00  0.00    +0.000 OA
ATOM     16  C   UNL     1       3.142   3.857  19.605  0.00  0.00    +0.000 A 
ATOM     17  C   UNL     1       1.964   3.804  20.351  0.00  0.00    +0.000 A 
ATOM     18  C   UNL     1       1.375   5.024  20.684  0.00  0.00    +0.000 A 
ATOM     19  C   UNL     1       1.930   6.226  20.245  0.00  0.00    +0.000 A 
ATOM     20  C   UNL     1       3.082   6.239  19.416  0.00  0.00    +0.000 A 
ATOM     21  C   UNL     1       3.720   5.018  19.089  0.00  0.00    +0.000 A 
ENDBRANCH  12  13
ENDBRANCH   2  12
TORSDOF 5
ENDMDL
MODEL 5
REMARK VINA RESULT:      -7.6      4.472      5.654
REMARK  Name = 
REMARK  6 active torsions:
REMARK  status: ('A' for Active; 'I' for Inactive)
REMARK    1  A    between atoms: C_1  and  N_2
REMARK    2  A    between atoms: N_2  and  C_3
REMARK    3  A    between atoms: N_2  and  C_12
REMARK    4  A    between atoms: C_3  and  C_4
REMARK    5  A    between atoms: C_5  and  C_6
REMARK    6  A    between atoms: C_12  and  C_13
REMARK                            x       y       z     vdW  Elec       q    Type
REMARK                         _______ _______ _______ _____ _____    ______ ____
ROOT
ATOM      1  C   UNL     1       7.297   4.758  17.984  0.00  0.00    +0.000 C 
ATOM      2  N   UNL     1       5.825   4.828  18.059  0.00  0.00    +0.000 NA
ENDROOT
BRANCH   2   3
ATOM      3  C   UNL     1       5.420   6.109  17.449  0.00  0.00    +0.000 C 
BRANCH   3   4
ATOM      4  C   UNL     1       4.475   6.973  18.242  0.00  0.00    +0.000 C 
ATOM      5  C   UNL     1       3.195   7.183  17.878  0.00  0.00    +0.000 C 
BRANCH   5   6
ATOM      6  C   UNL     1       2.234   8.109  18.510  0.00  0.00    +0.000 A 
ATOM      7  C   UNL     1       1.914   7.934  19.868  0.00  0.00    +0.000 A 
ATOM      8  C   UNL     1       1.034   8.803  20.523  0.00  0.00    +0.000 A 
ATOM      9  C   UNL     1       0.462   9.866  19.830  0.00  0.00    +0.000 A 
ATOM     10  C   UNL     1       0.771  10.056  18.484  0.00  0.00    +0.000 A 
ATOM     11  C   UNL     1       1.652   9.187  17.831  0.00  0.00    +0.000 A 
ENDBRANCH   5   6
ENDBRANCH   3   4
ENDBRANCH   2   3
BRANCH   2  12
ATOM     12  C   UNL     1       5.208   3.623  17.433  0.00  0.00    +0.000 C 
BRANCH  12  13
ATOM     13  C   UNL     1       3.754   3.484  17.857  0.00  0.00    +0.000 A 
ATOM     14  C   UNL     1       2.682   3.537  16.980  0.00  0.00    +0.000 A 
ATOM     15  O   UNL     1       1.497   3.510  17.629  0.00  0.00    +0.000 OA
ATOM     16  C   UNL     1       1.770   3.321  18.944  0.00  0.00    +0.000 A 
ATOM     17  C   UNL     1       0.796   3.204  19.936  0.00  0.00    +0.000 A 
ATOM     18  C   UNL     1       1.237   2.869  21.215  0.00  0.00    +0.000 A 
ATOM     19  C   UNL     1       2.598   2.704  21.479  0.00  0.00    +0.000 A 
ATOM     20  C   UNL     1       3.569   2.913  20.464  0.00  0.00    +0.000 A 
ATOM     21  C   UNL     1       3.147   3.223  19.149  0.00  0.00    +0.000 A 
ENDBRANCH  12  13
ENDBRANCH   2  12
TORSDOF 5
ENDMDL
MODEL 6
REMARK VINA RESULT:      -7.6      0.689      1.375
REMARK  Name = 
REMARK  6 active torsions:
REMARK  status: ('A' for Active; 'I' for Inactive)
REMARK    1  A    between atoms: C_1  and  N_2
REMARK    2  A    between atoms: N_2  and  C_3
REMARK    3  A    between atoms: N_2  and  C_12
REMARK    4  A    between atoms: C_3  and  C_4
REMARK    5  A    between atoms: C_5  and  C_6
REMARK    6  A    between atoms: C_12  and  C_13
REMARK                            x       y       z     vdW  Elec       q    Type
REMARK                         _______ _______ _______ _____ _____    ______ ____
ROOT
ATOM      1  C   UNL     1       7.079   5.159  16.540  0.00  0.00    +0.000 C 
ATOM      2  N   UNL     1       7.429   5.913  17.759  0.00  0.00    +0.000 NA
ENDROOT
BRANCH   2   3
ATOM      3  C   UNL     1       7.399   7.346  17.407  0.00  0.00    +0.000 C 
BRANCH   3   4
ATOM      4  C   UNL     1       8.239   8.272  18.248  0.00  0.00    +0.000 C 
ATOM      5  C   UNL     1       8.431   9.569  17.938  0.00  0.00    +0.000 C 
BRANCH   5   6
ATOM      6  C   UNL     1       9.333  10.520  18.619  0.00  0.00    +0.000 A 
ATOM      7  C   UNL     1      10.150  11.358  17.839  0.00  0.00    +0.000 A 
ATOM      8  C   UNL     1      10.999  12.298  18.434  0.00  0.00    +0.000 A 
ATOM      9  C   UNL     1      11.041  12.420  19.819  0.00  0.00    +0.000 A 
ATOM     10  C   UNL     1      10.235  11.599  20.607  0.00  0.00    +0.000 A 
ATOM     11  C   UNL     1       9.385  10.659  20.011  0.00  0.00    +0.000 A 
ENDBRANCH   5   6
ENDBRANCH   3   4
ENDBRANCH   2   3
BRANCH   2  12
ATOM     12  C   UNL     1       6.531   5.536  18.889  0.00  0.00    +0.000 C 
BRANCH  12  13
ATOM     13  C   UNL     1       5.088   5.443  18.418  0.00  0.00    +0.000 A 
ATOM     14  C   UNL     1       4.356   6.520  17.944  0.00  0.00    +0.000 A 
ATOM     15  O   UNL     1       3.066   6.191  17.710  0.00  0.00    +0.000 OA
ATOM     16  C   UNL     1       2.955   4.855  17.918  0.00  0.00    +0.000 A 
ATOM     17  C   UNL     1       1.775   4.132  17.744  0.00  0.00    +0.000 A 
ATOM     18  C   UNL     1       1.863   2.745  17.859  0.00  0.00    +0.000 A 
ATOM     19  C   UNL     1       3.076   2.133  18.177  0.00  0.00    +0.000 A 
ATOM     20  C   UNL     1       4.240   2.905  18.431  0.00  0.00    +0.000 A 
ATOM     21  C   UNL     1       4.186   4.314  18.289  0.00  0.00    +0.000 A 
ENDBRANCH  12  13
ENDBRANCH   2  12
TORSDOF 5
ENDMDL
MODEL 7
REMARK VINA RESULT:      -7.6      1.105      1.347
REMARK  Name = 
REMARK  6 active torsions:
REMARK  status: ('A' for Active; 'I' for Inactive)
REMARK    1  A    between atoms: C_1  and  N_2
REMARK    2  A    between atoms: N_2  and  C_3
REMARK    3  A    between atoms: N_2  and  C_12
REMARK    4  A    between atoms: C_3  and  C_4
REMARK    5  A    between atoms: C_5  and  C_6
REMARK    6  A    between atoms: C_12  and  C_13
REMARK                            x       y       z     vdW  Elec       q    Type
REMARK                         _______ _______ _______ _____ _____    ______ ____
ROOT
ATOM      1  C   UNL     1       6.150   5.185  18.398  0.00  0.00    +0.000 C 
ATOM      2  N   UNL     1       5.773   6.559  18.016  0.00  0.00    +0.000 NA
ENDROOT
BRANCH   2   3
ATOM      3  C   UNL     1       6.865   7.091  17.178  0.00  0.00    +0.000 C 
BRANCH   3   4
ATOM      4  C   UNL     1       7.923   7.906  17.874  0.00  0.00    +0.000 C 
ATOM      5  C   UNL     1       7.900   9.252  17.917  0.00  0.00    +0.000 C 
BRANCH   5   6
ATOM      6  C   UNL     1       8.949  10.142  18.456  0.00  0.00    +0.000 A 
ATOM      7  C   UNL     1       9.062  10.290  19.850  0.00  0.00    +0.000 A 
ATOM      8  C   UNL     1      10.059  11.096  20.413  0.00  0.00    +0.000 A 
ATOM      9  C   UNL     1      10.963  11.761  19.591  0.00  0.00    +0.000 A 
ATOM     10  C   UNL     1      10.866  11.621  18.207  0.00  0.00    +0.000 A 
ATOM     11  C   UNL     1       9.869  10.816  17.645  0.00  0.00    +0.000 A 
ENDBRANCH   5   6
ENDBRANCH   3   4
ENDBRANCH   2   3
BRANCH   2  12
ATOM     12  C   UNL     1       4.431   6.576  17.366  0.00  0.00    +0.000 C 
BRANCH  12  13
ATOM     13  C   UNL     1       3.353   6.147  18.349  0.00  0.00    +0.000 A 
ATOM     14  C   UNL     1       2.819   6.974  19.325  0.00  0.00    +0.000 A 
ATOM     15  O   UNL     1       1.970   6.311  20.141  0.00  0.00    +0.000 OA
ATOM     16  C   UNL     1       1.842   5.056  19.642  0.00  0.00    +0.000 A 
ATOM     17  C   UNL     1       1.018   4.075  20.196  0.00  0.00    +0.000 A 
ATOM     18  C   UNL     1       0.889   2.885  19.481  0.00  0.00    +0.000 A 
ATOM     19  C   UNL     1       1.594   2.688  18.292  0.00  0.00    +0.000 A 
ATOM     20  C   UNL     1       2.489   3.674  17.802  0.00  0.00    +0.000 A 
ATOM     21  C   UNL     1       2.615   4.906  18.490  0.00  0.00    +0.000 A 
ENDBRANCH  12  13
ENDBRANCH   2  12
TORSDOF 5
ENDMDL
MODEL 8
REMARK VINA RESULT:      -7.5      4.792      5.691
REMARK  Name = 
REMARK  6 active torsions:
REMARK  status: ('A' for Active; 'I' for Inactive)
REMARK    1  A    between atoms: C_1  and  N_2
REMARK    2  A    between atoms: N_2  and  C_3
REMARK    3  A    between atoms: N_2  and  C_12
REMARK    4  A    between atoms: C_3  and  C_4
REMARK    5  A    between atoms: C_5  and  C_6
REMARK    6  A    between atoms: C_12  and  C_13
REMARK                            x       y       z     vdW  Elec       q    Type
REMARK                         _______ _______ _______ _____ _____    ______ ____
ROOT
ATOM      1  C   UNL     1       6.761   4.635  16.375  0.00  0.00    +0.000 C 
ATOM      2  N   UNL     1       6.024   5.346  17.438  0.00  0.00    +0.000 NA
ENDROOT
BRANCH   2   3
ATOM      3  C   UNL     1       4.773   5.847  16.837  0.00  0.00    +0.000 C 
BRANCH   3   4
ATOM      4  C   UNL     1       4.129   7.038  17.498  0.00  0.00    +0.000 C 
ATOM      5  C   UNL     1       2.911   6.987  18.071  0.00  0.00    +0.000 C 
BRANCH   5   6
ATOM      6  C   UNL     1       2.143   8.121  18.625  0.00  0.00    +0.000 A 
ATOM      7  C   UNL     1       1.678   8.044  19.950  0.00  0.00    +0.000 A 
ATOM      8  C   UNL     1       0.973   9.104  20.532  0.00  0.00    +0.000 A 
ATOM      9  C   UNL     1       0.726  10.261  19.800  0.00  0.00    +0.000 A 
ATOM     10  C   UNL     1       1.183  10.354  18.486  0.00  0.00    +0.000 A 
ATOM     11  C   UNL     1       1.888   9.294  17.905  0.00  0.00    +0.000 A 
ENDBRANCH   5   6
ENDBRANCH   3   4
ENDBRANCH   2   3
BRANCH   2  12
ATOM     12  C   UNL     1       5.831   4.465  18.626  0.00  0.00    +0.000 C 
BRANCH  12  13
ATOM     13  C   UNL     1       4.520   3.701  18.519  0.00  0.00    +0.000 A 
ATOM     14  C   UNL     1       4.286   2.687  17.603  0.00  0.00    +0.000 A 
ATOM     15  O   UNL     1       3.004   2.261  17.638  0.00  0.00    +0.000 OA
ATOM     16  C   UNL     1       2.399   2.912  18.663  0.00  0.00    +0.000 A 
ATOM     17  C   UNL     1       1.069   2.714  19.039  0.00  0.00    +0.000 A 
ATOM     18  C   UNL     1       0.643   3.354  20.202  0.00  0.00    +0.000 A 
ATOM     19  C   UNL     1       1.508   4.183  20.918  0.00  0.00    +0.000 A 
ATOM     20  C   UNL     1       2.828   4.429  20.460  0.00  0.00    +0.000 A 
ATOM     21  C   UNL     1       3.299   3.767  19.299  0.00  0.00    +0.000 A 
ENDBRANCH  12  13
ENDBRANCH   2  12
TORSDOF 5
ENDMDL
MODEL 9
REMARK VINA RESULT:      -7.5      1.243      1.931
REMARK  Name = 
REMARK  6 active torsions:
REMARK  status: ('A' for Active; 'I' for Inactive)
REMARK    1  A    between atoms: C_1  and  N_2
REMARK    2  A    between atoms: N_2  and  C_3
REMARK    3  A    between atoms: N_2  and  C_12
REMARK    4  A    between atoms: C_3  and  C_4
REMARK    5  A    between atoms: C_5  and  C_6
REMARK    6  A    between atoms: C_12  and  C_13
REMARK                            x       y       z     vdW  Elec       q    Type
REMARK                         _______ _______ _______ _____ _____    ______ ____
ROOT
ATOM      1  C   UNL     1       8.102   6.502  18.762  0.00  0.00    +0.000 C 
ATOM      2  N   UNL     1       7.048   6.898  17.808  0.00  0.00    +0.000 NA
ENDROOT
BRANCH   2   3
ATOM      3  C   UNL     1       7.310   8.299  17.429  0.00  0.00    +0.000 C 
BRANCH   3   4
ATOM      4  C   UNL     1       8.347   9.041  18.233  0.00  0.00    +0.000 C 
ATOM      5  C   UNL     1       8.758  10.286  17.926  0.00  0.00    +0.000 C 
BRANCH   5   6
ATOM      6  C   UNL     1       9.853  11.043  18.567  0.00  0.00    +0.000 A 
ATOM      7  C   UNL     1       9.869  11.156  19.968  0.00  0.00    +0.000 A 
ATOM      8  C   UNL     1      10.901  11.835  20.627  0.00  0.00    +0.000 A 
ATOM      9  C   UNL     1      11.937  12.406  19.894  0.00  0.00    +0.000 A 
ATOM     10  C   UNL     1      11.937  12.300  18.505  0.00  0.00    +0.000 A 
ATOM     11  C   UNL     1      10.905  11.620  17.847  0.00  0.00    +0.000 A 
ENDBRANCH   5   6
ENDBRANCH   3   4
ENDBRANCH   2   3
BRANCH   2  12
ATOM     12  C   UNL     1       6.990   5.947  16.661  0.00  0.00    +0.000 C 
BRANCH  12  13
ATOM     13  C   UNL     1       5.825   4.983  16.821  0.00  0.00    +0.000 A 
ATOM     14  C   UNL     1       5.900   3.625  16.556  0.00  0.00    +0.000 A 
ATOM     15  O   UNL     1       4.694   3.022  16.661  0.00  0.00    +0.000 OA
ATOM     16  C   UNL     1       3.822   3.958  17.111  0.00  0.00    +0.000 A 
ATOM     17  C   UNL     1       2.475   3.708  17.378  0.00  0.00    +0.000 A 
ATOM     18  C   UNL     1       1.749   4.740  17.971  0.00  0.00    +0.000 A 
ATOM     19  C   UNL     1       2.350   5.972  18.239  0.00  0.00    +0.000 A 
ATOM     20  C   UNL     1       3.699   6.220  17.876  0.00  0.00    +0.000 A 
ATOM     21  C   UNL     1       4.470   5.179  17.302  0.00  0.00    +0.000 A 
ENDBRANCH  12  13
ENDBRANCH   2  12
TORSDOF 5
ENDMDL
