MODEL 1
REMARK VINA RESULT:      -8.3      0.000      0.000
REMARK  Name = 
REMARK  4 active torsions:
REMARK  status: ('A' for Active; 'I' for Inactive)
REMARK    1  A    between atoms: C_1  and  O_2
REMARK    2  A    between atoms: O_2  and  C_3
REMARK    3  A    between atoms: C_13  and  C_14
REMARK    4  A    between atoms: C_14  and  O_16
REMARK                            x       y       z     vdW  Elec       q    Type
REMARK                         _______ _______ _______ _____ _____    ______ ____
ROOT
ATOM      1  C   UNL     1       4.664   4.982  17.137  0.00  0.00    +0.000 A 
ATOM      2  C   UNL     1       4.448   6.191  16.477  0.00  0.00    +0.000 A 
ATOM      3  C   UNL     1       3.675   7.184  17.064  0.00  0.00    +0.000 A 
ATOM      4  C   UNL     1       3.067   6.989  18.311  0.00  0.00    +0.000 A 
ATOM      5  C   UNL     1       2.258   8.079  18.928  0.00  0.00    +0.000 A 
ATOM      6  C   UNL     1       1.652   7.856  20.110  0.00  0.00    +0.000 A 
ATOM      7  N   UNL     1       1.807   6.642  20.730  0.00  0.00    +0.000 N 
ATOM      8  C   UNL     1       2.554   5.588  20.267  0.00  0.00    +0.000 A 
ATOM      9  O   UNL     1       2.602   4.547  20.915  0.00  0.00    +0.000 OA
ATOM     10  C   UNL     1       3.246   5.749  18.962  0.00  0.00    +0.000 A 
ATOM     11  C   UNL     1       4.053   4.737  18.385  0.00  0.00    +0.000 A 
ATOM     12  C   UNL     1       0.822   8.913  20.754  0.00  0.00    +0.000 A 
ATOM     13  C   UNL     1       0.131   8.703  21.963  0.00  0.00    +0.000 A 
ATOM     14  C   UNL     1      -0.629   9.714  22.562  0.00  0.00    +0.000 A 
ATOM     15  C   UNL     1      -0.720  10.962  21.965  0.00  0.00    +0.000 A 
ATOM     16  C   UNL     1      -0.057  11.195  20.768  0.00  0.00    +0.000 A 
ATOM     17  C   UNL     1       0.708  10.182  20.157  0.00  0.00    +0.000 A 
ATOM     18  C   UNL     1       1.392  10.525  18.866  0.00  0.00    +0.000 C 
ATOM     19  C   UNL     1       2.169   9.395  18.199  0.00  0.00    +0.000 C 
ATOM     20  H   UNL     1       1.361   6.461  21.617  0.00  0.00    +0.000 HD
ENDROOT
BRANCH   1  22
ATOM     21  C   UNL     1       6.652   4.418  15.992  0.00  0.00    +0.000 C 
ATOM     22  O   UNL     1       5.405   3.991  16.539  0.00  0.00    +0.000 OA
ENDBRANCH   1  22
BRANCH  11  23
ATOM     23  C   UNL     1       4.386   3.441  19.052  0.00  0.00    +0.000 C 
ATOM     24  O   UNL     1       5.393   3.273  19.721  0.00  0.00    +0.000 OA
BRANCH  23  25
ATOM     25  O   UNL     1       3.565   2.424  18.720  0.00  0.00    +0.000 OA
ATOM     26  H   UNL     1       2.892   2.744  18.069  0.00  0.00    +0.000 HD
ENDBRANCH  23  25
ENDBRANCH  11  23
TORSDOF 3
ENDMDL
MODEL 2
REMARK VINA RESULT:      -7.6      3.316      7.433
REMARK  Name = 
REMARK  4 active torsions:
REMARK  status: ('A' for Active; 'I' for Inactive)
REMARK    1  A    between atoms: C_1  and  O_2
REMARK    2  A    between atoms: O_2  and  C_3
REMARK    3  A    between atoms: C_13  and  C_14
REMARK    4  A    between atoms: C_14  and  O_16
REMARK                            x       y       z     vdW  Elec       q    Type
REMARK                         _______ _______ _______ _____ _____    ______ ____
ROOT
ATOM      1  C   UNL     1       0.117  10.487  21.182  0.00  0.00    +0.000 A 
ATOM      2  C   UNL     1       0.001   9.361  21.995  0.00  0.00    +0.000 A 
ATOM      3  C   UNL     1       0.581   8.157  21.617  0.00  0.00    +0.000 A 
ATOM      4  C   UNL     1       1.264   8.031  20.401  0.00  0.00    +0.000 A 
ATOM      5  C   UNL     1       1.894   6.732  20.027  0.00  0.00    +0.000 A 
ATOM      6  C   UNL     1       2.514   6.623  18.836  0.00  0.00    +0.000 A 
ATOM      7  N   UNL     1       2.570   7.712  18.002  0.00  0.00    +0.000 N 
ATOM      8  C   UNL     1       2.056   8.957  18.263  0.00  0.00    +0.000 A 
ATOM      9  O   UNL     1       2.164   9.846  17.425  0.00  0.00    +0.000 OA
ATOM     10  C   UNL     1       1.345   9.157  19.552  0.00  0.00    +0.000 A 
ATOM     11  C   UNL     1       0.780  10.398  19.939  0.00  0.00    +0.000 A 
ATOM     12  C   UNL     1       3.143   5.339  18.417  0.00  0.00    +0.000 A 
ATOM     13  C   UNL     1       3.755   5.169  17.160  0.00  0.00    +0.000 A 
ATOM     14  C   UNL     1       4.357   3.961  16.792  0.00  0.00    +0.000 A 
ATOM     15  C   UNL     1       4.360   2.888  17.671  0.00  0.00    +0.000 A 
ATOM     16  C   UNL     1       3.755   3.024  18.913  0.00  0.00    +0.000 A 
ATOM     17  C   UNL     1       3.145   4.236  19.291  0.00  0.00    +0.000 A 
ATOM     18  C   UNL     1       2.518   4.292  20.653  0.00  0.00    +0.000 C 
ATOM     19  C   UNL     1       1.818   5.598  21.016  0.00  0.00    +0.000 C 
ATOM     20  H   UNL     1       3.034   7.646  17.108  0.00  0.00    +0.000 HD
ENDROOT
BRANCH   1  22
ATOM     21  C   UNL     1      -1.279  11.599  22.729  0.00  0.00    +0.000 C 
ATOM     22  O   UNL     1      -0.483  11.668  21.546  0.00  0.00    +0.000 OA
ENDBRANCH   1  22
BRANCH  11  23
ATOM     23  C   UNL     1       0.912  11.665  19.157  0.00  0.00    +0.000 C 
ATOM     24  O   UNL     1       1.770  12.503  19.383  0.00  0.00    +0.000 OA
BRANCH  23  25
ATOM     25  O   UNL     1      -0.094  11.883  18.287  0.00  0.00    +0.000 OA
ATOM     26  H   UNL     1      -0.753  12.499  18.692  0.00  0.00    +0.000 HD
ENDBRANCH  23  25
ENDBRANCH  11  23
TORSDOF 3
ENDMDL
MODEL 3
REMARK VINA RESULT:      -7.6      3.384      7.500
REMARK  Name = 
REMARK  4 active torsions:
REMARK  status: ('A' for Active; 'I' for Inactive)
REMARK    1  A    between atoms: C_1  and  O_2
REMARK    2  A    between atoms: O_2  and  C_3
REMARK    3  A    between atoms: C_13  and  C_14
REMARK    4  A    between atoms: C_14  and  O_16
REMARK                            x       y       z     vdW  Elec       q    Type
REMARK                         _______ _______ _______ _____ _____    ______ ____
ROOT
ATOM      1  C   UNL     1      -0.133  10.083  21.064  0.00  0.00    +0.000 A 
ATOM      2  C   UNL     1      -0.038   8.838  21.686  0.00  0.00    +0.000 A 
ATOM      3  C   UNL     1       0.780   7.848  21.157  0.00  0.00    +0.000 A 
ATOM      4  C   UNL     1       1.501   8.056  19.975  0.00  0.00    +0.000 A 
ATOM      5  C   UNL     1       2.387   6.984  19.439  0.00  0.00    +0.000 A 
ATOM      6  C   UNL     1       3.042   7.192  18.280  0.00  0.00    +0.000 A 
ATOM      7  N   UNL     1       2.896   8.391  17.629  0.00  0.00    +0.000 N 
ATOM      8  C   UNL     1       2.136   9.454  18.051  0.00  0.00    +0.000 A 
ATOM      9  O   UNL     1       2.082  10.470  17.368  0.00  0.00    +0.000 OA
ATOM     10  C   UNL     1       1.373   9.299  19.316  0.00  0.00    +0.000 A 
ATOM     11  C   UNL     1       0.561  10.327  19.859  0.00  0.00    +0.000 A 
ATOM     12  C   UNL     1       3.925   6.141  17.702  0.00  0.00    +0.000 A 
ATOM     13  C   UNL     1       4.586   6.299  16.469  0.00  0.00    +0.000 A 
ATOM     14  C   UNL     1       5.426   5.308  15.951  0.00  0.00    +0.000 A 
ATOM     15  C   UNL     1       5.625   4.128  16.652  0.00  0.00    +0.000 A 
ATOM     16  C   UNL     1       4.979   3.940  17.866  0.00  0.00    +0.000 A 
ATOM     17  C   UNL     1       4.129   4.932  18.394  0.00  0.00    +0.000 A 
ATOM     18  C   UNL     1       3.475   4.643  19.713  0.00  0.00    +0.000 C 
ATOM     19  C   UNL     1       2.519   5.711  20.235  0.00  0.00    +0.000 C 
ATOM     20  H   UNL     1       3.382   8.563  16.761  0.00  0.00    +0.000 HD
ENDROOT
BRANCH   1  22
ATOM     21  C   UNL     1      -1.147  11.002  22.989  0.00  0.00    +0.000 C 
ATOM     22  O   UNL     1      -0.966  11.048  21.574  0.00  0.00    +0.000 OA
ENDBRANCH   1  22
BRANCH  11  23
ATOM     23  C   UNL     1       0.453  11.705  19.291  0.00  0.00    +0.000 C 
ATOM     24  O   UNL     1       1.071  12.660  19.732  0.00  0.00    +0.000 OA
BRANCH  23  25
ATOM     25  O   UNL     1      -0.507  11.840  18.354  0.00  0.00    +0.000 OA
ATOM     26  H   UNL     1      -0.249  12.553  17.719  0.00  0.00    +0.000 HD
ENDBRANCH  23  25
ENDBRANCH  11  23
TORSDOF 3
ENDMDL
MODEL 4
REMARK VINA RESULT:      -7.6      3.363      6.731
REMARK  Name = 
REMARK  4 active torsions:
REMARK  status: ('A' for Active; 'I' for Inactive)
REMARK    1  A    between atoms: C_1  and  O_2
REMARK    2  A    between atoms: O_2  and  C_3
REMARK    3  A    between atoms: C_13  and  C_14
REMARK    4  A    between atoms: C_14  and  O_16
REMARK                            x       y       z     vdW  Elec       q    Type
REMARK                         _______ _______ _______ _____ _____    ______ ____
ROOT
ATOM      1  C   UNL     1       1.079  11.448  18.870  0.00  0.00    +0.000 A 
ATOM      2  C   UNL     1       1.854  10.898  17.850  0.00  0.00    +0.000 A 
ATOM      3  C   UNL     1       2.247   9.567  17.903  0.00  0.00    +0.000 A 
ATOM      4  C   UNL     1       1.907   8.753  18.992  0.00  0.00    +0.000 A 
ATOM      5  C   UNL     1       2.323   7.322  19.016  0.00  0.00    +0.000 A 
ATOM      6  C   UNL     1       2.018   6.568  20.089  0.00  0.00    +0.000 A 
ATOM      7  N   UNL     1       1.313   7.125  21.127  0.00  0.00    +0.000 N 
ATOM      8  C   UNL     1       0.853   8.418  21.190  0.00  0.00    +0.000 A 
ATOM      9  O   UNL     1       0.243   8.796  22.184  0.00  0.00    +0.000 OA
ATOM     10  C   UNL     1       1.160   9.318  20.049  0.00  0.00    +0.000 A 
ATOM     11  C   UNL     1       0.732  10.668  19.994  0.00  0.00    +0.000 A 
ATOM     12  C   UNL     1       2.429   5.138  20.161  0.00  0.00    +0.000 A 
ATOM     13  C   UNL     1       2.174   4.331  21.286  0.00  0.00    +0.000 A 
ATOM     14  C   UNL     1       2.551   2.984  21.327  0.00  0.00    +0.000 A 
ATOM     15  C   UNL     1       3.198   2.409  20.243  0.00  0.00    +0.000 A 
ATOM     16  C   UNL     1       3.472   3.184  19.124  0.00  0.00    +0.000 A 
ATOM     17  C   UNL     1       3.097   4.541  19.075  0.00  0.00    +0.000 A 
ATOM     18  C   UNL     1       3.431   5.299  17.825  0.00  0.00    +0.000 C 
ATOM     19  C   UNL     1       3.062   6.779  17.819  0.00  0.00    +0.000 C 
ATOM     20  H   UNL     1       1.074   6.573  21.937  0.00  0.00    +0.000 HD
ENDROOT
BRANCH   1  22
ATOM     21  C   UNL     1       1.796  13.683  18.604  0.00  0.00    +0.000 C 
ATOM     22  O   UNL     1       0.719  12.773  18.827  0.00  0.00    +0.000 OA
ENDBRANCH   1  22
BRANCH  11  23
ATOM     23  C   UNL     1      -0.151  11.316  21.012  0.00  0.00    +0.000 C 
ATOM     24  O   UNL     1      -1.366  11.369  20.905  0.00  0.00    +0.000 OA
BRANCH  23  25
ATOM     25  O   UNL     1       0.516  11.978  21.978  0.00  0.00    +0.000 OA
ATOM     26  H   UNL     1       0.144  12.889  22.070  0.00  0.00    +0.000 HD
ENDBRANCH  23  25
ENDBRANCH  11  23
TORSDOF 3
ENDMDL
MODEL 5
REMARK VINA RESULT:      -7.5      3.110      7.368
REMARK  Name = 
REMARK  4 active torsions:
REMARK  status: ('A' for Active; 'I' for Inactive)
REMARK    1  A    between atoms: C_1  and  O_2
REMARK    2  A    between atoms: O_2  and  C_3
REMARK    3  A    between atoms: C_13  and  C_14
REMARK    4  A    between atoms: C_14  and  O_16
REMARK                            x       y       z     vdW  Elec       q    Type
REMARK                         _______ _______ _______ _____ _____    ______ ____
ROOT
ATOM      1  C   UNL     1       0.429   8.730  21.151  0.00  0.00    +0.000 A 
ATOM      2  C   UNL     1       0.768   7.455  21.602  0.00  0.00    +0.000 A 
ATOM      3  C   UNL     1       1.657   6.667  20.882  0.00  0.00    +0.000 A 
ATOM      4  C   UNL     1       2.207   7.113  19.674  0.00  0.00    +0.000 A 
ATOM      5  C   UNL     1       3.174   6.255  18.930  0.00  0.00    +0.000 A 
ATOM      6  C   UNL     1       3.662   6.688  17.751  0.00  0.00    +0.000 A 
ATOM      7  N   UNL     1       3.277   7.914  17.271  0.00  0.00    +0.000 N 
ATOM      8  C   UNL     1       2.424   8.793  17.890  0.00  0.00    +0.000 A 
ATOM      9  O   UNL     1       2.151   9.858  17.346  0.00  0.00    +0.000 OA
ATOM     10  C   UNL     1       1.832   8.385  19.189  0.00  0.00    +0.000 A 
ATOM     11  C   UNL     1       0.946   9.210  19.928  0.00  0.00    +0.000 A 
ATOM     12  C   UNL     1       4.619   5.856  16.969  0.00  0.00    +0.000 A 
ATOM     13  C   UNL     1       5.112   6.249  15.710  0.00  0.00    +0.000 A 
ATOM     14  C   UNL     1       6.024   5.462  14.998  0.00  0.00    +0.000 A 
ATOM     15  C   UNL     1       6.465   4.258  15.526  0.00  0.00    +0.000 A 
ATOM     16  C   UNL     1       5.988   3.839  16.761  0.00  0.00    +0.000 A 
ATOM     17  C   UNL     1       5.068   4.625  17.483  0.00  0.00    +0.000 A 
ATOM     18  C   UNL     1       4.609   4.096  18.810  0.00  0.00    +0.000 C 
ATOM     19  C   UNL     1       3.573   4.939  19.546  0.00  0.00    +0.000 C 
ATOM     20  H   UNL     1       3.637   8.254  16.390  0.00  0.00    +0.000 HD
ENDROOT
BRANCH   1  22
ATOM     21  C   UNL     1      -0.134   9.725  23.218  0.00  0.00    +0.000 C 
ATOM     22  O   UNL     1      -0.473   9.494  21.851  0.00  0.00    +0.000 OA
ENDBRANCH   1  22
BRANCH  11  23
ATOM     23  C   UNL     1       0.581  10.608  19.548  0.00  0.00    +0.000 C 
ATOM     24  O   UNL     1       1.160  11.591  19.982  0.00  0.00    +0.000 OA
BRANCH  23  25
ATOM     25  O   UNL     1      -0.546  10.703  18.813  0.00  0.00    +0.000 OA
ATOM     26  H   UNL     1      -0.405  10.265  17.938  0.00  0.00    +0.000 HD
ENDBRANCH  23  25
ENDBRANCH  11  23
TORSDOF 3
ENDMDL
MODEL 6
REMARK VINA RESULT:      -7.4      1.415      3.256
REMARK  Name = 
REMARK  4 active torsions:
REMARK  status: ('A' for Active; 'I' for Inactive)
REMARK    1  A    between atoms: C_1  and  O_2
REMARK    2  A    between atoms: O_2  and  C_3
REMARK    3  A    between atoms: C_13  and  C_14
REMARK    4  A    between atoms: C_14  and  O_16
REMARK                            x       y       z     vdW  Elec       q    Type
REMARK                         _______ _______ _______ _____ _____    ______ ____
ROOT
ATOM      1  C   UNL     1       3.465   3.462  19.603  0.00  0.00    +0.000 A 
ATOM      2  C   UNL     1       2.653   3.728  20.704  0.00  0.00    +0.000 A 
ATOM      3  C   UNL     1       2.069   4.979  20.862  0.00  0.00    +0.000 A 
ATOM      4  C   UNL     1       2.306   6.011  19.944  0.00  0.00    +0.000 A 
ATOM      5  C   UNL     1       1.652   7.339  20.126  0.00  0.00    +0.000 A 
ATOM      6  C   UNL     1       1.923   8.328  19.253  0.00  0.00    +0.000 A 
ATOM      7  N   UNL     1       2.777   8.089  18.206  0.00  0.00    +0.000 N 
ATOM      8  C   UNL     1       3.403   6.898  17.928  0.00  0.00    +0.000 A 
ATOM      9  O   UNL     1       4.155   6.819  16.963  0.00  0.00    +0.000 OA
ATOM     10  C   UNL     1       3.164   5.760  18.852  0.00  0.00    +0.000 A 
ATOM     11  C   UNL     1       3.746   4.480  18.666  0.00  0.00    +0.000 A 
ATOM     12  C   UNL     1       1.303   9.673  19.407  0.00  0.00    +0.000 A 
ATOM     13  C   UNL     1       1.600  10.748  18.546  0.00  0.00    +0.000 A 
ATOM     14  C   UNL     1       0.993  12.000  18.696  0.00  0.00    +0.000 A 
ATOM     15  C   UNL     1       0.075  12.212  19.713  0.00  0.00    +0.000 A 
ATOM     16  C   UNL     1      -0.230  11.173  20.583  0.00  0.00    +0.000 A 
ATOM     17  C   UNL     1       0.378   9.911  20.441  0.00  0.00    +0.000 A 
ATOM     18  C   UNL     1      -0.014   8.847  21.424  0.00  0.00    +0.000 C 
ATOM     19  C   UNL     1       0.699   7.506  21.281  0.00  0.00    +0.000 C 
ATOM     20  H   UNL     1       2.988   8.819  17.542  0.00  0.00    +0.000 HD
ENDROOT
BRANCH   1  22
ATOM     21  C   UNL     1       4.826   1.806  20.596  0.00  0.00    +0.000 C 
ATOM     22  O   UNL     1       4.064   2.233  19.467  0.00  0.00    +0.000 OA
ENDBRANCH   1  22
BRANCH  11  23
ATOM     23  C   UNL     1       4.575   4.093  17.484  0.00  0.00    +0.000 C 
ATOM     24  O   UNL     1       4.099   3.668  16.444  0.00  0.00    +0.000 OA
BRANCH  23  25
ATOM     25  O   UNL     1       5.903   4.101  17.718  0.00  0.00    +0.000 OA
ATOM     26  H   UNL     1       6.074   4.433  18.633  0.00  0.00    +0.000 HD
ENDBRANCH  23  25
ENDBRANCH  11  23
TORSDOF 3
ENDMDL
MODEL 7
REMARK VINA RESULT:      -6.9      3.671      7.225
REMARK  Name = 
REMARK  4 active torsions:
REMARK  status: ('A' for Active; 'I' for Inactive)
REMARK    1  A    between atoms: C_1  and  O_2
REMARK    2  A    between atoms: O_2  and  C_3
REMARK    3  A    between atoms: C_13  and  C_14
REMARK    4  A    between atoms: C_14  and  O_16
REMARK                            x       y       z     vdW  Elec       q    Type
REMARK                         _______ _______ _______ _____ _____    ______ ____
ROOT
ATOM      1  C   UNL     1       0.222  12.499  19.828  0.00  0.00    +0.000 A 
ATOM      2  C   UNL     1       1.067  12.226  18.753  0.00  0.00    +0.000 A 
ATOM      3  C   UNL     1       1.583  10.950  18.569  0.00  0.00    +0.000 A 
ATOM      4  C   UNL     1       1.298   9.916  19.470  0.00  0.00    +0.000 A 
ATOM      5  C   UNL     1       1.848   8.549  19.239  0.00  0.00    +0.000 A 
ATOM      6  C   UNL     1       1.593   7.579  20.138  0.00  0.00    +0.000 A 
ATOM      7  N   UNL     1       0.818   7.862  21.234  0.00  0.00    +0.000 N 
ATOM      8  C   UNL     1       0.236   9.072  21.523  0.00  0.00    +0.000 A 
ATOM      9  O   UNL     1      -0.428   9.196  22.546  0.00  0.00    +0.000 OA
ATOM     10  C   UNL     1       0.480  10.198  20.585  0.00  0.00    +0.000 A 
ATOM     11  C   UNL     1      -0.074  11.490  20.770  0.00  0.00    +0.000 A 
ATOM     12  C   UNL     1       2.136   6.204  19.953  0.00  0.00    +0.000 A 
ATOM     13  C   UNL     1       1.936   5.177  20.895  0.00  0.00    +0.000 A 
ATOM     14  C   UNL     1       2.438   3.886  20.694  0.00  0.00    +0.000 A 
ATOM     15  C   UNL     1       3.159   3.590  19.547  0.00  0.00    +0.000 A 
ATOM     16  C   UNL     1       3.381   4.586  18.606  0.00  0.00    +0.000 A 
ATOM     17  C   UNL     1       2.881   5.888  18.801  0.00  0.00    +0.000 A 
ATOM     18  C   UNL     1       3.167   6.900  17.730  0.00  0.00    +0.000 C 
ATOM     19  C   UNL     1       2.660   8.314  17.991  0.00  0.00    +0.000 C 
ATOM     20  H   UNL     1       0.615   7.145  21.915  0.00  0.00    +0.000 HD
ENDROOT
BRANCH   1  22
ATOM     21  C   UNL     1      -0.225  14.611  18.869  0.00  0.00    +0.000 C 
ATOM     22  O   UNL     1      -0.261  13.770  20.022  0.00  0.00    +0.000 OA
ENDBRANCH   1  22
BRANCH  11  23
ATOM     23  C   UNL     1      -1.035  11.849  21.857  0.00  0.00    +0.000 C 
ATOM     24  O   UNL     1      -2.244  11.880  21.696  0.00  0.00    +0.000 OA
BRANCH  23  25
ATOM     25  O   UNL     1      -0.448  12.293  22.987  0.00  0.00    +0.000 OA
ATOM     26  H   UNL     1      -1.142  12.610  23.616  0.00  0.00    +0.000 HD
ENDBRANCH  23  25
ENDBRANCH  11  23
TORSDOF 3
ENDMDL
MODEL 8
REMARK VINA RESULT:      -6.8      4.074      7.814
REMARK  Name = 
REMARK  4 active torsions:
REMARK  status: ('A' for Active; 'I' for Inactive)
REMARK    1  A    between atoms: C_1  and  O_2
REMARK    2  A    between atoms: O_2  and  C_3
REMARK    3  A    between atoms: C_13  and  C_14
REMARK    4  A    between atoms: C_14  and  O_16
REMARK                            x       y       z     vdW  Elec       q    Type
REMARK                         _______ _______ _______ _____ _____    ______ ____
ROOT
ATOM      1  C   UNL     1      -0.877  13.323  20.418  0.00  0.00    +0.000 A 
ATOM      2  C   UNL     1      -0.161  13.224  19.226  0.00  0.00    +0.000 A 
ATOM      3  C   UNL     1       0.489  12.043  18.891  0.00  0.00    +0.000 A 
ATOM      4  C   UNL     1       0.472  10.937  19.751  0.00  0.00    +0.000 A 
ATOM      5  C   UNL     1       1.161   9.674  19.360  0.00  0.00    +0.000 A 
ATOM      6  C   UNL     1       1.165   8.636  20.218  0.00  0.00    +0.000 A 
ATOM      7  N   UNL     1       0.518   8.754  21.423  0.00  0.00    +0.000 N 
ATOM      8  C   UNL     1      -0.173   9.855  21.865  0.00  0.00    +0.000 A 
ATOM      9  O   UNL     1      -0.698   9.837  22.972  0.00  0.00    +0.000 OA
ATOM     10  C   UNL     1      -0.213  11.048  20.980  0.00  0.00    +0.000 A 
ATOM     11  C   UNL     1      -0.902  12.239  21.322  0.00  0.00    +0.000 A 
ATOM     12  C   UNL     1       1.854   7.361  19.872  0.00  0.00    +0.000 A 
ATOM     13  C   UNL     1       1.924   6.272  20.762  0.00  0.00    +0.000 A 
ATOM     14  C   UNL     1       2.561   5.076  20.412  0.00  0.00    +0.000 A 
ATOM     15  C   UNL     1       3.148   4.939  19.164  0.00  0.00    +0.000 A 
ATOM     16  C   UNL     1       3.103   6.000  18.269  0.00  0.00    +0.000 A 
ATOM     17  C   UNL     1       2.466   7.208  18.614  0.00  0.00    +0.000 A 
ATOM     18  C   UNL     1       2.464   8.300  17.585  0.00  0.00    +0.000 C 
ATOM     19  C   UNL     1       1.815   9.615  18.003  0.00  0.00    +0.000 C 
ATOM     20  H   UNL     1       0.510   7.984  22.076  0.00  0.00    +0.000 HD
ENDROOT
BRANCH   1  22
ATOM     21  C   UNL     1      -0.614  15.616  20.921  0.00  0.00    +0.000 C 
ATOM     22  O   UNL     1      -1.493  14.503  20.758  0.00  0.00    +0.000 OA
ENDBRANCH   1  22
BRANCH  11  23
ATOM     23  C   UNL     1      -1.741  12.408  22.547  0.00  0.00    +0.000 C 
ATOM     24  O   UNL     1      -2.932  12.143  22.582  0.00  0.00    +0.000 OA
BRANCH  23  25
ATOM     25  O   UNL     1      -1.112  13.027  23.565  0.00  0.00    +0.000 OA
ATOM     26  H   UNL     1      -0.442  13.658  23.203  0.00  0.00    +0.000 HD
ENDBRANCH  23  25
ENDBRANCH  11  23
TORSDOF 3
ENDMDL
MODEL 9
REMARK VINA RESULT:      -6.6      3.964      8.064
REMARK  Name = 
REMARK  4 active torsions:
REMARK  status: ('A' for Active; 'I' for Inactive)
REMARK    1  A    between atoms: C_1  and  O_2
REMARK    2  A    between atoms: O_2  and  C_3
REMARK    3  A    between atoms: C_13  and  C_14
REMARK    4  A    between atoms: C_14  and  O_16
REMARK                            x       y       z     vdW  Elec       q    Type
REMARK                         _______ _______ _______ _____ _____    ______ ____
ROOT
ATOM      1  C   UNL     1      -0.894  11.425  22.648  0.00  0.00    +0.000 A 
ATOM      2  C   UNL     1      -0.973  10.104  23.088  0.00  0.00    +0.000 A 
ATOM      3  C   UNL     1      -0.294   9.096  22.416  0.00  0.00    +0.000 A 
ATOM      4  C   UNL     1       0.457   9.370  21.266  0.00  0.00    +0.000 A 
ATOM      5  C   UNL     1       1.193   8.273  20.573  0.00  0.00    +0.000 A 
ATOM      6  C   UNL     1       1.878   8.552  19.448  0.00  0.00    +0.000 A 
ATOM      7  N   UNL     1       1.901   9.839  18.973  0.00  0.00    +0.000 N 
ATOM      8  C   UNL     1       1.289  10.925  19.549  0.00  0.00    +0.000 A 
ATOM      9  O   UNL     1       1.377  12.025  19.016  0.00  0.00    +0.000 OA
ATOM     10  C   UNL     1       0.503  10.698  20.789  0.00  0.00    +0.000 A 
ATOM     11  C   UNL     1      -0.165  11.740  21.481  0.00  0.00    +0.000 A 
ATOM     12  C   UNL     1       2.614   7.483  18.717  0.00  0.00    +0.000 A 
ATOM     13  C   UNL     1       3.298   7.723  17.510  0.00  0.00    +0.000 A 
ATOM     14  C   UNL     1       4.000   6.709  16.848  0.00  0.00    +0.000 A 
ATOM     15  C   UNL     1       4.033   5.427  17.374  0.00  0.00    +0.000 A 
ATOM     16  C   UNL     1       3.359   5.158  18.558  0.00  0.00    +0.000 A 
ATOM     17  C   UNL     1       2.648   6.172  19.230  0.00  0.00    +0.000 A 
ATOM     18  C   UNL     1       1.952   5.792  20.503  0.00  0.00    +0.000 C 
ATOM     19  C   UNL     1       1.146   6.895  21.182  0.00  0.00    +0.000 C 
ATOM     20  H   UNL     1       2.412  10.065  18.132  0.00  0.00    +0.000 HD
ENDROOT
BRANCH   1  22
ATOM     21  C   UNL     1      -3.008  12.231  23.328  0.00  0.00    +0.000 C 
ATOM     22  O   UNL     1      -1.592  12.413  23.299  0.00  0.00    +0.000 OA
ENDBRANCH   1  22
BRANCH  11  23
ATOM     23  C   UNL     1      -0.082  13.186  21.113  0.00  0.00    +0.000 C 
ATOM     24  O   UNL     1      -0.896  13.740  20.392  0.00  0.00    +0.000 OA
BRANCH  23  25
ATOM     25  O   UNL     1       1.054  13.792  21.512  0.00  0.00    +0.000 OA
ATOM     26  H   UNL     1       1.705  13.108  21.807  0.00  0.00    +0.000 HD
ENDBRANCH  23  25
ENDBRANCH  11  23
TORSDOF 3
ENDMDL
