MODEL 1
REMARK VINA RESULT:      -8.5      0.000      0.000
REMARK  Name = 
REMARK  7 active torsions:
REMARK  status: ('A' for Active; 'I' for Inactive)
REMARK    1  A    between atoms: C_1  and  O_2
REMARK    2  A    between atoms: O_2  and  C_3
REMARK    3  A    between atoms: C_15  and  C_16
REMARK    4  A    between atoms: C_18  and  C_19
REMARK    5  A    between atoms: C_24  and  C_25
REMARK    6  A    between atoms: C_27  and  C_28
REMARK    7  A    between atoms: C_27  and  C_29
REMARK                            x       y       z     vdW  Elec       q    Type
REMARK                         _______ _______ _______ _____ _____    ______ ____
ROOT
ATOM      1  C   UNL     1       1.581   8.024  19.950  0.00  0.00    +0.000 A 
ATOM      2  C   UNL     1       2.437   7.516  18.955  0.00  0.00    +0.000 A 
ATOM      3  C   UNL     1       2.632   8.198  17.756  0.00  0.00    +0.000 A 
ATOM      4  C   UNL     1       1.952   9.383  17.529  0.00  0.00    +0.000 A 
ATOM      5  C   UNL     1       1.084   9.878  18.503  0.00  0.00    +0.000 A 
ATOM      6  C   UNL     1       0.932   9.269  19.768  0.00  0.00    +0.000 A 
ATOM      7  C   UNL     1       0.078   9.982  20.759  0.00  0.00    +0.000 A 
ATOM      8  C   UNL     1       0.080   9.718  22.130  0.00  0.00    +0.000 A 
ATOM      9  C   UNL     1      -0.750  10.426  22.993  0.00  0.00    +0.000 A 
ATOM     10  C   UNL     1      -1.454  11.548  22.545  0.00  0.00    +0.000 A 
ATOM     11  C   UNL     1      -1.353  11.948  21.194  0.00  0.00    +0.000 A 
ATOM     12  C   UNL     1      -0.738  11.047  20.286  0.00  0.00    +0.000 A 
ATOM     13  C   UNL     1      -0.941  11.053  18.775  0.00  0.00    +0.000 C 
ATOM     14  O   UNL     1       0.331  10.962  18.105  0.00  0.00    +0.000 OA
ATOM     15  C   UNL     1      -1.790  13.351  20.896  0.00  0.00    +0.000 C 
ATOM     16  C   UNL     1      -1.422  14.083  19.640  0.00  0.00    +0.000 C 
ATOM     17  C   UNL     1      -2.314  14.080  21.904  0.00  0.00    +0.000 C 
ATOM     18  C   UNL     1      -2.499  13.621  23.326  0.00  0.00    +0.000 C 
ATOM     19  C   UNL     1      -1.469  14.313  24.232  0.00  0.00    +0.000 C 
ATOM     20  C   UNL     1      -3.918  13.975  23.791  0.00  0.00    +0.000 C 
ATOM     21  N   UNL     1      -2.323  12.182  23.447  0.00  0.00    +0.000 N 
ATOM     22  H   UNL     1      -2.202  11.875  24.404  0.00  0.00    +0.000 HD
ENDROOT
BRANCH  13  23
ATOM     23  C   UNL     1      -2.044  10.045  18.233  0.00  0.00    +0.000 C 
ATOM     24  C   UNL     1      -2.057   9.811  16.737  0.00  0.00    +0.000 C 
ATOM     25  C   UNL     1      -2.953  10.351  15.891  0.00  0.00    +0.000 C 
ATOM     26  C   UNL     1      -2.842  10.169  14.405  0.00  0.00    +0.000 C 
ATOM     27  C   UNL     1      -4.089  11.222  16.362  0.00  0.00    +0.000 C 
ATOM     28  C   UNL     1      -4.111  11.520  17.864  0.00  0.00    +0.000 C 
ATOM     29  C   UNL     1      -3.471  10.415  18.698  0.00  0.00    +0.000 C 
ENDBRANCH  13  23
BRANCH   1  31
ATOM     30  C   UNL     1       1.509   5.910  21.047  0.00  0.00    +0.000 C 
ATOM     31  O   UNL     1       1.332   7.322  21.104  0.00  0.00    +0.000 OA
ENDBRANCH   1  31
TORSDOF 2
ENDMDL
MODEL 2
REMARK VINA RESULT:      -7.4      2.747      5.335
REMARK  Name = 
REMARK  7 active torsions:
REMARK  status: ('A' for Active; 'I' for Inactive)
REMARK    1  A    between atoms: C_1  and  O_2
REMARK    2  A    between atoms: O_2  and  C_3
REMARK    3  A    between atoms: C_15  and  C_16
REMARK    4  A    between atoms: C_18  and  C_19
REMARK    5  A    between atoms: C_24  and  C_25
REMARK    6  A    between atoms: C_27  and  C_28
REMARK    7  A    between atoms: C_27  and  C_29
REMARK                            x       y       z     vdW  Elec       q    Type
REMARK                         _______ _______ _______ _____ _____    ______ ____
ROOT
ATOM      1  C   UNL     1      -4.341  11.582  16.913  0.00  0.00    +0.000 A 
ATOM      2  C   UNL     1      -4.056  10.802  15.775  0.00  0.00    +0.000 A 
ATOM      3  C   UNL     1      -2.911  10.011  15.715  0.00  0.00    +0.000 A 
ATOM      4  C   UNL     1      -2.027  10.010  16.781  0.00  0.00    +0.000 A 
ATOM      5  C   UNL     1      -2.294  10.800  17.899  0.00  0.00    +0.000 A 
ATOM      6  C   UNL     1      -3.488  11.541  18.041  0.00  0.00    +0.000 A 
ATOM      7  C   UNL     1      -3.702  12.228  19.346  0.00  0.00    +0.000 A 
ATOM      8  C   UNL     1      -4.936  12.714  19.783  0.00  0.00    +0.000 A 
ATOM      9  C   UNL     1      -5.056  13.347  21.016  0.00  0.00    +0.000 A 
ATOM     10  C   UNL     1      -3.998  13.335  21.929  0.00  0.00    +0.000 A 
ATOM     11  C   UNL     1      -2.780  12.706  21.587  0.00  0.00    +0.000 A 
ATOM     12  C   UNL     1      -2.593  12.330  20.231  0.00  0.00    +0.000 A 
ATOM     13  C   UNL     1      -1.242  12.091  19.567  0.00  0.00    +0.000 C 
ATOM     14  O   UNL     1      -1.270  10.860  18.819  0.00  0.00    +0.000 OA
ATOM     15  C   UNL     1      -1.869  12.383  22.733  0.00  0.00    +0.000 C 
ATOM     16  C   UNL     1      -0.736  11.405  22.639  0.00  0.00    +0.000 C 
ATOM     17  C   UNL     1      -2.236  12.785  23.969  0.00  0.00    +0.000 C 
ATOM     18  C   UNL     1      -3.497  13.531  24.318  0.00  0.00    +0.000 C 
ATOM     19  C   UNL     1      -4.470  12.590  25.046  0.00  0.00    +0.000 C 
ATOM     20  C   UNL     1      -3.146  14.716  25.228  0.00  0.00    +0.000 C 
ATOM     21  N   UNL     1      -4.158  14.045  23.130  0.00  0.00    +0.000 N 
ATOM     22  H   UNL     1      -5.113  14.336  23.299  0.00  0.00    +0.000 HD
ENDROOT
BRANCH  13  23
ATOM     23  C   UNL     1      -0.647  13.332  18.772  0.00  0.00    +0.000 C 
ATOM     24  C   UNL     1       0.791  13.203  18.313  0.00  0.00    +0.000 C 
ATOM     25  C   UNL     1       1.835  13.810  18.906  0.00  0.00    +0.000 C 
ATOM     26  C   UNL     1       3.248  13.551  18.470  0.00  0.00    +0.000 C 
ATOM     27  C   UNL     1       1.671  14.739  20.082  0.00  0.00    +0.000 C 
ATOM     28  C   UNL     1       0.242  14.885  20.611  0.00  0.00    +0.000 C 
ATOM     29  C   UNL     1      -0.815  14.666  19.533  0.00  0.00    +0.000 C 
ENDBRANCH  13  23
BRANCH   1  31
ATOM     30  C   UNL     1      -6.678  11.831  17.313  0.00  0.00    +0.000 C 
ATOM     31  O   UNL     1      -5.432  12.417  16.949  0.00  0.00    +0.000 OA
ENDBRANCH   1  31
TORSDOF 2
ENDMDL
MODEL 3
REMARK VINA RESULT:      -6.9      2.267      5.388
REMARK  Name = 
REMARK  7 active torsions:
REMARK  status: ('A' for Active; 'I' for Inactive)
REMARK    1  A    between atoms: C_1  and  O_2
REMARK    2  A    between atoms: O_2  and  C_3
REMARK    3  A    between atoms: C_15  and  C_16
REMARK    4  A    between atoms: C_18  and  C_19
REMARK    5  A    between atoms: C_24  and  C_25
REMARK    6  A    between atoms: C_27  and  C_28
REMARK    7  A    between atoms: C_27  and  C_29
REMARK                            x       y       z     vdW  Elec       q    Type
REMARK                         _______ _______ _______ _____ _____    ______ ____
ROOT
ATOM      1  C   UNL     1       0.670   9.352  19.683  0.00  0.00    +0.000 A 
ATOM      2  C   UNL     1       1.599   8.746  20.550  0.00  0.00    +0.000 A 
ATOM      3  C   UNL     1       1.510   8.913  21.930  0.00  0.00    +0.000 A 
ATOM      4  C   UNL     1       0.507   9.710  22.457  0.00  0.00    +0.000 A 
ATOM      5  C   UNL     1      -0.400  10.333  21.599  0.00  0.00    +0.000 A 
ATOM      6  C   UNL     1      -0.404  10.112  20.204  0.00  0.00    +0.000 A 
ATOM      7  C   UNL     1      -1.515  10.733  19.428  0.00  0.00    +0.000 A 
ATOM      8  C   UNL     1      -1.868  10.362  18.130  0.00  0.00    +0.000 A 
ATOM      9  C   UNL     1      -2.919  10.991  17.469  0.00  0.00    +0.000 A 
ATOM     10  C   UNL     1      -3.770  11.864  18.153  0.00  0.00    +0.000 A 
ATOM     11  C   UNL     1      -3.544  12.140  19.520  0.00  0.00    +0.000 A 
ATOM     12  C   UNL     1      -2.310  11.716  20.081  0.00  0.00    +0.000 A 
ATOM     13  C   UNL     1      -1.674  12.299  21.338  0.00  0.00    +0.000 C 
ATOM     14  O   UNL     1      -1.242  11.237  22.210  0.00  0.00    +0.000 OA
ATOM     15  C   UNL     1      -4.701  12.737  20.264  0.00  0.00    +0.000 C 
ATOM     16  C   UNL     1      -4.801  12.755  21.761  0.00  0.00    +0.000 C 
ATOM     17  C   UNL     1      -5.817  13.037  19.568  0.00  0.00    +0.000 C 
ATOM     18  C   UNL     1      -6.025  12.819  18.092  0.00  0.00    +0.000 C 
ATOM     19  C   UNL     1      -6.989  11.642  17.873  0.00  0.00    +0.000 C 
ATOM     20  C   UNL     1      -6.613  14.093  17.471  0.00  0.00    +0.000 C 
ATOM     21  N   UNL     1      -4.773  12.516  17.417  0.00  0.00    +0.000 N 
ATOM     22  H   UNL     1      -4.902  12.132  16.489  0.00  0.00    +0.000 HD
ENDROOT
BRANCH  13  23
ATOM     23  C   UNL     1      -0.586  13.429  21.087  0.00  0.00    +0.000 C 
ATOM     24  C   UNL     1      -0.165  14.231  22.301  0.00  0.00    +0.000 C 
ATOM     25  C   UNL     1      -0.577  15.485  22.565  0.00  0.00    +0.000 C 
ATOM     26  C   UNL     1      -0.211  16.182  23.842  0.00  0.00    +0.000 C 
ATOM     27  C   UNL     1      -1.479  16.253  21.633  0.00  0.00    +0.000 C 
ATOM     28  C   UNL     1      -1.964  15.483  20.401  0.00  0.00    +0.000 C 
ATOM     29  C   UNL     1      -0.984  14.402  19.954  0.00  0.00    +0.000 C 
ENDBRANCH  13  23
BRANCH   1  31
ATOM     30  C   UNL     1       2.017   8.713  17.824  0.00  0.00    +0.000 C 
ATOM     31  O   UNL     1       0.794   9.247  18.319  0.00  0.00    +0.000 OA
ENDBRANCH   1  31
TORSDOF 2
ENDMDL
MODEL 4
REMARK VINA RESULT:      -6.9      9.708     11.187
REMARK  Name = 
REMARK  7 active torsions:
REMARK  status: ('A' for Active; 'I' for Inactive)
REMARK    1  A    between atoms: C_1  and  O_2
REMARK    2  A    between atoms: O_2  and  C_3
REMARK    3  A    between atoms: C_15  and  C_16
REMARK    4  A    between atoms: C_18  and  C_19
REMARK    5  A    between atoms: C_24  and  C_25
REMARK    6  A    between atoms: C_27  and  C_28
REMARK    7  A    between atoms: C_27  and  C_29
REMARK                            x       y       z     vdW  Elec       q    Type
REMARK                         _______ _______ _______ _____ _____    ______ ____
ROOT
ATOM      1  C   UNL     1      10.294  11.353  19.472  0.00  0.00    +0.000 A 
ATOM      2  C   UNL     1      11.290  11.298  18.478  0.00  0.00    +0.000 A 
ATOM      3  C   UNL     1      12.225  12.321  18.340  0.00  0.00    +0.000 A 
ATOM      4  C   UNL     1      12.159  13.422  19.177  0.00  0.00    +0.000 A 
ATOM      5  C   UNL     1      11.158  13.492  20.147  0.00  0.00    +0.000 A 
ATOM      6  C   UNL     1      10.252  12.435  20.383  0.00  0.00    +0.000 A 
ATOM      7  C   UNL     1       9.326  12.589  21.541  0.00  0.00    +0.000 A 
ATOM      8  C   UNL     1       8.612  11.538  22.119  0.00  0.00    +0.000 A 
ATOM      9  C   UNL     1       7.764  11.762  23.199  0.00  0.00    +0.000 A 
ATOM     10  C   UNL     1       7.759  12.996  23.857  0.00  0.00    +0.000 A 
ATOM     11  C   UNL     1       8.594  14.040  23.402  0.00  0.00    +0.000 A 
ATOM     12  C   UNL     1       9.221  13.876  22.139  0.00  0.00    +0.000 A 
ATOM     13  C   UNL     1       9.749  15.012  21.270  0.00  0.00    +0.000 C 
ATOM     14  O   UNL     1      11.076  14.701  20.803  0.00  0.00    +0.000 OA
ATOM     15  C   UNL     1       8.832  15.156  24.375  0.00  0.00    +0.000 C 
ATOM     16  C   UNL     1       9.953  16.143  24.243  0.00  0.00    +0.000 C 
ATOM     17  C   UNL     1       8.177  15.120  25.554  0.00  0.00    +0.000 C 
ATOM     18  C   UNL     1       7.220  14.047  26.003  0.00  0.00    +0.000 C 
ATOM     19  C   UNL     1       7.882  13.184  27.088  0.00  0.00    +0.000 C 
ATOM     20  C   UNL     1       5.952  14.704  26.566  0.00  0.00    +0.000 C 
ATOM     21  N   UNL     1       6.836  13.181  24.900  0.00  0.00    +0.000 N 
ATOM     22  H   UNL     1       6.396  12.321  25.202  0.00  0.00    +0.000 HD
ENDROOT
BRANCH  13  23
ATOM     23  C   UNL     1       8.756  15.520  20.138  0.00  0.00    +0.000 C 
ATOM     24  C   UNL     1       9.352  16.434  19.088  0.00  0.00    +0.000 C 
ATOM     25  C   UNL     1       9.171  17.767  19.048  0.00  0.00    +0.000 C 
ATOM     26  C   UNL     1       9.881  18.629  18.046  0.00  0.00    +0.000 C 
ATOM     27  C   UNL     1       8.296  18.494  20.037  0.00  0.00    +0.000 C 
ATOM     28  C   UNL     1       7.689  17.627  21.143  0.00  0.00    +0.000 C 
ATOM     29  C   UNL     1       7.481  16.177  20.713  0.00  0.00    +0.000 C 
ENDBRANCH  13  23
BRANCH   1  31
ATOM     30  C   UNL     1       8.780   9.897  18.345  0.00  0.00    +0.000 C 
ATOM     31  O   UNL     1       9.327  10.381  19.567  0.00  0.00    +0.000 OA
ENDBRANCH   1  31
TORSDOF 2
ENDMDL
MODEL 5
REMARK VINA RESULT:      -6.7      9.343     10.758
REMARK  Name = 
REMARK  7 active torsions:
REMARK  status: ('A' for Active; 'I' for Inactive)
REMARK    1  A    between atoms: C_1  and  O_2
REMARK    2  A    between atoms: O_2  and  C_3
REMARK    3  A    between atoms: C_15  and  C_16
REMARK    4  A    between atoms: C_18  and  C_19
REMARK    5  A    between atoms: C_24  and  C_25
REMARK    6  A    between atoms: C_27  and  C_28
REMARK    7  A    between atoms: C_27  and  C_29
REMARK                            x       y       z     vdW  Elec       q    Type
REMARK                         _______ _______ _______ _____ _____    ______ ____
ROOT
ATOM      1  C   UNL     1      10.203  11.499  19.971  0.00  0.00    +0.000 A 
ATOM      2  C   UNL     1      11.216  11.547  18.995  0.00  0.00    +0.000 A 
ATOM      3  C   UNL     1      12.045  12.660  18.874  0.00  0.00    +0.000 A 
ATOM      4  C   UNL     1      11.853  13.747  19.711  0.00  0.00    +0.000 A 
ATOM      5  C   UNL     1      10.833  13.712  20.663  0.00  0.00    +0.000 A 
ATOM      6  C   UNL     1      10.035  12.568  20.883  0.00  0.00    +0.000 A 
ATOM      7  C   UNL     1       9.078  12.625  22.024  0.00  0.00    +0.000 A 
ATOM      8  C   UNL     1       8.464  11.506  22.589  0.00  0.00    +0.000 A 
ATOM      9  C   UNL     1       7.579  11.641  23.654  0.00  0.00    +0.000 A 
ATOM     10  C   UNL     1       7.437  12.866  24.312  0.00  0.00    +0.000 A 
ATOM     11  C   UNL     1       8.170  13.990  23.872  0.00  0.00    +0.000 A 
ATOM     12  C   UNL     1       8.833  13.894  22.620  0.00  0.00    +0.000 A 
ATOM     13  C   UNL     1       9.258  15.079  21.761  0.00  0.00    +0.000 C 
ATOM     14  O   UNL     1      10.618  14.905  21.318  0.00  0.00    +0.000 OA
ATOM     15  C   UNL     1       8.276  15.123  24.849  0.00  0.00    +0.000 C 
ATOM     16  C   UNL     1       9.294  16.218  24.738  0.00  0.00    +0.000 C 
ATOM     17  C   UNL     1       7.607  15.018  26.017  0.00  0.00    +0.000 C 
ATOM     18  C   UNL     1       6.757  13.852  26.448  0.00  0.00    +0.000 C 
ATOM     19  C   UNL     1       7.484  13.058  27.545  0.00  0.00    +0.000 C 
ATOM     20  C   UNL     1       5.419  14.376  26.989  0.00  0.00    +0.000 C 
ATOM     21  N   UNL     1       6.482  12.954  25.338  0.00  0.00    +0.000 N 
ATOM     22  H   UNL     1       6.126  12.053  25.632  0.00  0.00    +0.000 HD
ENDROOT
BRANCH  13  23
ATOM     23  C   UNL     1       8.238  15.486  20.612  0.00  0.00    +0.000 C 
ATOM     24  C   UNL     1       7.905  14.408  19.602  0.00  0.00    +0.000 C 
ATOM     25  C   UNL     1       8.405  14.354  18.354  0.00  0.00    +0.000 C 
ATOM     26  C   UNL     1       8.122  13.197  17.441  0.00  0.00    +0.000 C 
ATOM     27  C   UNL     1       9.328  15.411  17.806  0.00  0.00    +0.000 C 
ATOM     28  C   UNL     1       9.727  16.514  18.791  0.00  0.00    +0.000 C 
ATOM     29  C   UNL     1       8.667  16.766  19.859  0.00  0.00    +0.000 C 
ENDBRANCH  13  23
BRANCH   1  31
ATOM     30  C   UNL     1       8.957   9.824  18.820  0.00  0.00    +0.000 C 
ATOM     31  O   UNL     1       9.338  10.433  20.050  0.00  0.00    +0.000 OA
ENDBRANCH   1  31
TORSDOF 2
ENDMDL
MODEL 6
REMARK VINA RESULT:      -6.6      2.534      5.564
REMARK  Name = 
REMARK  7 active torsions:
REMARK  status: ('A' for Active; 'I' for Inactive)
REMARK    1  A    between atoms: C_1  and  O_2
REMARK    2  A    between atoms: O_2  and  C_3
REMARK    3  A    between atoms: C_15  and  C_16
REMARK    4  A    between atoms: C_18  and  C_19
REMARK    5  A    between atoms: C_24  and  C_25
REMARK    6  A    between atoms: C_27  and  C_28
REMARK    7  A    between atoms: C_27  and  C_29
REMARK                            x       y       z     vdW  Elec       q    Type
REMARK                         _______ _______ _______ _____ _____    ______ ____
ROOT
ATOM      1  C   UNL     1      -2.344  10.769  17.491  0.00  0.00    +0.000 A 
ATOM      2  C   UNL     1      -1.241  10.007  17.063  0.00  0.00    +0.000 A 
ATOM      3  C   UNL     1      -0.196   9.703  17.933  0.00  0.00    +0.000 A 
ATOM      4  C   UNL     1      -0.231  10.180  19.233  0.00  0.00    +0.000 A 
ATOM      5  C   UNL     1      -1.311  10.957  19.653  0.00  0.00    +0.000 A 
ATOM      6  C   UNL     1      -2.435  11.206  18.834  0.00  0.00    +0.000 A 
ATOM      7  C   UNL     1      -3.575  11.934  19.460  0.00  0.00    +0.000 A 
ATOM      8  C   UNL     1      -4.865  11.976  18.928  0.00  0.00    +0.000 A 
ATOM      9  C   UNL     1      -5.878  12.680  19.571  0.00  0.00    +0.000 A 
ATOM     10  C   UNL     1      -5.685  13.190  20.858  0.00  0.00    +0.000 A 
ATOM     11  C   UNL     1      -4.438  13.025  21.501  0.00  0.00    +0.000 A 
ATOM     12  C   UNL     1      -3.349  12.565  20.715  0.00  0.00    +0.000 A 
ATOM     13  C   UNL     1      -1.877  12.763  21.058  0.00  0.00    +0.000 C 
ATOM     14  O   UNL     1      -1.162  11.522  20.901  0.00  0.00    +0.000 OA
ATOM     15  C   UNL     1      -4.440  13.227  22.987  0.00  0.00    +0.000 C 
ATOM     16  C   UNL     1      -3.343  12.743  23.889  0.00  0.00    +0.000 C 
ATOM     17  C   UNL     1      -5.588  13.626  23.572  0.00  0.00    +0.000 C 
ATOM     18  C   UNL     1      -6.896  13.884  22.871  0.00  0.00    +0.000 C 
ATOM     19  C   UNL     1      -7.888  12.755  23.192  0.00  0.00    +0.000 C 
ATOM     20  C   UNL     1      -7.468  15.227  23.347  0.00  0.00    +0.000 C 
ATOM     21  N   UNL     1      -6.723  13.945  21.428  0.00  0.00    +0.000 N 
ATOM     22  H   UNL     1      -7.595  13.876  20.919  0.00  0.00    +0.000 HD
ENDROOT
BRANCH  13  23
ATOM     23  C   UNL     1      -1.182  14.015  20.369  0.00  0.00    +0.000 C 
ATOM     24  C   UNL     1       0.319  14.123  20.540  0.00  0.00    +0.000 C 
ATOM     25  C   UNL     1       0.929  14.971  21.389  0.00  0.00    +0.000 C 
ATOM     26  C   UNL     1       2.415  14.949  21.592  0.00  0.00    +0.000 C 
ATOM     27  C   UNL     1       0.165  15.957  22.236  0.00  0.00    +0.000 C 
ATOM     28  C   UNL     1      -1.360  15.875  22.129  0.00  0.00    +0.000 C 
ATOM     29  C   UNL     1      -1.833  15.357  20.773  0.00  0.00    +0.000 C 
ENDBRANCH  13  23
BRANCH   1  31
ATOM     30  C   UNL     1      -3.177  10.746  15.258  0.00  0.00    +0.000 C 
ATOM     31  O   UNL     1      -3.343  11.130  16.619  0.00  0.00    +0.000 OA
ENDBRANCH   1  31
TORSDOF 2
ENDMDL
MODEL 7
REMARK VINA RESULT:      -6.6      2.522      5.309
REMARK  Name = 
REMARK  7 active torsions:
REMARK  status: ('A' for Active; 'I' for Inactive)
REMARK    1  A    between atoms: C_1  and  O_2
REMARK    2  A    between atoms: O_2  and  C_3
REMARK    3  A    between atoms: C_15  and  C_16
REMARK    4  A    between atoms: C_18  and  C_19
REMARK    5  A    between atoms: C_24  and  C_25
REMARK    6  A    between atoms: C_27  and  C_28
REMARK    7  A    between atoms: C_27  and  C_29
REMARK                            x       y       z     vdW  Elec       q    Type
REMARK                         _______ _______ _______ _____ _____    ______ ____
ROOT
ATOM      1  C   UNL     1      -2.616  10.850  17.541  0.00  0.00    +0.000 A 
ATOM      2  C   UNL     1      -1.572  10.028  17.075  0.00  0.00    +0.000 A 
ATOM      3  C   UNL     1      -0.445   9.785  17.856  0.00  0.00    +0.000 A 
ATOM      4  C   UNL     1      -0.337  10.382  19.101  0.00  0.00    +0.000 A 
ATOM      5  C   UNL     1      -1.358  11.217  19.556  0.00  0.00    +0.000 A 
ATOM      6  C   UNL     1      -2.559  11.412  18.839  0.00  0.00    +0.000 A 
ATOM      7  C   UNL     1      -3.618  12.219  19.508  0.00  0.00    +0.000 A 
ATOM      8  C   UNL     1      -4.956  12.238  19.113  0.00  0.00    +0.000 A 
ATOM      9  C   UNL     1      -5.888  13.020  19.788  0.00  0.00    +0.000 A 
ATOM     10  C   UNL     1      -5.554  13.645  20.993  0.00  0.00    +0.000 A 
ATOM     11  C   UNL     1      -4.248  13.513  21.516  0.00  0.00    +0.000 A 
ATOM     12  C   UNL     1      -3.254  12.959  20.668  0.00  0.00    +0.000 A 
ATOM     13  C   UNL     1      -1.752  13.158  20.834  0.00  0.00    +0.000 C 
ATOM     14  O   UNL     1      -1.071  11.893  20.722  0.00  0.00    +0.000 OA
ATOM     15  C   UNL     1      -4.090  13.854  22.967  0.00  0.00    +0.000 C 
ATOM     16  C   UNL     1      -2.910  13.433  23.792  0.00  0.00    +0.000 C 
ATOM     17  C   UNL     1      -5.166  14.330  23.629  0.00  0.00    +0.000 C 
ATOM     18  C   UNL     1      -6.537  14.549  23.046  0.00  0.00    +0.000 C 
ATOM     19  C   UNL     1      -7.502  13.476  23.576  0.00  0.00    +0.000 C 
ATOM     20  C   UNL     1      -7.041  15.941  23.449  0.00  0.00    +0.000 C 
ATOM     21  N   UNL     1      -6.517  14.471  21.594  0.00  0.00    +0.000 N 
ATOM     22  H   UNL     1      -7.439  14.373  21.187  0.00  0.00    +0.000 HD
ENDROOT
BRANCH  13  23
ATOM     23  C   UNL     1      -1.119  14.325  19.961  0.00  0.00    +0.000 C 
ATOM     24  C   UNL     1      -0.044  13.915  18.976  0.00  0.00    +0.000 C 
ATOM     25  C   UNL     1       1.274  14.113  19.163  0.00  0.00    +0.000 C 
ATOM     26  C   UNL     1       2.295  13.582  18.200  0.00  0.00    +0.000 C 
ATOM     27  C   UNL     1       1.822  14.825  20.374  0.00  0.00    +0.000 C 
ATOM     28  C   UNL     1       0.784  15.237  21.422  0.00  0.00    +0.000 C 
ATOM     29  C   UNL     1      -0.594  15.497  20.821  0.00  0.00    +0.000 C 
ENDBRANCH  13  23
BRANCH   1  31
ATOM     30  C   UNL     1      -3.620  10.756  15.382  0.00  0.00    +0.000 C 
ATOM     31  O   UNL     1      -3.697  11.149  16.748  0.00  0.00    +0.000 OA
ENDBRANCH   1  31
TORSDOF 2
ENDMDL
MODEL 8
REMARK VINA RESULT:      -6.5      8.442     11.608
REMARK  Name = 
REMARK  7 active torsions:
REMARK  status: ('A' for Active; 'I' for Inactive)
REMARK    1  A    between atoms: C_1  and  O_2
REMARK    2  A    between atoms: O_2  and  C_3
REMARK    3  A    between atoms: C_15  and  C_16
REMARK    4  A    between atoms: C_18  and  C_19
REMARK    5  A    between atoms: C_24  and  C_25
REMARK    6  A    between atoms: C_27  and  C_28
REMARK    7  A    between atoms: C_27  and  C_29
REMARK                            x       y       z     vdW  Elec       q    Type
REMARK                         _______ _______ _______ _____ _____    ______ ____
ROOT
ATOM      1  C   UNL     1       4.121  15.867  18.998  0.00  0.00    +0.000 A 
ATOM      2  C   UNL     1       3.223  16.837  19.482  0.00  0.00    +0.000 A 
ATOM      3  C   UNL     1       3.594  17.720  20.492  0.00  0.00    +0.000 A 
ATOM      4  C   UNL     1       4.860  17.627  21.047  0.00  0.00    +0.000 A 
ATOM      5  C   UNL     1       5.744  16.651  20.587  0.00  0.00    +0.000 A 
ATOM      6  C   UNL     1       5.442  15.800  19.501  0.00  0.00    +0.000 A 
ATOM      7  C   UNL     1       6.532  14.901  19.028  0.00  0.00    +0.000 A 
ATOM      8  C   UNL     1       6.532  14.251  17.793  0.00  0.00    +0.000 A 
ATOM      9  C   UNL     1       7.587  13.424  17.423  0.00  0.00    +0.000 A 
ATOM     10  C   UNL     1       8.759  13.380  18.183  0.00  0.00    +0.000 A 
ATOM     11  C   UNL     1       8.864  14.155  19.360  0.00  0.00    +0.000 A 
ATOM     12  C   UNL     1       7.678  14.754  19.859  0.00  0.00    +0.000 A 
ATOM     13  C   UNL     1       7.465  15.206  21.299  0.00  0.00    +0.000 C 
ATOM     14  O   UNL     1       6.904  16.533  21.323  0.00  0.00    +0.000 OA
ATOM     15  C   UNL     1      10.254  14.368  19.878  0.00  0.00    +0.000 C 
ATOM     16  C   UNL     1      10.614  15.440  20.864  0.00  0.00    +0.000 C 
ATOM     17  C   UNL     1      11.271  13.748  19.243  0.00  0.00    +0.000 C 
ATOM     18  C   UNL     1      11.147  12.853  18.038  0.00  0.00    +0.000 C 
ATOM     19  C   UNL     1      11.678  13.583  16.794  0.00  0.00    +0.000 C 
ATOM     20  C   UNL     1      11.960  11.573  18.273  0.00  0.00    +0.000 C 
ATOM     21  N   UNL     1       9.763  12.479  17.793  0.00  0.00    +0.000 N 
ATOM     22  H   UNL     1       9.613  12.086  16.872  0.00  0.00    +0.000 HD
ENDROOT
BRANCH  13  23
ATOM     23  C   UNL     1       6.722  14.161  22.237  0.00  0.00    +0.000 C 
ATOM     24  C   UNL     1       6.409  14.630  23.643  0.00  0.00    +0.000 C 
ATOM     25  C   UNL     1       7.097  14.260  24.739  0.00  0.00    +0.000 C 
ATOM     26  C   UNL     1       6.806  14.849  26.088  0.00  0.00    +0.000 C 
ATOM     27  C   UNL     1       8.243  13.282  24.684  0.00  0.00    +0.000 C 
ATOM     28  C   UNL     1       8.627  12.795  23.283  0.00  0.00    +0.000 C 
ATOM     29  C   UNL     1       7.451  12.800  22.311  0.00  0.00    +0.000 C 
ENDBRANCH  13  23
BRANCH   1  31
ATOM     30  C   UNL     1       2.666  14.076  18.399  0.00  0.00    +0.000 C 
ATOM     31  O   UNL     1       3.737  14.948  18.051  0.00  0.00    +0.000 OA
ENDBRANCH   1  31
TORSDOF 2
ENDMDL
MODEL 9
REMARK VINA RESULT:      -6.4      2.420      5.217
REMARK  Name = 
REMARK  7 active torsions:
REMARK  status: ('A' for Active; 'I' for Inactive)
REMARK    1  A    between atoms: C_1  and  O_2
REMARK    2  A    between atoms: O_2  and  C_3
REMARK    3  A    between atoms: C_15  and  C_16
REMARK    4  A    between atoms: C_18  and  C_19
REMARK    5  A    between atoms: C_24  and  C_25
REMARK    6  A    between atoms: C_27  and  C_28
REMARK    7  A    between atoms: C_27  and  C_29
REMARK                            x       y       z     vdW  Elec       q    Type
REMARK                         _______ _______ _______ _____ _____    ______ ____
ROOT
ATOM      1  C   UNL     1      -2.001  10.651  17.850  0.00  0.00    +0.000 A 
ATOM      2  C   UNL     1      -0.958   9.801  17.434  0.00  0.00    +0.000 A 
ATOM      3  C   UNL     1       0.249   9.752  18.127  0.00  0.00    +0.000 A 
ATOM      4  C   UNL     1       0.437  10.571  19.228  0.00  0.00    +0.000 A 
ATOM      5  C   UNL     1      -0.585  11.433  19.628  0.00  0.00    +0.000 A 
ATOM      6  C   UNL     1      -1.857  11.443  19.014  0.00  0.00    +0.000 A 
ATOM      7  C   UNL     1      -2.896  12.315  19.633  0.00  0.00    +0.000 A 
ATOM      8  C   UNL     1      -4.264  12.205  19.379  0.00  0.00    +0.000 A 
ATOM      9  C   UNL     1      -5.173  13.059  19.995  0.00  0.00    +0.000 A 
ATOM     10  C   UNL     1      -4.767  13.907  21.029  0.00  0.00    +0.000 A 
ATOM     11  C   UNL     1      -3.413  13.928  21.431  0.00  0.00    +0.000 A 
ATOM     12  C   UNL     1      -2.470  13.269  20.598  0.00  0.00    +0.000 A 
ATOM     13  C   UNL     1      -0.973  13.557  20.572  0.00  0.00    +0.000 C 
ATOM     14  O   UNL     1      -0.232  12.323  20.619  0.00  0.00    +0.000 OA
ATOM     15  C   UNL     1      -3.141  14.535  22.775  0.00  0.00    +0.000 C 
ATOM     16  C   UNL     1      -1.866  14.323  23.536  0.00  0.00    +0.000 C 
ATOM     17  C   UNL     1      -4.177  15.080  23.447  0.00  0.00    +0.000 C 
ATOM     18  C   UNL     1      -5.607  15.131  22.977  0.00  0.00    +0.000 C 
ATOM     19  C   UNL     1      -6.453  14.134  23.785  0.00  0.00    +0.000 C 
ATOM     20  C   UNL     1      -6.153  16.552  23.175  0.00  0.00    +0.000 C 
ATOM     21  N   UNL     1      -5.717  14.789  21.568  0.00  0.00    +0.000 N 
ATOM     22  H   UNL     1      -6.666  14.580  21.282  0.00  0.00    +0.000 HD
ENDROOT
BRANCH  13  23
ATOM     23  C   UNL     1      -0.495  14.570  19.445  0.00  0.00    +0.000 C 
ATOM     24  C   UNL     1       0.982  14.549  19.113  0.00  0.00    +0.000 C 
ATOM     25  C   UNL     1       1.867  15.478  19.521  0.00  0.00    +0.000 C 
ATOM     26  C   UNL     1       3.336  15.338  19.252  0.00  0.00    +0.000 C 
ATOM     27  C   UNL     1       1.459  16.685  20.326  0.00  0.00    +0.000 C 
ATOM     28  C   UNL     1      -0.020  16.746  20.720  0.00  0.00    +0.000 C 
ATOM     29  C   UNL     1      -0.928  16.026  19.727  0.00  0.00    +0.000 C 
ENDBRANCH  13  23
BRANCH   1  31
ATOM     30  C   UNL     1      -3.041  10.907  15.721  0.00  0.00    +0.000 C 
ATOM     31  O   UNL     1      -3.167  10.754  17.131  0.00  0.00    +0.000 OA
ENDBRANCH   1  31
TORSDOF 2
ENDMDL
