MODEL 1
REMARK VINA RESULT:      -8.7      0.000      0.000
REMARK  Name = 
REMARK  4 active torsions:
REMARK  status: ('A' for Active; 'I' for Inactive)
REMARK    1  A    between atoms: C_1  and  N_2
REMARK    2  A    between atoms: C_3  and  C_4
REMARK    3  A    between atoms: C_5  and  C_6
REMARK    4  A    between atoms: C_16  and  N_17
REMARK                            x       y       z     vdW  Elec       q    Type
REMARK                         _______ _______ _______ _____ _____    ______ ____
ROOT
ATOM      1  C   UNL     1       0.736   5.114  20.370  0.00  0.00    +0.000 C 
ATOM      2  N   UNL     1       1.998   5.204  19.601  0.00  0.00    +0.000 N 
ATOM      3  C   UNL     1       2.558   6.433  19.302  0.00  0.00    +0.000 A 
ATOM      4  C   UNL     1       3.672   6.486  18.467  0.00  0.00    +0.000 A 
ATOM      5  C   UNL     1       4.262   5.355  17.899  0.00  0.00    +0.000 A 
ATOM      6  C   UNL     1       3.723   4.082  18.252  0.00  0.00    +0.000 A 
ATOM      7  C   UNL     1       4.221   2.858  17.739  0.00  0.00    +0.000 A 
ATOM      8  C   UNL     1       3.662   1.634  18.094  0.00  0.00    +0.000 A 
ATOM      9  C   UNL     1       2.578   1.587  18.953  0.00  0.00    +0.000 A 
ATOM     10  C   UNL     1       2.035   2.764  19.454  0.00  0.00    +0.000 A 
ATOM     11  C   UNL     1       2.581   4.036  19.124  0.00  0.00    +0.000 A 
ENDROOT
BRANCH   5  12
ATOM     12  N   UNL     1       5.349   5.598  16.970  0.00  0.00    +0.000 N 
ATOM     13  C   UNL     1       5.035   5.952  15.582  0.00  0.00    +0.000 C 
ATOM     14  C   UNL     1       5.664   4.925  14.644  0.00  0.00    +0.000 C 
ATOM     15  C   UNL     1       7.172   4.875  14.880  0.00  0.00    +0.000 C 
ATOM     16  C   UNL     1       7.462   4.525  16.351  0.00  0.00    +0.000 C 
ATOM     17  C   UNL     1       6.775   5.541  17.283  0.00  0.00    +0.000 C 
ENDBRANCH   5  12
BRANCH   3  18
ATOM     18  C   UNL     1       2.038   7.734  19.863  0.00  0.00    +0.000 C 
ATOM     19  C   UNL     1       1.466   8.713  19.121  0.00  0.00    +0.000 C 
BRANCH  19  20
ATOM     20  C   UNL     1       1.011  10.003  19.694  0.00  0.00    +0.000 A 
ATOM     21  C   UNL     1       1.156  11.276  19.141  0.00  0.00    +0.000 A 
ATOM     22  N   UNL     1       0.593  12.202  19.948  0.00  0.00    +0.000 N 
ATOM     23  C   UNL     1       0.098  11.537  21.005  0.00  0.00    +0.000 A 
ATOM     24  C   UNL     1      -0.573  12.078  22.100  0.00  0.00    +0.000 A 
ATOM     25  C   UNL     1      -1.006  11.198  23.106  0.00  0.00    +0.000 A 
ATOM     26  C   UNL     1      -0.763   9.812  22.995  0.00  0.00    +0.000 A 
ATOM     27  C   UNL     1      -0.087   9.290  21.875  0.00  0.00    +0.000 A 
ATOM     28  C   UNL     1       0.334  10.190  20.891  0.00  0.00    +0.000 A 
ATOM     29  H   UNL     1       0.553  13.231  19.779  0.00  0.00    +0.000 HD
ENDBRANCH  19  20
ENDBRANCH   3  18
TORSDOF 3
ENDMDL
MODEL 2
REMARK VINA RESULT:      -8.2      1.933      2.063
REMARK  Name = 
REMARK  4 active torsions:
REMARK  status: ('A' for Active; 'I' for Inactive)
REMARK    1  A    between atoms: C_1  and  N_2
REMARK    2  A    between atoms: C_3  and  C_4
REMARK    3  A    between atoms: C_5  and  C_6
REMARK    4  A    between atoms: C_16  and  N_17
REMARK                            x       y       z     vdW  Elec       q    Type
REMARK                         _______ _______ _______ _____ _____    ______ ____
ROOT
ATOM      1  C   UNL     1       1.015   5.878  20.789  0.00  0.00    +0.000 C 
ATOM      2  N   UNL     1       2.241   5.875  19.957  0.00  0.00    +0.000 N 
ATOM      3  C   UNL     1       2.584   6.981  19.201  0.00  0.00    +0.000 A 
ATOM      4  C   UNL     1       3.670   6.897  18.331  0.00  0.00    +0.000 A 
ATOM      5  C   UNL     1       4.437   5.742  18.169  0.00  0.00    +0.000 A 
ATOM      6  C   UNL     1       4.121   4.618  18.988  0.00  0.00    +0.000 A 
ATOM      7  C   UNL     1       4.814   3.384  18.917  0.00  0.00    +0.000 A 
ATOM      8  C   UNL     1       4.469   2.303  19.722  0.00  0.00    +0.000 A 
ATOM      9  C   UNL     1       3.413   2.406  20.610  0.00  0.00    +0.000 A 
ATOM     10  C   UNL     1       2.684   3.586  20.692  0.00  0.00    +0.000 A 
ATOM     11  C   UNL     1       3.008   4.718  19.893  0.00  0.00    +0.000 A 
ENDROOT
BRANCH   5  12
ATOM     12  N   UNL     1       5.463   5.794  17.144  0.00  0.00    +0.000 N 
ATOM     13  C   UNL     1       5.068   6.015  15.749  0.00  0.00    +0.000 C 
ATOM     14  C   UNL     1       5.548   4.844  14.896  0.00  0.00    +0.000 C 
ATOM     15  C   UNL     1       7.063   4.702  15.032  0.00  0.00    +0.000 C 
ATOM     16  C   UNL     1       7.441   4.496  16.510  0.00  0.00    +0.000 C 
ATOM     17  C   UNL     1       6.901   5.661  17.362  0.00  0.00    +0.000 C 
ENDBRANCH   5  12
BRANCH   3  18
ATOM     18  C   UNL     1       1.857   8.301  19.293  0.00  0.00    +0.000 C 
ATOM     19  C   UNL     1       1.880   9.254  18.330  0.00  0.00    +0.000 C 
BRANCH  19  20
ATOM     20  C   UNL     1       1.197  10.563  18.470  0.00  0.00    +0.000 A 
ATOM     21  C   UNL     1       1.787  11.810  18.681  0.00  0.00    +0.000 A 
ATOM     22  N   UNL     1       0.838  12.771  18.733  0.00  0.00    +0.000 N 
ATOM     23  C   UNL     1      -0.342  12.153  18.562  0.00  0.00    +0.000 A 
ATOM     24  C   UNL     1      -1.605  12.742  18.542  0.00  0.00    +0.000 A 
ATOM     25  C   UNL     1      -2.717  11.906  18.354  0.00  0.00    +0.000 A 
ATOM     26  C   UNL     1      -2.545  10.514  18.190  0.00  0.00    +0.000 A 
ATOM     27  C   UNL     1      -1.257   9.945  18.209  0.00  0.00    +0.000 A 
ATOM     28  C   UNL     1      -0.168  10.802  18.400  0.00  0.00    +0.000 A 
ATOM     29  H   UNL     1       0.996  13.792  18.877  0.00  0.00    +0.000 HD
ENDBRANCH  19  20
ENDBRANCH   3  18
TORSDOF 3
ENDMDL
MODEL 3
REMARK VINA RESULT:      -8.1      1.801      8.613
REMARK  Name = 
REMARK  4 active torsions:
REMARK  status: ('A' for Active; 'I' for Inactive)
REMARK    1  A    between atoms: C_1  and  N_2
REMARK    2  A    between atoms: C_3  and  C_4
REMARK    3  A    between atoms: C_5  and  C_6
REMARK    4  A    between atoms: C_16  and  N_17
REMARK                            x       y       z     vdW  Elec       q    Type
REMARK                         _______ _______ _______ _____ _____    ______ ____
ROOT
ATOM      1  C   UNL     1       1.228   7.198  21.119  0.00  0.00    +0.000 C 
ATOM      2  N   UNL     1       1.045   8.514  20.466  0.00  0.00    +0.000 N 
ATOM      3  C   UNL     1       1.574   8.761  19.212  0.00  0.00    +0.000 A 
ATOM      4  C   UNL     1       1.497  10.049  18.685  0.00  0.00    +0.000 A 
ATOM      5  C   UNL     1       0.915  11.123  19.361  0.00  0.00    +0.000 A 
ATOM      6  C   UNL     1       0.318  10.859  20.630  0.00  0.00    +0.000 A 
ATOM      7  C   UNL     1      -0.295  11.860  21.423  0.00  0.00    +0.000 A 
ATOM      8  C   UNL     1      -0.856  11.571  22.663  0.00  0.00    +0.000 A 
ATOM      9  C   UNL     1      -0.808  10.281  23.164  0.00  0.00    +0.000 A 
ATOM     10  C   UNL     1      -0.187   9.274  22.436  0.00  0.00    +0.000 A 
ATOM     11  C   UNL     1       0.391   9.525  21.160  0.00  0.00    +0.000 A 
ENDROOT
BRANCH   5  12
ATOM     12  N   UNL     1       1.015  12.417  18.713  0.00  0.00    +0.000 N 
ATOM     13  C   UNL     1       2.341  12.977  18.437  0.00  0.00    +0.000 C 
ATOM     14  C   UNL     1       2.476  14.326  19.138  0.00  0.00    +0.000 C 
ATOM     15  C   UNL     1       1.365  15.261  18.661  0.00  0.00    +0.000 C 
ATOM     16  C   UNL     1      -0.010  14.630  18.945  0.00  0.00    +0.000 C 
ATOM     17  C   UNL     1      -0.106  13.245  18.275  0.00  0.00    +0.000 C 
ENDBRANCH   5  12
BRANCH   3  18
ATOM     18  C   UNL     1       2.211   7.690  18.360  0.00  0.00    +0.000 C 
ATOM     19  C   UNL     1       2.823   6.585  18.851  0.00  0.00    +0.000 C 
BRANCH  19  20
ATOM     20  C   UNL     1       3.485   5.575  17.990  0.00  0.00    +0.000 A 
ATOM     21  C   UNL     1       2.962   4.356  17.557  0.00  0.00    +0.000 A 
ATOM     22  N   UNL     1       3.856   3.720  16.768  0.00  0.00    +0.000 N 
ATOM     23  C   UNL     1       4.937   4.515  16.697  0.00  0.00    +0.000 A 
ATOM     24  C   UNL     1       6.115   4.272  15.994  0.00  0.00    +0.000 A 
ATOM     25  C   UNL     1       7.131   5.240  16.060  0.00  0.00    +0.000 A 
ATOM     26  C   UNL     1       6.949   6.417  16.817  0.00  0.00    +0.000 A 
ATOM     27  C   UNL     1       5.746   6.640  17.515  0.00  0.00    +0.000 A 
ATOM     28  C   UNL     1       4.752   5.659  17.433  0.00  0.00    +0.000 A 
ATOM     29  H   UNL     1       3.727   2.795  16.304  0.00  0.00    +0.000 HD
ENDBRANCH  19  20
ENDBRANCH   3  18
TORSDOF 3
ENDMDL
MODEL 4
REMARK VINA RESULT:      -8.1      0.952      2.087
REMARK  Name = 
REMARK  4 active torsions:
REMARK  status: ('A' for Active; 'I' for Inactive)
REMARK    1  A    between atoms: C_1  and  N_2
REMARK    2  A    between atoms: C_3  and  C_4
REMARK    3  A    between atoms: C_5  and  C_6
REMARK    4  A    between atoms: C_16  and  N_17
REMARK                            x       y       z     vdW  Elec       q    Type
REMARK                         _______ _______ _______ _____ _____    ______ ____
ROOT
ATOM      1  C   UNL     1       0.664   5.229  20.381  0.00  0.00    +0.000 C 
ATOM      2  N   UNL     1       1.939   5.297  19.631  0.00  0.00    +0.000 N 
ATOM      3  C   UNL     1       2.534   6.515  19.357  0.00  0.00    +0.000 A 
ATOM      4  C   UNL     1       3.661   6.551  18.539  0.00  0.00    +0.000 A 
ATOM      5  C   UNL     1       4.230   5.413  17.963  0.00  0.00    +0.000 A 
ATOM      6  C   UNL     1       3.653   4.149  18.289  0.00  0.00    +0.000 A 
ATOM      7  C   UNL     1       4.126   2.920  17.767  0.00  0.00    +0.000 A 
ATOM      8  C   UNL     1       3.531   1.706  18.095  0.00  0.00    +0.000 A 
ATOM      9  C   UNL     1       2.434   1.676  18.939  0.00  0.00    +0.000 A 
ATOM     10  C   UNL     1       1.915   2.859  19.450  0.00  0.00    +0.000 A 
ATOM     11  C   UNL     1       2.499   4.121  19.146  0.00  0.00    +0.000 A 
ENDROOT
BRANCH   5  12
ATOM     12  N   UNL     1       5.335   5.641  17.052  0.00  0.00    +0.000 N 
ATOM     13  C   UNL     1       5.050   5.997  15.659  0.00  0.00    +0.000 C 
ATOM     14  C   UNL     1       5.681   4.961  14.732  0.00  0.00    +0.000 C 
ATOM     15  C   UNL     1       7.185   4.892  14.994  0.00  0.00    +0.000 C 
ATOM     16  C   UNL     1       7.444   4.539  16.470  0.00  0.00    +0.000 C 
ATOM     17  C   UNL     1       6.755   5.565  17.390  0.00  0.00    +0.000 C 
ENDBRANCH   5  12
BRANCH   3  18
ATOM     18  C   UNL     1       2.040   7.822  19.930  0.00  0.00    +0.000 C 
ATOM     19  C   UNL     1       1.365   8.760  19.224  0.00  0.00    +0.000 C 
BRANCH  19  20
ATOM     20  C   UNL     1       0.937  10.057  19.801  0.00  0.00    +0.000 A 
ATOM     21  C   UNL     1       0.102  10.262  20.901  0.00  0.00    +0.000 A 
ATOM     22  N   UNL     1      -0.038  11.585  21.138  0.00  0.00    +0.000 N 
ATOM     23  C   UNL     1       0.691  12.220  20.205  0.00  0.00    +0.000 A 
ATOM     24  C   UNL     1       0.848  13.596  20.054  0.00  0.00    +0.000 A 
ATOM     25  C   UNL     1       1.656  14.054  19.000  0.00  0.00    +0.000 A 
ATOM     26  C   UNL     1       2.284  13.135  18.131  0.00  0.00    +0.000 A 
ATOM     27  C   UNL     1       2.113  11.749  18.310  0.00  0.00    +0.000 A 
ATOM     28  C   UNL     1       1.302  11.323  19.366  0.00  0.00    +0.000 A 
ATOM     29  H   UNL     1      -0.602  12.023  21.899  0.00  0.00    +0.000 HD
ENDBRANCH  19  20
ENDBRANCH   3  18
TORSDOF 3
ENDMDL
MODEL 5
REMARK VINA RESULT:      -8.1      1.928      2.524
REMARK  Name = 
REMARK  4 active torsions:
REMARK  status: ('A' for Active; 'I' for Inactive)
REMARK    1  A    between atoms: C_1  and  N_2
REMARK    2  A    between atoms: C_3  and  C_4
REMARK    3  A    between atoms: C_5  and  C_6
REMARK    4  A    between atoms: C_16  and  N_17
REMARK                            x       y       z     vdW  Elec       q    Type
REMARK                         _______ _______ _______ _____ _____    ______ ____
ROOT
ATOM      1  C   UNL     1       0.969   6.034  20.797  0.00  0.00    +0.000 C 
ATOM      2  N   UNL     1       2.194   6.041  19.964  0.00  0.00    +0.000 N 
ATOM      3  C   UNL     1       2.542   7.159  19.228  0.00  0.00    +0.000 A 
ATOM      4  C   UNL     1       3.626   7.087  18.356  0.00  0.00    +0.000 A 
ATOM      5  C   UNL     1       4.388   5.931  18.171  0.00  0.00    +0.000 A 
ATOM      6  C   UNL     1       4.067   4.794  18.970  0.00  0.00    +0.000 A 
ATOM      7  C   UNL     1       4.754   3.558  18.875  0.00  0.00    +0.000 A 
ATOM      8  C   UNL     1       4.406   2.464  19.660  0.00  0.00    +0.000 A 
ATOM      9  C   UNL     1       3.351   2.555  20.552  0.00  0.00    +0.000 A 
ATOM     10  C   UNL     1       2.627   3.736  20.655  0.00  0.00    +0.000 A 
ATOM     11  C   UNL     1       2.956   4.882  19.878  0.00  0.00    +0.000 A 
ENDROOT
BRANCH   5  12
ATOM     12  N   UNL     1       5.413   5.998  17.146  0.00  0.00    +0.000 N 
ATOM     13  C   UNL     1       5.012   6.151  15.745  0.00  0.00    +0.000 C 
ATOM     14  C   UNL     1       5.550   4.976  14.933  0.00  0.00    +0.000 C 
ATOM     15  C   UNL     1       7.070   4.913  15.075  0.00  0.00    +0.000 C 
ATOM     16  C   UNL     1       7.453   4.776  16.560  0.00  0.00    +0.000 C 
ATOM     17  C   UNL     1       6.855   5.942  17.371  0.00  0.00    +0.000 C 
ENDBRANCH   5  12
BRANCH   3  18
ATOM     18  C   UNL     1       1.821   8.480  19.345  0.00  0.00    +0.000 C 
ATOM     19  C   UNL     1       1.236   9.126  18.307  0.00  0.00    +0.000 C 
BRANCH  19  20
ATOM     20  C   UNL     1       0.578  10.449  18.443  0.00  0.00    +0.000 A 
ATOM     21  C   UNL     1      -0.781  10.707  18.620  0.00  0.00    +0.000 A 
ATOM     22  N   UNL     1      -0.993  12.037  18.724  0.00  0.00    +0.000 N 
ATOM     23  C   UNL     1       0.209  12.626  18.613  0.00  0.00    +0.000 A 
ATOM     24  C   UNL     1       0.485  13.990  18.660  0.00  0.00    +0.000 A 
ATOM     25  C   UNL     1       1.822  14.396  18.516  0.00  0.00    +0.000 A 
ATOM     26  C   UNL     1       2.843  13.439  18.331  0.00  0.00    +0.000 A 
ATOM     27  C   UNL     1       2.537  12.065  18.292  0.00  0.00    +0.000 A 
ATOM     28  C   UNL     1       1.198  11.690  18.437  0.00  0.00    +0.000 A 
ATOM     29  H   UNL     1      -1.912  12.510  18.866  0.00  0.00    +0.000 HD
ENDBRANCH  19  20
ENDBRANCH   3  18
TORSDOF 3
ENDMDL
MODEL 6
REMARK VINA RESULT:      -8.0      1.021      1.108
REMARK  Name = 
REMARK  4 active torsions:
REMARK  status: ('A' for Active; 'I' for Inactive)
REMARK    1  A    between atoms: C_1  and  N_2
REMARK    2  A    between atoms: C_3  and  C_4
REMARK    3  A    between atoms: C_5  and  C_6
REMARK    4  A    between atoms: C_16  and  N_17
REMARK                            x       y       z     vdW  Elec       q    Type
REMARK                         _______ _______ _______ _____ _____    ______ ____
ROOT
ATOM      1  C   UNL     1       0.888   6.034  20.601  0.00  0.00    +0.000 C 
ATOM      2  N   UNL     1       2.140   6.017  19.812  0.00  0.00    +0.000 N 
ATOM      3  C   UNL     1       2.489   7.093  19.015  0.00  0.00    +0.000 A 
ATOM      4  C   UNL     1       3.604   6.990  18.186  0.00  0.00    +0.000 A 
ATOM      5  C   UNL     1       4.399   5.845  18.105  0.00  0.00    +0.000 A 
ATOM      6  C   UNL     1       4.076   4.755  18.967  0.00  0.00    +0.000 A 
ATOM      7  C   UNL     1       4.794   3.533  18.978  0.00  0.00    +0.000 A 
ATOM      8  C   UNL     1       4.443   2.484  19.822  0.00  0.00    +0.000 A 
ATOM      9  C   UNL     1       3.356   2.608  20.669  0.00  0.00    +0.000 A 
ATOM     10  C   UNL     1       2.602   3.775  20.670  0.00  0.00    +0.000 A 
ATOM     11  C   UNL     1       2.931   4.874  19.829  0.00  0.00    +0.000 A 
ENDROOT
BRANCH   5  12
ATOM     12  N   UNL     1       5.457   5.869  17.113  0.00  0.00    +0.000 N 
ATOM     13  C   UNL     1       5.108   6.052  15.701  0.00  0.00    +0.000 C 
ATOM     14  C   UNL     1       5.614   4.858  14.896  0.00  0.00    +0.000 C 
ATOM     15  C   UNL     1       7.125   4.720  15.085  0.00  0.00    +0.000 C 
ATOM     16  C   UNL     1       7.454   4.554  16.579  0.00  0.00    +0.000 C 
ATOM     17  C   UNL     1       6.887   5.741  17.382  0.00  0.00    +0.000 C 
ENDBRANCH   5  12
BRANCH   3  18
ATOM     18  C   UNL     1       1.734   8.400  19.018  0.00  0.00    +0.000 C 
ATOM     19  C   UNL     1       1.338   9.052  20.139  0.00  0.00    +0.000 C 
BRANCH  19  20
ATOM     20  C   UNL     1       0.553  10.310  20.110  0.00  0.00    +0.000 A 
ATOM     21  C   UNL     1       0.455  11.224  19.060  0.00  0.00    +0.000 A 
ATOM     22  N   UNL     1      -0.373  12.237  19.401  0.00  0.00    +0.000 N 
ATOM     23  C   UNL     1      -0.797  11.980  20.650  0.00  0.00    +0.000 A 
ATOM     24  C   UNL     1      -1.668  12.750  21.417  0.00  0.00    +0.000 A 
ATOM     25  C   UNL     1      -1.978  12.299  22.711  0.00  0.00    +0.000 A 
ATOM     26  C   UNL     1      -1.418  11.100  23.203  0.00  0.00    +0.000 A 
ATOM     27  C   UNL     1      -0.545  10.338  22.404  0.00  0.00    +0.000 A 
ATOM     28  C   UNL     1      -0.252  10.812  21.121  0.00  0.00    +0.000 A 
ATOM     29  H   UNL     1      -0.631  13.055  18.807  0.00  0.00    +0.000 HD
ENDBRANCH  19  20
ENDBRANCH   3  18
TORSDOF 3
ENDMDL
MODEL 7
REMARK VINA RESULT:      -8.0      1.937      8.717
REMARK  Name = 
REMARK  4 active torsions:
REMARK  status: ('A' for Active; 'I' for Inactive)
REMARK    1  A    between atoms: C_1  and  N_2
REMARK    2  A    between atoms: C_3  and  C_4
REMARK    3  A    between atoms: C_5  and  C_6
REMARK    4  A    between atoms: C_16  and  N_17
REMARK                            x       y       z     vdW  Elec       q    Type
REMARK                         _______ _______ _______ _____ _____    ______ ____
ROOT
ATOM      1  C   UNL     1       0.649   8.058  21.327  0.00  0.00    +0.000 C 
ATOM      2  N   UNL     1       0.577   9.365  20.635  0.00  0.00    +0.000 N 
ATOM      3  C   UNL     1       1.162   9.542  19.395  0.00  0.00    +0.000 A 
ATOM      4  C   UNL     1       1.189  10.817  18.833  0.00  0.00    +0.000 A 
ATOM      5  C   UNL     1       0.659  11.945  19.461  0.00  0.00    +0.000 A 
ATOM      6  C   UNL     1       0.004  11.757  20.715  0.00  0.00    +0.000 A 
ATOM      7  C   UNL     1      -0.567  12.818  21.461  0.00  0.00    +0.000 A 
ATOM      8  C   UNL     1      -1.186  12.600  22.688  0.00  0.00    +0.000 A 
ATOM      9  C   UNL     1      -1.241  11.325  23.222  0.00  0.00    +0.000 A 
ATOM     10  C   UNL     1      -0.666  10.259  22.542  0.00  0.00    +0.000 A 
ATOM     11  C   UNL     1      -0.031  10.436  21.281  0.00  0.00    +0.000 A 
ENDROOT
BRANCH   5  12
ATOM     12  N   UNL     1       0.867  13.211  18.784  0.00  0.00    +0.000 N 
ATOM     13  C   UNL     1       2.236  13.670  18.532  0.00  0.00    +0.000 C 
ATOM     14  C   UNL     1       2.448  15.025  19.203  0.00  0.00    +0.000 C 
ATOM     15  C   UNL     1       1.418  16.022  18.672  0.00  0.00    +0.000 C 
ATOM     16  C   UNL     1      -0.005  15.496  18.933  0.00  0.00    +0.000 C 
ATOM     17  C   UNL     1      -0.181  14.104  18.295  0.00  0.00    +0.000 C 
ENDBRANCH   5  12
BRANCH   3  18
ATOM     18  C   UNL     1       1.753   8.408  18.593  0.00  0.00    +0.000 C 
ATOM     19  C   UNL     1       2.548   7.439  19.108  0.00  0.00    +0.000 C 
BRANCH  19  20
ATOM     20  C   UNL     1       3.156   6.366  18.285  0.00  0.00    +0.000 A 
ATOM     21  C   UNL     1       4.255   6.470  17.431  0.00  0.00    +0.000 A 
ATOM     22  N   UNL     1       4.524   5.271  16.870  0.00  0.00    +0.000 N 
ATOM     23  C   UNL     1       3.612   4.410  17.352  0.00  0.00    +0.000 A 
ATOM     24  C   UNL     1       3.496   3.054  17.053  0.00  0.00    +0.000 A 
ATOM     25  C   UNL     1       2.459   2.332  17.667  0.00  0.00    +0.000 A 
ATOM     26  C   UNL     1       1.571   2.975  18.557  0.00  0.00    +0.000 A 
ATOM     27  C   UNL     1       1.714   4.346  18.845  0.00  0.00    +0.000 A 
ATOM     28  C   UNL     1       2.754   5.040  18.218  0.00  0.00    +0.000 A 
ATOM     29  H   UNL     1       5.293   5.059  16.197  0.00  0.00    +0.000 HD
ENDBRANCH  19  20
ENDBRANCH   3  18
TORSDOF 3
ENDMDL
MODEL 8
REMARK VINA RESULT:      -8.0      1.198      1.624
REMARK  Name = 
REMARK  4 active torsions:
REMARK  status: ('A' for Active; 'I' for Inactive)
REMARK    1  A    between atoms: C_1  and  N_2
REMARK    2  A    between atoms: C_3  and  C_4
REMARK    3  A    between atoms: C_5  and  C_6
REMARK    4  A    between atoms: C_16  and  N_17
REMARK                            x       y       z     vdW  Elec       q    Type
REMARK                         _______ _______ _______ _____ _____    ______ ____
ROOT
ATOM      1  C   UNL     1       0.650   4.790  20.474  0.00  0.00    +0.000 C 
ATOM      2  N   UNL     1       1.929   4.966  19.751  0.00  0.00    +0.000 N 
ATOM      3  C   UNL     1       2.458   6.227  19.546  0.00  0.00    +0.000 A 
ATOM      4  C   UNL     1       3.593   6.367  18.750  0.00  0.00    +0.000 A 
ATOM      5  C   UNL     1       4.233   5.293  18.129  0.00  0.00    +0.000 A 
ATOM      6  C   UNL     1       3.724   3.984  18.384  0.00  0.00    +0.000 A 
ATOM      7  C   UNL     1       4.274   2.811  17.810  0.00  0.00    +0.000 A 
ATOM      8  C   UNL     1       3.744   1.551  18.069  0.00  0.00    +0.000 A 
ATOM      9  C   UNL     1       2.639   1.417  18.891  0.00  0.00    +0.000 A 
ATOM     10  C   UNL     1       2.046   2.542  19.450  0.00  0.00    +0.000 A 
ATOM     11  C   UNL     1       2.561   3.848  19.218  0.00  0.00    +0.000 A 
ENDROOT
BRANCH   5  12
ATOM     12  N   UNL     1       5.337   5.627  17.249  0.00  0.00    +0.000 N 
ATOM     13  C   UNL     1       5.049   6.088  15.888  0.00  0.00    +0.000 C 
ATOM     14  C   UNL     1       5.716   5.151  14.885  0.00  0.00    +0.000 C 
ATOM     15  C   UNL     1       7.220   5.104  15.153  0.00  0.00    +0.000 C 
ATOM     16  C   UNL     1       7.481   4.639  16.597  0.00  0.00    +0.000 C 
ATOM     17  C   UNL     1       6.756   5.565  17.592  0.00  0.00    +0.000 C 
ENDBRANCH   5  12
BRANCH   3  18
ATOM     18  C   UNL     1       1.882   7.474  20.174  0.00  0.00    +0.000 C 
ATOM     19  C   UNL     1       1.171   8.411  19.500  0.00  0.00    +0.000 C 
BRANCH  19  20
ATOM     20  C   UNL     1       0.662   9.652  20.134  0.00  0.00    +0.000 A 
ATOM     21  C   UNL     1       1.136  10.270  21.291  0.00  0.00    +0.000 A 
ATOM     22  N   UNL     1       0.430  11.395  21.541  0.00  0.00    +0.000 N 
ATOM     23  C   UNL     1      -0.485  11.496  20.563  0.00  0.00    +0.000 A 
ATOM     24  C   UNL     1      -1.439  12.500  20.406  0.00  0.00    +0.000 A 
ATOM     25  C   UNL     1      -2.310  12.412  19.307  0.00  0.00    +0.000 A 
ATOM     26  C   UNL     1      -2.209  11.335  18.399  0.00  0.00    +0.000 A 
ATOM     27  C   UNL     1      -1.232  10.337  18.579  0.00  0.00    +0.000 A 
ATOM     28  C   UNL     1      -0.379  10.450  19.683  0.00  0.00    +0.000 A 
ATOM     29  H   UNL     1       0.572  12.053  22.338  0.00  0.00    +0.000 HD
ENDBRANCH  19  20
ENDBRANCH   3  18
TORSDOF 3
ENDMDL
MODEL 9
REMARK VINA RESULT:      -7.6      1.759      2.519
REMARK  Name = 
REMARK  4 active torsions:
REMARK  status: ('A' for Active; 'I' for Inactive)
REMARK    1  A    between atoms: C_1  and  N_2
REMARK    2  A    between atoms: C_3  and  C_4
REMARK    3  A    between atoms: C_5  and  C_6
REMARK    4  A    between atoms: C_16  and  N_17
REMARK                            x       y       z     vdW  Elec       q    Type
REMARK                         _______ _______ _______ _____ _____    ______ ____
ROOT
ATOM      1  C   UNL     1       0.930   6.212  20.797  0.00  0.00    +0.000 C 
ATOM      2  N   UNL     1       2.131   5.837  20.017  0.00  0.00    +0.000 N 
ATOM      3  C   UNL     1       2.608   6.662  19.015  0.00  0.00    +0.000 A 
ATOM      4  C   UNL     1       3.659   6.218  18.214  0.00  0.00    +0.000 A 
ATOM      5  C   UNL     1       4.263   4.968  18.361  0.00  0.00    +0.000 A 
ATOM      6  C   UNL     1       3.811   4.138  19.430  0.00  0.00    +0.000 A 
ATOM      7  C   UNL     1       4.331   2.844  19.683  0.00  0.00    +0.000 A 
ATOM      8  C   UNL     1       3.857   2.056  20.727  0.00  0.00    +0.000 A 
ATOM      9  C   UNL     1       2.838   2.519  21.541  0.00  0.00    +0.000 A 
ATOM     10  C   UNL     1       2.274   3.767  21.310  0.00  0.00    +0.000 A 
ATOM     11  C   UNL     1       2.735   4.609  20.260  0.00  0.00    +0.000 A 
ENDROOT
BRANCH   5  12
ATOM     12  N   UNL     1       5.270   4.624  17.376  0.00  0.00    +0.000 N 
ATOM     13  C   UNL     1       6.675   4.941  17.651  0.00  0.00    +0.000 C 
ATOM     14  C   UNL     1       7.211   5.857  16.554  0.00  0.00    +0.000 C 
ATOM     15  C   UNL     1       7.048   5.175  15.196  0.00  0.00    +0.000 C 
ATOM     16  C   UNL     1       5.566   4.836  14.954  0.00  0.00    +0.000 C 
ATOM     17  C   UNL     1       5.029   3.956  16.099  0.00  0.00    +0.000 C 
ENDBRANCH   5  12
BRANCH   3  18
ATOM     18  C   UNL     1       2.066   8.047  18.758  0.00  0.00    +0.000 C 
ATOM     19  C   UNL     1       1.501   8.835  19.705  0.00  0.00    +0.000 C 
BRANCH  19  20
ATOM     20  C   UNL     1       0.931  10.172  19.412  0.00  0.00    +0.000 A 
ATOM     21  C   UNL     1       1.412  11.411  19.836  0.00  0.00    +0.000 A 
ATOM     22  N   UNL     1       0.636  12.404  19.348  0.00  0.00    +0.000 N 
ATOM     23  C   UNL     1      -0.330  11.814  18.624  0.00  0.00    +0.000 A 
ATOM     24  C   UNL     1      -1.362  12.440  17.930  0.00  0.00    +0.000 A 
ATOM     25  C   UNL     1      -2.275  11.629  17.236  0.00  0.00    +0.000 A 
ATOM     26  C   UNL     1      -2.136  10.224  17.250  0.00  0.00    +0.000 A 
ATOM     27  C   UNL     1      -1.080   9.616  17.956  0.00  0.00    +0.000 A 
ATOM     28  C   UNL     1      -0.187  10.449  18.639  0.00  0.00    +0.000 A 
ATOM     29  H   UNL     1       0.766  13.427  19.503  0.00  0.00    +0.000 HD
ENDBRANCH  19  20
ENDBRANCH   3  18
TORSDOF 3
ENDMDL
