MODEL 1
REMARK VINA RESULT:      -7.6      0.000      0.000
REMARK  Name = 
REMARK  13 active torsions:
REMARK  status: ('A' for Active; 'I' for Inactive)
REMARK    1  A    between atoms: C_1  and  O_2
REMARK    2  A    between atoms: O_2  and  C_3
REMARK    3  A    between atoms: C_7  and  C_8
REMARK    4  A    between atoms: C_8  and  C_9
REMARK    5  A    between atoms: C_9  and  C_10
REMARK    6  A    between atoms: C_10  and  O_11
REMARK    7  A    between atoms: O_11  and  C_12
REMARK    8  A    between atoms: C_12  and  C_14
REMARK    9  A    between atoms: N_22  and  C_23
REMARK   10  A    between atoms: C_23  and  C_24
REMARK   11  A    between atoms: C_24  and  C_25
REMARK   12  A    between atoms: C_24  and  C_26
REMARK   13  A    between atoms: C_24  and  C_27
REMARK                            x       y       z     vdW  Elec       q    Type
REMARK                         _______ _______ _______ _____ _____    ______ ____
ROOT
ATOM      1  C   UNL     1       4.128   5.909  18.029  0.00  0.00    +0.000 C 
ATOM      2  C   UNL     1       3.461   4.642  17.468  0.00  0.00    +0.000 C 
ATOM      3  C   UNL     1       2.717   3.891  18.573  0.00  0.00    +0.000 C 
ATOM      4  C   UNL     1       1.737   4.814  19.292  0.00  0.00    +0.000 C 
ATOM      5  C   UNL     1       2.439   6.073  19.808  0.00  0.00    +0.000 C 
ATOM      6  N   UNL     1       3.137   6.767  18.720  0.00  0.00    +0.000 N 
ATOM      7  C   UNL     1       2.668   7.895  18.059  0.00  0.00    +0.000 C 
ATOM      8  O   UNL     1       3.147   8.302  17.004  0.00  0.00    +0.000 OA
ATOM      9  N   UNL     1       1.623   8.552  18.652  0.00  0.00    +0.000 N 
ATOM     10  H   UNL     1       1.556   8.451  19.654  0.00  0.00    +0.000 HD
ENDROOT
BRANCH   1  11
ATOM     11  C   UNL     1       5.103   6.567  17.040  0.00  0.00    +0.000 C 
ATOM     12  O   UNL     1       5.106   6.356  15.831  0.00  0.00    +0.000 OA
BRANCH  11  13
ATOM     13  O   UNL     1       5.982   7.386  17.695  0.00  0.00    +0.000 OA
BRANCH  13  14
ATOM     14  C   UNL     1       7.372   7.112  17.489  0.00  0.00    +0.000 C 
BRANCH  14  15
ATOM     15  C   UNL     1       8.188   8.076  18.335  0.00  0.00    +0.000 C 
BRANCH  15  16
ATOM     16  C   UNL     1       8.152   9.494  17.778  0.00  0.00    +0.000 C 
BRANCH  16  21
ATOM     17  C   UNL     1      11.109  11.835  18.358  0.00  0.00    +0.000 A 
ATOM     18  C   UNL     1      11.127  11.895  19.753  0.00  0.00    +0.000 A 
ATOM     19  C   UNL     1      10.189  11.190  20.507  0.00  0.00    +0.000 A 
ATOM     20  C   UNL     1       9.220  10.419  19.867  0.00  0.00    +0.000 A 
ATOM     21  C   UNL     1       9.178  10.359  18.469  0.00  0.00    +0.000 A 
ATOM     22  C   UNL     1      10.134  11.064  17.719  0.00  0.00    +0.000 A 
BRANCH  17  24
ATOM     23  C   UNL     1      11.680  13.444  16.705  0.00  0.00    +0.000 C 
ATOM     24  O   UNL     1      12.091  12.561  17.741  0.00  0.00    +0.000 OA
ENDBRANCH  17  24
ENDBRANCH  16  21
ENDBRANCH  15  16
ENDBRANCH  14  15
ENDBRANCH  13  14
ENDBRANCH  11  13
ENDBRANCH   1  11
BRANCH   9  25
ATOM     25  C   UNL     1       1.148   9.825  18.134  0.00  0.00    +0.000 C 
BRANCH  25  26
ATOM     26  C   UNL     1      -0.107  10.353  18.864  0.00  0.00    +0.000 C 
ATOM     27  C   UNL     1      -0.281   9.673  20.232  0.00  0.00    +0.000 C 
ATOM     28  C   UNL     1       0.054  11.868  19.087  0.00  0.00    +0.000 C 
ATOM     29  C   UNL     1      -1.359  10.112  18.003  0.00  0.00    +0.000 C 
ENDBRANCH  25  26
ENDBRANCH   9  25
TORSDOF 9
ENDMDL
MODEL 2
REMARK VINA RESULT:      -7.4      1.584      1.758
REMARK  Name = 
REMARK  13 active torsions:
REMARK  status: ('A' for Active; 'I' for Inactive)
REMARK    1  A    between atoms: C_1  and  O_2
REMARK    2  A    between atoms: O_2  and  C_3
REMARK    3  A    between atoms: C_7  and  C_8
REMARK    4  A    between atoms: C_8  and  C_9
REMARK    5  A    between atoms: C_9  and  C_10
REMARK    6  A    between atoms: C_10  and  O_11
REMARK    7  A    between atoms: O_11  and  C_12
REMARK    8  A    between atoms: C_12  and  C_14
REMARK    9  A    between atoms: N_22  and  C_23
REMARK   10  A    between atoms: C_23  and  C_24
REMARK   11  A    between atoms: C_24  and  C_25
REMARK   12  A    between atoms: C_24  and  C_26
REMARK   13  A    between atoms: C_24  and  C_27
REMARK                            x       y       z     vdW  Elec       q    Type
REMARK                         _______ _______ _______ _____ _____    ______ ____
ROOT
ATOM      1  C   UNL     1       4.426   4.419  19.099  0.00  0.00    +0.000 C 
ATOM      2  C   UNL     1       3.622   3.147  18.782  0.00  0.00    +0.000 C 
ATOM      3  C   UNL     1       2.672   2.809  19.932  0.00  0.00    +0.000 C 
ATOM      4  C   UNL     1       1.787   4.005  20.273  0.00  0.00    +0.000 C 
ATOM      5  C   UNL     1       2.628   5.253  20.554  0.00  0.00    +0.000 C 
ATOM      6  N   UNL     1       3.523   5.547  19.428  0.00  0.00    +0.000 N 
ATOM      7  C   UNL     1       3.299   6.516  18.459  0.00  0.00    +0.000 C 
ATOM      8  O   UNL     1       3.930   6.571  17.407  0.00  0.00    +0.000 OA
ATOM      9  N   UNL     1       2.320   7.433  18.736  0.00  0.00    +0.000 N 
ATOM     10  H   UNL     1       2.147   7.604  19.715  0.00  0.00    +0.000 HD
ENDROOT
BRANCH   1  11
ATOM     11  C   UNL     1       5.578   4.667  18.114  0.00  0.00    +0.000 C 
ATOM     12  O   UNL     1       5.605   4.241  16.962  0.00  0.00    +0.000 OA
BRANCH  11  13
ATOM     13  O   UNL     1       6.576   5.392  18.704  0.00  0.00    +0.000 OA
BRANCH  13  14
ATOM     14  C   UNL     1       7.483   6.056  17.817  0.00  0.00    +0.000 C 
BRANCH  14  15
ATOM     15  C   UNL     1       7.989   7.320  18.496  0.00  0.00    +0.000 C 
BRANCH  15  16
ATOM     16  C   UNL     1       7.838   8.545  17.603  0.00  0.00    +0.000 C 
BRANCH  16  21
ATOM     17  C   UNL     1       9.187  12.076  18.129  0.00  0.00    +0.000 A 
ATOM     18  C   UNL     1       9.765  11.950  19.394  0.00  0.00    +0.000 A 
ATOM     19  C   UNL     1       9.717  10.737  20.081  0.00  0.00    +0.000 A 
ATOM     20  C   UNL     1       9.086   9.637  19.504  0.00  0.00    +0.000 A 
ATOM     21  C   UNL     1       8.489   9.748  18.243  0.00  0.00    +0.000 A 
ATOM     22  C   UNL     1       8.551  10.971  17.555  0.00  0.00    +0.000 A 
BRANCH  17  24
ATOM     23  C   UNL     1       8.895  14.424  18.342  0.00  0.00    +0.000 C 
ATOM     24  O   UNL     1       9.316  13.314  17.561  0.00  0.00    +0.000 OA
ENDBRANCH  17  24
ENDBRANCH  16  21
ENDBRANCH  15  16
ENDBRANCH  14  15
ENDBRANCH  13  14
ENDBRANCH  11  13
ENDBRANCH   1  11
BRANCH   9  25
ATOM     25  C   UNL     1       2.100   8.578  17.868  0.00  0.00    +0.000 C 
BRANCH  25  26
ATOM     26  C   UNL     1       1.258   9.694  18.528  0.00  0.00    +0.000 C 
ATOM     27  C   UNL     1       1.074   9.434  20.032  0.00  0.00    +0.000 C 
ATOM     28  C   UNL     1       1.991  11.036  18.348  0.00  0.00    +0.000 C 
ATOM     29  C   UNL     1      -0.118   9.788  17.847  0.00  0.00    +0.000 C 
ENDBRANCH  25  26
ENDBRANCH   9  25
TORSDOF 9
ENDMDL
MODEL 3
REMARK VINA RESULT:      -7.4      3.366      5.555
REMARK  Name = 
REMARK  13 active torsions:
REMARK  status: ('A' for Active; 'I' for Inactive)
REMARK    1  A    between atoms: C_1  and  O_2
REMARK    2  A    between atoms: O_2  and  C_3
REMARK    3  A    between atoms: C_7  and  C_8
REMARK    4  A    between atoms: C_8  and  C_9
REMARK    5  A    between atoms: C_9  and  C_10
REMARK    6  A    between atoms: C_10  and  O_11
REMARK    7  A    between atoms: O_11  and  C_12
REMARK    8  A    between atoms: C_12  and  C_14
REMARK    9  A    between atoms: N_22  and  C_23
REMARK   10  A    between atoms: C_23  and  C_24
REMARK   11  A    between atoms: C_24  and  C_25
REMARK   12  A    between atoms: C_24  and  C_26
REMARK   13  A    between atoms: C_24  and  C_27
REMARK                            x       y       z     vdW  Elec       q    Type
REMARK                         _______ _______ _______ _____ _____    ______ ____
ROOT
ATOM      1  C   UNL     1       6.145   5.997  18.271  0.00  0.00    +0.000 C 
ATOM      2  C   UNL     1       5.262   5.241  19.278  0.00  0.00    +0.000 C 
ATOM      3  C   UNL     1       3.782   5.531  19.021  0.00  0.00    +0.000 C 
ATOM      4  C   UNL     1       3.417   5.237  17.567  0.00  0.00    +0.000 C 
ATOM      5  C   UNL     1       4.339   5.988  16.603  0.00  0.00    +0.000 C 
ATOM      6  N   UNL     1       5.747   5.682  16.879  0.00  0.00    +0.000 N 
ATOM      7  C   UNL     1       6.530   4.791  16.156  0.00  0.00    +0.000 C 
ATOM      8  O   UNL     1       7.615   4.376  16.554  0.00  0.00    +0.000 OA
ATOM      9  N   UNL     1       6.027   4.388  14.947  0.00  0.00    +0.000 N 
ATOM     10  H   UNL     1       5.399   5.037  14.498  0.00  0.00    +0.000 HD
ENDROOT
BRANCH   1  11
ATOM     11  C   UNL     1       7.638   5.963  18.632  0.00  0.00    +0.000 C 
ATOM     12  O   UNL     1       8.175   5.054  19.259  0.00  0.00    +0.000 OA
BRANCH  11  13
ATOM     13  O   UNL     1       8.271   7.093  18.192  0.00  0.00    +0.000 OA
BRANCH  13  14
ATOM     14  C   UNL     1       7.424   8.154  17.737  0.00  0.00    +0.000 C 
BRANCH  14  15
ATOM     15  C   UNL     1       8.199   9.460  17.809  0.00  0.00    +0.000 C 
BRANCH  15  16
ATOM     16  C   UNL     1       9.021   9.564  19.087  0.00  0.00    +0.000 C 
BRANCH  16  21
ATOM     17  C   UNL     1      10.922  12.681  17.976  0.00  0.00    +0.000 A 
ATOM     18  C   UNL     1      11.225  13.258  19.210  0.00  0.00    +0.000 A 
ATOM     19  C   UNL     1      10.814  12.653  20.398  0.00  0.00    +0.000 A 
ATOM     20  C   UNL     1      10.093  11.461  20.358  0.00  0.00    +0.000 A 
ATOM     21  C   UNL     1       9.769  10.875  19.129  0.00  0.00    +0.000 A 
ATOM     22  C   UNL     1      10.196  11.487  17.939  0.00  0.00    +0.000 A 
BRANCH  17  24
ATOM     23  C   UNL     1      11.684  14.747  17.082  0.00  0.00    +0.000 C 
ATOM     24  O   UNL     1      11.394  13.368  16.890  0.00  0.00    +0.000 OA
ENDBRANCH  17  24
ENDBRANCH  16  21
ENDBRANCH  15  16
ENDBRANCH  14  15
ENDBRANCH  13  14
ENDBRANCH  11  13
ENDBRANCH   1  11
BRANCH   9  25
ATOM     25  C   UNL     1       6.822   3.578  14.039  0.00  0.00    +0.000 C 
BRANCH  25  26
ATOM     26  C   UNL     1       6.383   3.704  12.562  0.00  0.00    +0.000 C 
ATOM     27  C   UNL     1       4.880   4.015  12.455  0.00  0.00    +0.000 C 
ATOM     28  C   UNL     1       7.169   4.856  11.911  0.00  0.00    +0.000 C 
ATOM     29  C   UNL     1       6.696   2.403  11.806  0.00  0.00    +0.000 C 
ENDBRANCH  25  26
ENDBRANCH   9  25
TORSDOF 9
ENDMDL
MODEL 4
REMARK VINA RESULT:      -7.3      3.197      4.329
REMARK  Name = 
REMARK  13 active torsions:
REMARK  status: ('A' for Active; 'I' for Inactive)
REMARK    1  A    between atoms: C_1  and  O_2
REMARK    2  A    between atoms: O_2  and  C_3
REMARK    3  A    between atoms: C_7  and  C_8
REMARK    4  A    between atoms: C_8  and  C_9
REMARK    5  A    between atoms: C_9  and  C_10
REMARK    6  A    between atoms: C_10  and  O_11
REMARK    7  A    between atoms: O_11  and  C_12
REMARK    8  A    between atoms: C_12  and  C_14
REMARK    9  A    between atoms: N_22  and  C_23
REMARK   10  A    between atoms: C_23  and  C_24
REMARK   11  A    between atoms: C_24  and  C_25
REMARK   12  A    between atoms: C_24  and  C_26
REMARK   13  A    between atoms: C_24  and  C_27
REMARK                            x       y       z     vdW  Elec       q    Type
REMARK                         _______ _______ _______ _____ _____    ______ ____
ROOT
ATOM      1  C   UNL     1       6.998   4.978  16.454  0.00  0.00    +0.000 C 
ATOM      2  C   UNL     1       7.065   5.588  15.044  0.00  0.00    +0.000 C 
ATOM      3  C   UNL     1       6.784   4.523  13.983  0.00  0.00    +0.000 C 
ATOM      4  C   UNL     1       5.461   3.813  14.265  0.00  0.00    +0.000 C 
ATOM      5  C   UNL     1       5.429   3.248  15.687  0.00  0.00    +0.000 C 
ATOM      6  N   UNL     1       5.700   4.298  16.676  0.00  0.00    +0.000 N 
ATOM      7  C   UNL     1       4.737   4.948  17.438  0.00  0.00    +0.000 C 
ATOM      8  O   UNL     1       4.963   5.978  18.066  0.00  0.00    +0.000 OA
ATOM      9  N   UNL     1       3.495   4.371  17.462  0.00  0.00    +0.000 N 
ATOM     10  H   UNL     1       3.473   3.375  17.306  0.00  0.00    +0.000 HD
ENDROOT
BRANCH   1  11
ATOM     11  C   UNL     1       7.525   5.922  17.546  0.00  0.00    +0.000 C 
ATOM     12  O   UNL     1       7.615   5.622  18.733  0.00  0.00    +0.000 OA
BRANCH  11  13
ATOM     13  O   UNL     1       7.844   7.145  17.021  0.00  0.00    +0.000 OA
BRANCH  13  14
ATOM     14  C   UNL     1       7.326   8.284  17.716  0.00  0.00    +0.000 C 
BRANCH  14  15
ATOM     15  C   UNL     1       8.485   9.030  18.357  0.00  0.00    +0.000 C 
BRANCH  15  16
ATOM     16  C   UNL     1       8.719  10.388  17.707  0.00  0.00    +0.000 C 
BRANCH  16  21
ATOM     17  C   UNL     1      10.251  13.543  19.211  0.00  0.00    +0.000 A 
ATOM     18  C   UNL     1      10.589  13.088  20.487  0.00  0.00    +0.000 A 
ATOM     19  C   UNL     1      10.320  11.773  20.868  0.00  0.00    +0.000 A 
ATOM     20  C   UNL     1       9.707  10.901  19.971  0.00  0.00    +0.000 A 
ATOM     21  C   UNL     1       9.349  11.344  18.692  0.00  0.00    +0.000 A 
ATOM     22  C   UNL     1       9.633  12.666  18.314  0.00  0.00    +0.000 A 
BRANCH  17  24
ATOM     23  C   UNL     1      11.930  15.224  19.206  0.00  0.00    +0.000 C 
ATOM     24  O   UNL     1      10.582  14.847  18.961  0.00  0.00    +0.000 OA
ENDBRANCH  17  24
ENDBRANCH  16  21
ENDBRANCH  15  16
ENDBRANCH  14  15
ENDBRANCH  13  14
ENDBRANCH  11  13
ENDBRANCH   1  11
BRANCH   9  25
ATOM     25  C   UNL     1       2.453   4.875  18.342  0.00  0.00    +0.000 C 
BRANCH  25  26
ATOM     26  C   UNL     1       1.958   3.829  19.366  0.00  0.00    +0.000 C 
ATOM     27  C   UNL     1       1.099   4.486  20.459  0.00  0.00    +0.000 C 
ATOM     28  C   UNL     1       1.099   2.786  18.628  0.00  0.00    +0.000 C 
ATOM     29  C   UNL     1       3.157   3.113  20.011  0.00  0.00    +0.000 C 
ENDBRANCH  25  26
ENDBRANCH   9  25
TORSDOF 9
ENDMDL
MODEL 5
REMARK VINA RESULT:      -7.3      4.794      6.556
REMARK  Name = 
REMARK  13 active torsions:
REMARK  status: ('A' for Active; 'I' for Inactive)
REMARK    1  A    between atoms: C_1  and  O_2
REMARK    2  A    between atoms: O_2  and  C_3
REMARK    3  A    between atoms: C_7  and  C_8
REMARK    4  A    between atoms: C_8  and  C_9
REMARK    5  A    between atoms: C_9  and  C_10
REMARK    6  A    between atoms: C_10  and  O_11
REMARK    7  A    between atoms: O_11  and  C_12
REMARK    8  A    between atoms: C_12  and  C_14
REMARK    9  A    between atoms: N_22  and  C_23
REMARK   10  A    between atoms: C_23  and  C_24
REMARK   11  A    between atoms: C_24  and  C_25
REMARK   12  A    between atoms: C_24  and  C_26
REMARK   13  A    between atoms: C_24  and  C_27
REMARK                            x       y       z     vdW  Elec       q    Type
REMARK                         _______ _______ _______ _____ _____    ______ ____
ROOT
ATOM      1  C   UNL     1       3.651   3.600  19.677  0.00  0.00    +0.000 C 
ATOM      2  C   UNL     1       2.905   2.748  18.637  0.00  0.00    +0.000 C 
ATOM      3  C   UNL     1       1.705   2.047  19.276  0.00  0.00    +0.000 C 
ATOM      4  C   UNL     1       0.801   3.054  19.982  0.00  0.00    +0.000 C 
ATOM      5  C   UNL     1       1.591   3.898  20.986  0.00  0.00    +0.000 C 
ATOM      6  N   UNL     1       2.730   4.557  20.336  0.00  0.00    +0.000 N 
ATOM      7  C   UNL     1       2.765   5.886  19.937  0.00  0.00    +0.000 C 
ATOM      8  O   UNL     1       3.624   6.338  19.184  0.00  0.00    +0.000 OA
ATOM      9  N   UNL     1       1.777   6.693  20.435  0.00  0.00    +0.000 N 
ATOM     10  H   UNL     1       1.387   6.409  21.321  0.00  0.00    +0.000 HD
ENDROOT
BRANCH   1  11
ATOM     11  C   UNL     1       5.006   4.119  19.173  0.00  0.00    +0.000 C 
ATOM     12  O   UNL     1       5.882   4.580  19.900  0.00  0.00    +0.000 OA
BRANCH  11  13
ATOM     13  O   UNL     1       5.087   4.028  17.810  0.00  0.00    +0.000 OA
BRANCH  13  14
ATOM     14  C   UNL     1       6.406   4.028  17.255  0.00  0.00    +0.000 C 
BRANCH  14  15
ATOM     15  C   UNL     1       6.643   5.361  16.563  0.00  0.00    +0.000 C 
BRANCH  15  16
ATOM     16  C   UNL     1       5.644   5.605  15.440  0.00  0.00    +0.000 C 
BRANCH  16  21
ATOM     17  C   UNL     1       5.935   3.282  12.426  0.00  0.00    +0.000 A 
ATOM     18  C   UNL     1       7.087   3.784  11.818  0.00  0.00    +0.000 A 
ATOM     19  C   UNL     1       7.767   4.871  12.369  0.00  0.00    +0.000 A 
ATOM     20  C   UNL     1       7.294   5.466  13.537  0.00  0.00    +0.000 A 
ATOM     21  C   UNL     1       6.133   4.984  14.153  0.00  0.00    +0.000 A 
ATOM     22  C   UNL     1       5.462   3.883  13.596  0.00  0.00    +0.000 A 
BRANCH  17  24
ATOM     23  C   UNL     1       6.270   1.256  11.231  0.00  0.00    +0.000 C 
ATOM     24  O   UNL     1       5.374   2.207  11.791  0.00  0.00    +0.000 OA
ENDBRANCH  17  24
ENDBRANCH  16  21
ENDBRANCH  15  16
ENDBRANCH  14  15
ENDBRANCH  13  14
ENDBRANCH  11  13
ENDBRANCH   1  11
BRANCH   9  25
ATOM     25  C   UNL     1       1.798   8.129  20.209  0.00  0.00    +0.000 C 
BRANCH  25  26
ATOM     26  C   UNL     1       0.737   8.894  21.033  0.00  0.00    +0.000 C 
ATOM     27  C   UNL     1      -0.502   8.021  21.290  0.00  0.00    +0.000 C 
ATOM     28  C   UNL     1       1.353   9.282  22.389  0.00  0.00    +0.000 C 
ATOM     29  C   UNL     1       0.321  10.177  20.295  0.00  0.00    +0.000 C 
ENDBRANCH  25  26
ENDBRANCH   9  25
TORSDOF 9
ENDMDL
MODEL 6
REMARK VINA RESULT:      -7.3      1.271      1.724
REMARK  Name = 
REMARK  13 active torsions:
REMARK  status: ('A' for Active; 'I' for Inactive)
REMARK    1  A    between atoms: C_1  and  O_2
REMARK    2  A    between atoms: O_2  and  C_3
REMARK    3  A    between atoms: C_7  and  C_8
REMARK    4  A    between atoms: C_8  and  C_9
REMARK    5  A    between atoms: C_9  and  C_10
REMARK    6  A    between atoms: C_10  and  O_11
REMARK    7  A    between atoms: O_11  and  C_12
REMARK    8  A    between atoms: C_12  and  C_14
REMARK    9  A    between atoms: N_22  and  C_23
REMARK   10  A    between atoms: C_23  and  C_24
REMARK   11  A    between atoms: C_24  and  C_25
REMARK   12  A    between atoms: C_24  and  C_26
REMARK   13  A    between atoms: C_24  and  C_27
REMARK                            x       y       z     vdW  Elec       q    Type
REMARK                         _______ _______ _______ _____ _____    ______ ____
ROOT
ATOM      1  C   UNL     1       4.887   5.289  17.968  0.00  0.00    +0.000 C 
ATOM      2  C   UNL     1       4.327   4.034  17.279  0.00  0.00    +0.000 C 
ATOM      3  C   UNL     1       3.459   3.230  18.248  0.00  0.00    +0.000 C 
ATOM      4  C   UNL     1       2.373   4.110  18.862  0.00  0.00    +0.000 C 
ATOM      5  C   UNL     1       2.974   5.360  19.510  0.00  0.00    +0.000 C 
ATOM      6  N   UNL     1       3.796   6.105  18.549  0.00  0.00    +0.000 N 
ATOM      7  C   UNL     1       3.396   7.250  17.871  0.00  0.00    +0.000 C 
ATOM      8  O   UNL     1       4.002   7.702  16.904  0.00  0.00    +0.000 OA
ATOM      9  N   UNL     1       2.268   7.867  18.342  0.00  0.00    +0.000 N 
ATOM     10  H   UNL     1       2.070   7.728  19.321  0.00  0.00    +0.000 HD
ENDROOT
BRANCH   1  11
ATOM     11  C   UNL     1       5.971   5.999  17.141  0.00  0.00    +0.000 C 
ATOM     12  O   UNL     1       6.058   5.936  15.918  0.00  0.00    +0.000 OA
BRANCH  11  13
ATOM     13  O   UNL     1       6.840   6.674  17.955  0.00  0.00    +0.000 OA
BRANCH  13  14
ATOM     14  C   UNL     1       7.814   7.491  17.296  0.00  0.00    +0.000 C 
BRANCH  14  15
ATOM     15  C   UNL     1       7.722   8.902  17.855  0.00  0.00    +0.000 C 
BRANCH  15  16
ATOM     16  C   UNL     1       8.879   9.220  18.794  0.00  0.00    +0.000 C 
BRANCH  16  21
ATOM     17  C   UNL     1      10.713  12.525  19.316  0.00  0.00    +0.000 A 
ATOM     18  C   UNL     1      10.040  13.345  18.408  0.00  0.00    +0.000 A 
ATOM     19  C   UNL     1       9.003  12.838  17.625  0.00  0.00    +0.000 A 
ATOM     20  C   UNL     1       8.633  11.500  17.744  0.00  0.00    +0.000 A 
ATOM     21  C   UNL     1       9.306  10.660  18.639  0.00  0.00    +0.000 A 
ATOM     22  C   UNL     1      10.341  11.183  19.430  0.00  0.00    +0.000 A 
BRANCH  17  24
ATOM     23  C   UNL     1      12.333  14.260  19.410  0.00  0.00    +0.000 C 
ATOM     24  O   UNL     1      11.698  13.150  20.031  0.00  0.00    +0.000 OA
ENDBRANCH  17  24
ENDBRANCH  16  21
ENDBRANCH  15  16
ENDBRANCH  14  15
ENDBRANCH  13  14
ENDBRANCH  11  13
ENDBRANCH   1  11
BRANCH   9  25
ATOM     25  C   UNL     1       1.840   9.151  17.809  0.00  0.00    +0.000 C 
BRANCH  25  26
ATOM     26  C   UNL     1       0.952   9.954  18.786  0.00  0.00    +0.000 C 
ATOM     27  C   UNL     1       1.463  11.396  18.943  0.00  0.00    +0.000 C 
ATOM     28  C   UNL     1      -0.481  10.000  18.225  0.00  0.00    +0.000 C 
ATOM     29  C   UNL     1       0.921   9.264  20.160  0.00  0.00    +0.000 C 
ENDBRANCH  25  26
ENDBRANCH   9  25
TORSDOF 9
ENDMDL
MODEL 7
REMARK VINA RESULT:      -7.3      1.347      2.004
REMARK  Name = 
REMARK  13 active torsions:
REMARK  status: ('A' for Active; 'I' for Inactive)
REMARK    1  A    between atoms: C_1  and  O_2
REMARK    2  A    between atoms: O_2  and  C_3
REMARK    3  A    between atoms: C_7  and  C_8
REMARK    4  A    between atoms: C_8  and  C_9
REMARK    5  A    between atoms: C_9  and  C_10
REMARK    6  A    between atoms: C_10  and  O_11
REMARK    7  A    between atoms: O_11  and  C_12
REMARK    8  A    between atoms: C_12  and  C_14
REMARK    9  A    between atoms: N_22  and  C_23
REMARK   10  A    between atoms: C_23  and  C_24
REMARK   11  A    between atoms: C_24  and  C_25
REMARK   12  A    between atoms: C_24  and  C_26
REMARK   13  A    between atoms: C_24  and  C_27
REMARK                            x       y       z     vdW  Elec       q    Type
REMARK                         _______ _______ _______ _____ _____    ______ ____
ROOT
ATOM      1  C   UNL     1       4.371   5.463  17.973  0.00  0.00    +0.000 C 
ATOM      2  C   UNL     1       3.682   4.284  17.266  0.00  0.00    +0.000 C 
ATOM      3  C   UNL     1       2.788   3.518  18.243  0.00  0.00    +0.000 C 
ATOM      4  C   UNL     1       1.804   4.462  18.931  0.00  0.00    +0.000 C 
ATOM      5  C   UNL     1       2.532   5.633  19.595  0.00  0.00    +0.000 C 
ATOM      6  N   UNL     1       3.375   6.344  18.627  0.00  0.00    +0.000 N 
ATOM      7  C   UNL     1       3.046   7.541  18.006  0.00  0.00    +0.000 C 
ATOM      8  O   UNL     1       3.650   7.978  17.030  0.00  0.00    +0.000 OA
ATOM      9  N   UNL     1       1.993   8.231  18.544  0.00  0.00    +0.000 N 
ATOM     10  H   UNL     1       1.823   8.072  19.526  0.00  0.00    +0.000 HD
ENDROOT
BRANCH   1  11
ATOM     11  C   UNL     1       5.478   6.111  17.126  0.00  0.00    +0.000 C 
ATOM     12  O   UNL     1       5.470   6.157  15.899  0.00  0.00    +0.000 OA
BRANCH  11  13
ATOM     13  O   UNL     1       6.480   6.594  17.923  0.00  0.00    +0.000 OA
BRANCH  13  14
ATOM     14  C   UNL     1       7.610   7.153  17.244  0.00  0.00    +0.000 C 
BRANCH  14  15
ATOM     15  C   UNL     1       7.749   8.612  17.651  0.00  0.00    +0.000 C 
BRANCH  15  16
ATOM     16  C   UNL     1       8.805   8.804  18.731  0.00  0.00    +0.000 C 
BRANCH  16  21
ATOM     17  C   UNL     1       9.540  12.103  20.502  0.00  0.00    +0.000 A 
ATOM     18  C   UNL     1       9.423  13.003  19.440  0.00  0.00    +0.000 A 
ATOM     19  C   UNL     1       9.115  12.552  18.156  0.00  0.00    +0.000 A 
ATOM     20  C   UNL     1       8.924  11.191  17.925  0.00  0.00    +0.000 A 
ATOM     21  C   UNL     1       9.051  10.274  18.975  0.00  0.00    +0.000 A 
ATOM     22  C   UNL     1       9.350  10.739  20.266  0.00  0.00    +0.000 A 
BRANCH  17  24
ATOM     23  C   UNL     1       9.679  14.088  21.801  0.00  0.00    +0.000 C 
ATOM     24  O   UNL     1       9.831  12.678  21.709  0.00  0.00    +0.000 OA
ENDBRANCH  17  24
ENDBRANCH  16  21
ENDBRANCH  15  16
ENDBRANCH  14  15
ENDBRANCH  13  14
ENDBRANCH  11  13
ENDBRANCH   1  11
BRANCH   9  25
ATOM     25  C   UNL     1       1.653   9.564  18.074  0.00  0.00    +0.000 C 
BRANCH  25  26
ATOM     26  C   UNL     1       0.620  10.285  18.969  0.00  0.00    +0.000 C 
ATOM     27  C   UNL     1      -0.764  10.322  18.300  0.00  0.00    +0.000 C 
ATOM     28  C   UNL     1       0.501   9.518  20.299  0.00  0.00    +0.000 C 
ATOM     29  C   UNL     1       1.089  11.719  19.267  0.00  0.00    +0.000 C 
ENDBRANCH  25  26
ENDBRANCH   9  25
TORSDOF 9
ENDMDL
MODEL 8
REMARK VINA RESULT:      -7.2      1.114      1.513
REMARK  Name = 
REMARK  13 active torsions:
REMARK  status: ('A' for Active; 'I' for Inactive)
REMARK    1  A    between atoms: C_1  and  O_2
REMARK    2  A    between atoms: O_2  and  C_3
REMARK    3  A    between atoms: C_7  and  C_8
REMARK    4  A    between atoms: C_8  and  C_9
REMARK    5  A    between atoms: C_9  and  C_10
REMARK    6  A    between atoms: C_10  and  O_11
REMARK    7  A    between atoms: O_11  and  C_12
REMARK    8  A    between atoms: C_12  and  C_14
REMARK    9  A    between atoms: N_22  and  C_23
REMARK   10  A    between atoms: C_23  and  C_24
REMARK   11  A    between atoms: C_24  and  C_25
REMARK   12  A    between atoms: C_24  and  C_26
REMARK   13  A    between atoms: C_24  and  C_27
REMARK                            x       y       z     vdW  Elec       q    Type
REMARK                         _______ _______ _______ _____ _____    ______ ____
ROOT
ATOM      1  C   UNL     1       4.207   5.274  18.283  0.00  0.00    +0.000 C 
ATOM      2  C   UNL     1       3.475   4.077  17.654  0.00  0.00    +0.000 C 
ATOM      3  C   UNL     1       2.576   3.394  18.684  0.00  0.00    +0.000 C 
ATOM      4  C   UNL     1       1.628   4.402  19.330  0.00  0.00    +0.000 C 
ATOM      5  C   UNL     1       2.398   5.588  19.917  0.00  0.00    +0.000 C 
ATOM      6  N   UNL     1       3.246   6.218  18.899  0.00  0.00    +0.000 N 
ATOM      7  C   UNL     1       2.940   7.388  18.215  0.00  0.00    +0.000 C 
ATOM      8  O   UNL     1       3.541   7.752  17.208  0.00  0.00    +0.000 OA
ATOM      9  N   UNL     1       1.914   8.137  18.727  0.00  0.00    +0.000 N 
ATOM     10  H   UNL     1       1.755   8.039  19.718  0.00  0.00    +0.000 HD
ENDROOT
BRANCH   1  11
ATOM     11  C   UNL     1       5.318   5.842  17.386  0.00  0.00    +0.000 C 
ATOM     12  O   UNL     1       5.304   5.798  16.159  0.00  0.00    +0.000 OA
BRANCH  11  13
ATOM     13  O   UNL     1       6.332   6.367  18.140  0.00  0.00    +0.000 OA
BRANCH  13  14
ATOM     14  C   UNL     1       7.495   6.796  17.422  0.00  0.00    +0.000 C 
BRANCH  14  15
ATOM     15  C   UNL     1       7.624   8.304  17.566  0.00  0.00    +0.000 C 
BRANCH  15  16
ATOM     16  C   UNL     1       8.589   8.690  18.680  0.00  0.00    +0.000 C 
BRANCH  16  21
ATOM     17  C   UNL     1      10.188  12.076  19.411  0.00  0.00    +0.000 A 
ATOM     18  C   UNL     1       9.517  12.887  18.494  0.00  0.00    +0.000 A 
ATOM     19  C   UNL     1       8.557  12.348  17.637  0.00  0.00    +0.000 A 
ATOM     20  C   UNL     1       8.263  10.987  17.692  0.00  0.00    +0.000 A 
ATOM     21  C   UNL     1       8.936  10.157  18.596  0.00  0.00    +0.000 A 
ATOM     22  C   UNL     1       9.893  10.711  19.461  0.00  0.00    +0.000 A 
BRANCH  17  24
ATOM     23  C   UNL     1      10.728  14.029  20.652  0.00  0.00    +0.000 C 
ATOM     24  O   UNL     1      11.094  12.732  20.201  0.00  0.00    +0.000 OA
ENDBRANCH  17  24
ENDBRANCH  16  21
ENDBRANCH  15  16
ENDBRANCH  14  15
ENDBRANCH  13  14
ENDBRANCH  11  13
ENDBRANCH   1  11
BRANCH   9  25
ATOM     25  C   UNL     1       1.604   9.450  18.186  0.00  0.00    +0.000 C 
BRANCH  25  26
ATOM     26  C   UNL     1       0.600  10.247  19.049  0.00  0.00    +0.000 C 
ATOM     27  C   UNL     1       0.398   9.582  20.421  0.00  0.00    +0.000 C 
ATOM     28  C   UNL     1       1.156  11.665  19.268  0.00  0.00    +0.000 C 
ATOM     29  C   UNL     1      -0.751  10.353  18.323  0.00  0.00    +0.000 C 
ENDBRANCH  25  26
ENDBRANCH   9  25
TORSDOF 9
ENDMDL
MODEL 9
REMARK VINA RESULT:      -7.2      1.483      1.778
REMARK  Name = 
REMARK  13 active torsions:
REMARK  status: ('A' for Active; 'I' for Inactive)
REMARK    1  A    between atoms: C_1  and  O_2
REMARK    2  A    between atoms: O_2  and  C_3
REMARK    3  A    between atoms: C_7  and  C_8
REMARK    4  A    between atoms: C_8  and  C_9
REMARK    5  A    between atoms: C_9  and  C_10
REMARK    6  A    between atoms: C_10  and  O_11
REMARK    7  A    between atoms: O_11  and  C_12
REMARK    8  A    between atoms: C_12  and  C_14
REMARK    9  A    between atoms: N_22  and  C_23
REMARK   10  A    between atoms: C_23  and  C_24
REMARK   11  A    between atoms: C_24  and  C_25
REMARK   12  A    between atoms: C_24  and  C_26
REMARK   13  A    between atoms: C_24  and  C_27
REMARK                            x       y       z     vdW  Elec       q    Type
REMARK                         _______ _______ _______ _____ _____    ______ ____
ROOT
ATOM      1  C   UNL     1       4.501   5.684  17.819  0.00  0.00    +0.000 C 
ATOM      2  C   UNL     1       3.943   4.507  17.001  0.00  0.00    +0.000 C 
ATOM      3  C   UNL     1       3.033   3.634  17.866  0.00  0.00    +0.000 C 
ATOM      4  C   UNL     1       1.942   4.475  18.526  0.00  0.00    +0.000 C 
ATOM      5  C   UNL     1       2.542   5.648  19.304  0.00  0.00    +0.000 C 
ATOM      6  N   UNL     1       3.405   6.463  18.441  0.00  0.00    +0.000 N 
ATOM      7  C   UNL     1       3.045   7.672  17.860  0.00  0.00    +0.000 C 
ATOM      8  O   UNL     1       3.688   8.200  16.957  0.00  0.00    +0.000 OA
ATOM      9  N   UNL     1       1.913   8.265  18.353  0.00  0.00    +0.000 N 
ATOM     10  H   UNL     1       1.683   8.041  19.308  0.00  0.00    +0.000 HD
ENDROOT
BRANCH   1  11
ATOM     11  C   UNL     1       5.622   6.445  17.094  0.00  0.00    +0.000 C 
ATOM     12  O   UNL     1       5.747   6.491  15.873  0.00  0.00    +0.000 OA
BRANCH  11  13
ATOM     13  O   UNL     1       6.472   7.031  17.992  0.00  0.00    +0.000 OA
BRANCH  13  14
ATOM     14  C   UNL     1       7.711   7.517  17.462  0.00  0.00    +0.000 C 
BRANCH  14  15
ATOM     15  C   UNL     1       7.748   9.028  17.621  0.00  0.00    +0.000 C 
BRANCH  15  16
ATOM     16  C   UNL     1       8.783   9.468  18.648  0.00  0.00    +0.000 C 
BRANCH  16  21
ATOM     17  C   UNL     1       8.904  13.179  17.766  0.00  0.00    +0.000 A 
ATOM     18  C   UNL     1      10.278  13.368  17.613  0.00  0.00    +0.000 A 
ATOM     19  C   UNL     1      11.167  12.309  17.799  0.00  0.00    +0.000 A 
ATOM     20  C   UNL     1      10.683  11.048  18.142  0.00  0.00    +0.000 A 
ATOM     21  C   UNL     1       9.309  10.843  18.314  0.00  0.00    +0.000 A 
ATOM     22  C   UNL     1       8.422  11.913  18.114  0.00  0.00    +0.000 A 
BRANCH  17  24
ATOM     23  C   UNL     1       6.750  14.182  17.802  0.00  0.00    +0.000 C 
ATOM     24  O   UNL     1       8.143  14.294  17.543  0.00  0.00    +0.000 OA
ENDBRANCH  17  24
ENDBRANCH  16  21
ENDBRANCH  15  16
ENDBRANCH  14  15
ENDBRANCH  13  14
ENDBRANCH  11  13
ENDBRANCH   1  11
BRANCH   9  25
ATOM     25  C   UNL     1       1.522   9.600  17.928  0.00  0.00    +0.000 C 
BRANCH  25  26
ATOM     26  C   UNL     1       0.516  10.277  18.886  0.00  0.00    +0.000 C 
ATOM     27  C   UNL     1       0.471   9.556  20.243  0.00  0.00    +0.000 C 
ATOM     28  C   UNL     1       0.962  11.732  19.119  0.00  0.00    +0.000 C 
ATOM     29  C   UNL     1      -0.887  10.286  18.258  0.00  0.00    +0.000 C 
ENDBRANCH  25  26
ENDBRANCH   9  25
TORSDOF 9
ENDMDL
