MODEL 1
REMARK VINA RESULT:      -8.1      0.000      0.000
REMARK  Name = 
REMARK  8 active torsions:
REMARK  status: ('A' for Active; 'I' for Inactive)
REMARK    1  A    between atoms: C_1  and  C_2
REMARK    2  A    between atoms: C_2  and  O_3
REMARK    3  A    between atoms: O_3  and  C_4
REMARK    4  A    between atoms: C_4  and  C_6
REMARK    5  A    between atoms: C_10  and  C_11
REMARK    6  A    between atoms: N_12  and  C_13
REMARK    7  A    between atoms: C_13  and  C_14
REMARK    8  A    between atoms: C_23  and  C_24
REMARK                            x       y       z     vdW  Elec       q    Type
REMARK                         _______ _______ _______ _____ _____    ______ ____
ROOT
ATOM      1  C   UNL     1       3.540   4.594  19.764  0.00  0.00    +0.000 C 
ATOM      2  O   UNL     1       2.546   5.071  20.704  0.00  0.00    +0.000 OA
ATOM      3  C   UNL     1       2.254   6.315  20.191  0.00  0.00    +0.000 A 
ATOM      4  C   UNL     1       1.529   7.263  20.964  0.00  0.00    +0.000 A 
ATOM      5  C   UNL     1       1.304   8.488  20.458  0.00  0.00    +0.000 A 
ATOM      6  C   UNL     1       0.512   9.469  21.279  0.00  0.00    +0.000 C 
ATOM      7  N   UNL     1       1.763   8.815  19.161  0.00  0.00    +0.000 N 
ATOM      8  C   UNL     1       2.389   7.858  18.330  0.00  0.00    +0.000 A 
ATOM      9  O   UNL     1       2.686   8.042  17.154  0.00  0.00    +0.000 OA
ATOM     10  C   UNL     1       2.660   6.557  18.955  0.00  0.00    +0.000 A 
ATOM     11  C   UNL     1       3.355   5.363  18.431  0.00  0.00    +0.000 C 
ENDROOT
BRANCH  11  12
ATOM     12  C   UNL     1       4.660   5.639  17.711  0.00  0.00    +0.000 A 
ATOM     13  C   UNL     1       4.812   5.398  16.337  0.00  0.00    +0.000 A 
ATOM     14  C   UNL     1       6.018   5.675  15.695  0.00  0.00    +0.000 A 
ATOM     15  C   UNL     1       7.092   6.180  16.421  0.00  0.00    +0.000 A 
ATOM     16  C   UNL     1       6.964   6.409  17.789  0.00  0.00    +0.000 A 
ATOM     17  C   UNL     1       5.755   6.141  18.432  0.00  0.00    +0.000 A 
ENDBRANCH  11  12
BRANCH   1  18
ATOM     18  C   UNL     1       3.483   3.082  19.601  0.00  0.00    +0.000 C 
ATOM     19  O   UNL     1       4.055   2.269  20.314  0.00  0.00    +0.000 OA
BRANCH  18  20
ATOM     20  O   UNL     1       2.836   2.778  18.437  0.00  0.00    +0.000 OA
BRANCH  20  22
ATOM     21  C   UNL     1       0.533   2.748  19.061  0.00  0.00    +0.000 C 
ATOM     22  C   UNL     1       1.701   1.913  18.562  0.00  0.00    +0.000 C 
ENDBRANCH  20  22
ENDBRANCH  18  20
ENDBRANCH   1  18
BRANCH   7  23
ATOM     23  C   UNL     1       1.488  10.115  18.540  0.00  0.00    +0.000 C 
BRANCH  23  24
ATOM     24  C   UNL     1       0.026  10.450  18.306  0.00  0.00    +0.000 A 
ATOM     25  C   UNL     1      -0.497  11.693  18.698  0.00  0.00    +0.000 A 
ATOM     26  C   UNL     1      -1.788  12.079  18.321  0.00  0.00    +0.000 A 
ATOM     27  C   UNL     1      -2.579  11.222  17.559  0.00  0.00    +0.000 A 
ATOM     28  C   UNL     1      -2.092   9.967  17.202  0.00  0.00    +0.000 A 
ATOM     29  C   UNL     1      -0.802   9.582  17.577  0.00  0.00    +0.000 A 
ENDBRANCH  23  24
ENDBRANCH   7  23
TORSDOF 6
ENDMDL
MODEL 2
REMARK VINA RESULT:      -8.0      0.200      1.280
REMARK  Name = 
REMARK  8 active torsions:
REMARK  status: ('A' for Active; 'I' for Inactive)
REMARK    1  A    between atoms: C_1  and  C_2
REMARK    2  A    between atoms: C_2  and  O_3
REMARK    3  A    between atoms: O_3  and  C_4
REMARK    4  A    between atoms: C_4  and  C_6
REMARK    5  A    between atoms: C_10  and  C_11
REMARK    6  A    between atoms: N_12  and  C_13
REMARK    7  A    between atoms: C_13  and  C_14
REMARK    8  A    between atoms: C_23  and  C_24
REMARK                            x       y       z     vdW  Elec       q    Type
REMARK                         _______ _______ _______ _____ _____    ______ ____
ROOT
ATOM      1  C   UNL     1       3.439   4.717  19.787  0.00  0.00    +0.000 C 
ATOM      2  O   UNL     1       2.446   5.214  20.719  0.00  0.00    +0.000 OA
ATOM      3  C   UNL     1       2.174   6.458  20.195  0.00  0.00    +0.000 A 
ATOM      4  C   UNL     1       1.457   7.421  20.958  0.00  0.00    +0.000 A 
ATOM      5  C   UNL     1       1.252   8.645  20.443  0.00  0.00    +0.000 A 
ATOM      6  C   UNL     1       0.469   9.642  21.252  0.00  0.00    +0.000 C 
ATOM      7  N   UNL     1       1.723   8.958  19.146  0.00  0.00    +0.000 N 
ATOM      8  C   UNL     1       2.341   7.986  18.325  0.00  0.00    +0.000 A 
ATOM      9  O   UNL     1       2.648   8.158  17.150  0.00  0.00    +0.000 OA
ATOM     10  C   UNL     1       2.591   6.686  18.961  0.00  0.00    +0.000 A 
ATOM     11  C   UNL     1       3.272   5.479  18.448  0.00  0.00    +0.000 C 
ENDROOT
BRANCH  11  12
ATOM     12  C   UNL     1       4.585   5.733  17.734  0.00  0.00    +0.000 A 
ATOM     13  C   UNL     1       5.672   6.341  18.380  0.00  0.00    +0.000 A 
ATOM     14  C   UNL     1       6.874   6.550  17.705  0.00  0.00    +0.000 A 
ATOM     15  C   UNL     1       6.999   6.169  16.372  0.00  0.00    +0.000 A 
ATOM     16  C   UNL     1       5.924   5.580  15.711  0.00  0.00    +0.000 A 
ATOM     17  C   UNL     1       4.722   5.362  16.387  0.00  0.00    +0.000 A 
ENDBRANCH  11  12
BRANCH   1  18
ATOM     18  C   UNL     1       3.362   3.205  19.634  0.00  0.00    +0.000 C 
ATOM     19  O   UNL     1       3.888   2.388  20.378  0.00  0.00    +0.000 OA
BRANCH  18  20
ATOM     20  O   UNL     1       2.762   2.902  18.445  0.00  0.00    +0.000 OA
BRANCH  20  22
ATOM     21  C   UNL     1       0.497   2.749  19.184  0.00  0.00    +0.000 C 
ATOM     22  C   UNL     1       1.645   2.006  18.520  0.00  0.00    +0.000 C 
ENDBRANCH  20  22
ENDBRANCH  18  20
ENDBRANCH   1  18
BRANCH   7  23
ATOM     23  C   UNL     1       1.470  10.257  18.515  0.00  0.00    +0.000 C 
BRANCH  23  24
ATOM     24  C   UNL     1       0.016  10.597  18.242  0.00  0.00    +0.000 A 
ATOM     25  C   UNL     1      -0.840   9.661  17.638  0.00  0.00    +0.000 A 
ATOM     26  C   UNL     1      -2.216   9.899  17.555  0.00  0.00    +0.000 A 
ATOM     27  C   UNL     1      -2.754  11.081  18.058  0.00  0.00    +0.000 A 
ATOM     28  C   UNL     1      -1.912  12.039  18.617  0.00  0.00    +0.000 A 
ATOM     29  C   UNL     1      -0.537  11.803  18.703  0.00  0.00    +0.000 A 
ENDBRANCH  23  24
ENDBRANCH   7  23
TORSDOF 6
ENDMDL
MODEL 3
REMARK VINA RESULT:      -8.0      0.847      1.323
REMARK  Name = 
REMARK  8 active torsions:
REMARK  status: ('A' for Active; 'I' for Inactive)
REMARK    1  A    between atoms: C_1  and  C_2
REMARK    2  A    between atoms: C_2  and  O_3
REMARK    3  A    between atoms: O_3  and  C_4
REMARK    4  A    between atoms: C_4  and  C_6
REMARK    5  A    between atoms: C_10  and  C_11
REMARK    6  A    between atoms: N_12  and  C_13
REMARK    7  A    between atoms: C_13  and  C_14
REMARK    8  A    between atoms: C_23  and  C_24
REMARK                            x       y       z     vdW  Elec       q    Type
REMARK                         _______ _______ _______ _____ _____    ______ ____
ROOT
ATOM      1  C   UNL     1       2.928   4.627  20.239  0.00  0.00    +0.000 C 
ATOM      2  O   UNL     1       1.933   5.217  21.112  0.00  0.00    +0.000 OA
ATOM      3  C   UNL     1       1.795   6.473  20.565  0.00  0.00    +0.000 A 
ATOM      4  C   UNL     1       1.123   7.501  21.281  0.00  0.00    +0.000 A 
ATOM      5  C   UNL     1       1.049   8.732  20.746  0.00  0.00    +0.000 A 
ATOM      6  C   UNL     1       0.311   9.801  21.504  0.00  0.00    +0.000 C 
ATOM      7  N   UNL     1       1.613   8.988  19.474  0.00  0.00    +0.000 N 
ATOM      8  C   UNL     1       2.190   7.959  18.695  0.00  0.00    +0.000 A 
ATOM      9  O   UNL     1       2.572   8.090  17.537  0.00  0.00    +0.000 OA
ATOM     10  C   UNL     1       2.295   6.650  19.353  0.00  0.00    +0.000 A 
ATOM     11  C   UNL     1       2.899   5.384  18.887  0.00  0.00    +0.000 C 
ENDROOT
BRANCH  11  12
ATOM     12  C   UNL     1       4.264   5.518  18.244  0.00  0.00    +0.000 A 
ATOM     13  C   UNL     1       4.428   5.513  16.850  0.00  0.00    +0.000 A 
ATOM     14  C   UNL     1       5.694   5.653  16.282  0.00  0.00    +0.000 A 
ATOM     15  C   UNL     1       6.813   5.783  17.100  0.00  0.00    +0.000 A 
ATOM     16  C   UNL     1       6.669   5.773  18.485  0.00  0.00    +0.000 A 
ATOM     17  C   UNL     1       5.402   5.642  19.056  0.00  0.00    +0.000 A 
ENDBRANCH  11  12
BRANCH   1  18
ATOM     18  C   UNL     1       2.732   3.125  20.093  0.00  0.00    +0.000 C 
ATOM     19  O   UNL     1       1.830   2.473  20.603  0.00  0.00    +0.000 OA
BRANCH  18  20
ATOM     20  O   UNL     1       3.812   2.590  19.451  0.00  0.00    +0.000 OA
BRANCH  20  22
ATOM     21  C   UNL     1       2.779   2.183  17.338  0.00  0.00    +0.000 C 
ATOM     22  C   UNL     1       3.523   1.553  18.503  0.00  0.00    +0.000 C 
ENDBRANCH  20  22
ENDBRANCH  18  20
ENDBRANCH   1  18
BRANCH   7  23
ATOM     23  C   UNL     1       1.504  10.297  18.820  0.00  0.00    +0.000 C 
BRANCH  23  24
ATOM     24  C   UNL     1       0.114  10.709  18.373  0.00  0.00    +0.000 A 
ATOM     25  C   UNL     1      -0.726   9.800  17.709  0.00  0.00    +0.000 A 
ATOM     26  C   UNL     1      -2.067  10.113  17.462  0.00  0.00    +0.000 A 
ATOM     27  C   UNL     1      -2.584  11.343  17.861  0.00  0.00    +0.000 A 
ATOM     28  C   UNL     1      -1.752  12.273  18.479  0.00  0.00    +0.000 A 
ATOM     29  C   UNL     1      -0.412  11.962  18.728  0.00  0.00    +0.000 A 
ENDBRANCH  23  24
ENDBRANCH   7  23
TORSDOF 6
ENDMDL
MODEL 4
REMARK VINA RESULT:      -8.0      0.832      1.305
REMARK  Name = 
REMARK  8 active torsions:
REMARK  status: ('A' for Active; 'I' for Inactive)
REMARK    1  A    between atoms: C_1  and  C_2
REMARK    2  A    between atoms: C_2  and  O_3
REMARK    3  A    between atoms: O_3  and  C_4
REMARK    4  A    between atoms: C_4  and  C_6
REMARK    5  A    between atoms: C_10  and  C_11
REMARK    6  A    between atoms: N_12  and  C_13
REMARK    7  A    between atoms: C_13  and  C_14
REMARK    8  A    between atoms: C_23  and  C_24
REMARK                            x       y       z     vdW  Elec       q    Type
REMARK                         _______ _______ _______ _____ _____    ______ ____
ROOT
ATOM      1  C   UNL     1       2.982   4.506  20.265  0.00  0.00    +0.000 C 
ATOM      2  O   UNL     1       1.978   5.080  21.138  0.00  0.00    +0.000 OA
ATOM      3  C   UNL     1       1.828   6.338  20.598  0.00  0.00    +0.000 A 
ATOM      4  C   UNL     1       1.144   7.356  21.318  0.00  0.00    +0.000 A 
ATOM      5  C   UNL     1       1.059   8.589  20.790  0.00  0.00    +0.000 A 
ATOM      6  C   UNL     1       0.308   9.645  21.553  0.00  0.00    +0.000 C 
ATOM      7  N   UNL     1       1.624   8.858  19.522  0.00  0.00    +0.000 N 
ATOM      8  C   UNL     1       2.213   7.839  18.738  0.00  0.00    +0.000 A 
ATOM      9  O   UNL     1       2.597   7.981  17.581  0.00  0.00    +0.000 OA
ATOM     10  C   UNL     1       2.330   6.528  19.389  0.00  0.00    +0.000 A 
ATOM     11  C   UNL     1       2.948   5.271  18.917  0.00  0.00    +0.000 C 
ENDROOT
BRANCH  11  12
ATOM     12  C   UNL     1       4.313   5.423  18.278  0.00  0.00    +0.000 A 
ATOM     13  C   UNL     1       5.475   5.591  19.047  0.00  0.00    +0.000 A 
ATOM     14  C   UNL     1       6.722   5.714  18.435  0.00  0.00    +0.000 A 
ATOM     15  C   UNL     1       6.821   5.687  17.047  0.00  0.00    +0.000 A 
ATOM     16  C   UNL     1       5.676   5.538  16.269  0.00  0.00    +0.000 A 
ATOM     17  C   UNL     1       4.428   5.406  16.879  0.00  0.00    +0.000 A 
ENDBRANCH  11  12
BRANCH   1  18
ATOM     18  C   UNL     1       2.801   3.003  20.110  0.00  0.00    +0.000 C 
ATOM     19  O   UNL     1       1.909   2.338  20.618  0.00  0.00    +0.000 OA
BRANCH  18  20
ATOM     20  O   UNL     1       3.884   2.484  19.459  0.00  0.00    +0.000 OA
BRANCH  20  22
ATOM     21  C   UNL     1       2.666   2.129  17.438  0.00  0.00    +0.000 C 
ATOM     22  C   UNL     1       3.597   1.498  18.459  0.00  0.00    +0.000 C 
ENDBRANCH  20  22
ENDBRANCH  18  20
ENDBRANCH   1  18
BRANCH   7  23
ATOM     23  C   UNL     1       1.503  10.169  18.875  0.00  0.00    +0.000 C 
BRANCH  23  24
ATOM     24  C   UNL     1       0.103  10.590  18.469  0.00  0.00    +0.000 A 
ATOM     25  C   UNL     1      -0.350  11.899  18.702  0.00  0.00    +0.000 A 
ATOM     26  C   UNL     1      -1.564  12.344  18.167  0.00  0.00    +0.000 A 
ATOM     27  C   UNL     1      -2.349  11.482  17.403  0.00  0.00    +0.000 A 
ATOM     28  C   UNL     1      -1.936  10.168  17.202  0.00  0.00    +0.000 A 
ATOM     29  C   UNL     1      -0.723   9.723  17.735  0.00  0.00    +0.000 A 
ENDBRANCH  23  24
ENDBRANCH   7  23
TORSDOF 6
ENDMDL
MODEL 5
REMARK VINA RESULT:      -7.6      1.599      4.034
REMARK  Name = 
REMARK  8 active torsions:
REMARK  status: ('A' for Active; 'I' for Inactive)
REMARK    1  A    between atoms: C_1  and  C_2
REMARK    2  A    between atoms: C_2  and  O_3
REMARK    3  A    between atoms: O_3  and  C_4
REMARK    4  A    between atoms: C_4  and  C_6
REMARK    5  A    between atoms: C_10  and  C_11
REMARK    6  A    between atoms: N_12  and  C_13
REMARK    7  A    between atoms: C_13  and  C_14
REMARK    8  A    between atoms: C_23  and  C_24
REMARK                            x       y       z     vdW  Elec       q    Type
REMARK                         _______ _______ _______ _____ _____    ______ ____
ROOT
ATOM      1  C   UNL     1       3.942   5.688  17.606  0.00  0.00    +0.000 C 
ATOM      2  O   UNL     1       4.126   7.038  17.113  0.00  0.00    +0.000 OA
ATOM      3  C   UNL     1       3.240   7.742  17.898  0.00  0.00    +0.000 A 
ATOM      4  C   UNL     1       2.879   9.076  17.559  0.00  0.00    +0.000 A 
ATOM      5  C   UNL     1       1.972   9.721  18.312  0.00  0.00    +0.000 A 
ATOM      6  C   UNL     1       1.622  11.139  17.955  0.00  0.00    +0.000 C 
ATOM      7  N   UNL     1       1.406   9.085  19.441  0.00  0.00    +0.000 N 
ATOM      8  C   UNL     1       1.828   7.803  19.862  0.00  0.00    +0.000 A 
ATOM      9  O   UNL     1       1.474   7.258  20.904  0.00  0.00    +0.000 OA
ATOM     10  C   UNL     1       2.776   7.123  18.970  0.00  0.00    +0.000 A 
ATOM     11  C   UNL     1       3.366   5.770  19.043  0.00  0.00    +0.000 C 
ENDROOT
BRANCH  11  12
ATOM     12  C   UNL     1       2.390   4.657  19.364  0.00  0.00    +0.000 A 
ATOM     13  C   UNL     1       1.598   4.059  18.371  0.00  0.00    +0.000 A 
ATOM     14  C   UNL     1       0.717   3.026  18.689  0.00  0.00    +0.000 A 
ATOM     15  C   UNL     1       0.605   2.589  20.006  0.00  0.00    +0.000 A 
ATOM     16  C   UNL     1       1.371   3.182  21.006  0.00  0.00    +0.000 A 
ATOM     17  C   UNL     1       2.259   4.211  20.689  0.00  0.00    +0.000 A 
ENDBRANCH  11  12
BRANCH   1  18
ATOM     18  C   UNL     1       5.225   4.874  17.517  0.00  0.00    +0.000 C 
ATOM     19  O   UNL     1       5.450   3.992  16.700  0.00  0.00    +0.000 OA
BRANCH  18  20
ATOM     20  O   UNL     1       6.016   5.160  18.593  0.00  0.00    +0.000 OA
BRANCH  20  22
ATOM     21  C   UNL     1       7.549   6.857  17.908  0.00  0.00    +0.000 C 
ATOM     22  C   UNL     1       7.400   5.397  18.304  0.00  0.00    +0.000 C 
ENDBRANCH  20  22
ENDBRANCH  18  20
ENDBRANCH   1  18
BRANCH   7  23
ATOM     23  C   UNL     1       0.460   9.767  20.331  0.00  0.00    +0.000 C 
BRANCH  23  24
ATOM     24  C   UNL     1      -0.798  10.313  19.680  0.00  0.00    +0.000 A 
ATOM     25  C   UNL     1      -1.320  11.561  20.058  0.00  0.00    +0.000 A 
ATOM     26  C   UNL     1      -2.364  12.149  19.337  0.00  0.00    +0.000 A 
ATOM     27  C   UNL     1      -2.912  11.493  18.238  0.00  0.00    +0.000 A 
ATOM     28  C   UNL     1      -2.437  10.234  17.878  0.00  0.00    +0.000 A 
ATOM     29  C   UNL     1      -1.393   9.646  18.597  0.00  0.00    +0.000 A 
ENDBRANCH  23  24
ENDBRANCH   7  23
TORSDOF 6
ENDMDL
MODEL 6
REMARK VINA RESULT:      -7.6      1.618      4.219
REMARK  Name = 
REMARK  8 active torsions:
REMARK  status: ('A' for Active; 'I' for Inactive)
REMARK    1  A    between atoms: C_1  and  C_2
REMARK    2  A    between atoms: C_2  and  O_3
REMARK    3  A    between atoms: O_3  and  C_4
REMARK    4  A    between atoms: C_4  and  C_6
REMARK    5  A    between atoms: C_10  and  C_11
REMARK    6  A    between atoms: N_12  and  C_13
REMARK    7  A    between atoms: C_13  and  C_14
REMARK    8  A    between atoms: C_23  and  C_24
REMARK                            x       y       z     vdW  Elec       q    Type
REMARK                         _______ _______ _______ _____ _____    ______ ____
ROOT
ATOM      1  C   UNL     1       4.016   5.739  17.709  0.00  0.00    +0.000 C 
ATOM      2  O   UNL     1       4.188   7.084  17.198  0.00  0.00    +0.000 OA
ATOM      3  C   UNL     1       3.256   7.781  17.935  0.00  0.00    +0.000 A 
ATOM      4  C   UNL     1       2.877   9.099  17.558  0.00  0.00    +0.000 A 
ATOM      5  C   UNL     1       1.927   9.735  18.264  0.00  0.00    +0.000 A 
ATOM      6  C   UNL     1       1.558  11.138  17.867  0.00  0.00    +0.000 C 
ATOM      7  N   UNL     1       1.334   9.106  19.383  0.00  0.00    +0.000 N 
ATOM      8  C   UNL     1       1.769   7.843  19.844  0.00  0.00    +0.000 A 
ATOM      9  O   UNL     1       1.389   7.308  20.882  0.00  0.00    +0.000 OA
ATOM     10  C   UNL     1       2.766   7.170  19.001  0.00  0.00    +0.000 A 
ATOM     11  C   UNL     1       3.385   5.833  19.122  0.00  0.00    +0.000 C 
ENDROOT
BRANCH  11  12
ATOM     12  C   UNL     1       2.423   4.703  19.427  0.00  0.00    +0.000 A 
ATOM     13  C   UNL     1       2.227   4.231  20.734  0.00  0.00    +0.000 A 
ATOM     14  C   UNL     1       1.325   3.199  20.990  0.00  0.00    +0.000 A 
ATOM     15  C   UNL     1       0.621   2.614  19.941  0.00  0.00    +0.000 A 
ATOM     16  C   UNL     1       0.816   3.059  18.636  0.00  0.00    +0.000 A 
ATOM     17  C   UNL     1       1.712   4.098  18.378  0.00  0.00    +0.000 A 
ENDBRANCH  11  12
BRANCH   1  18
ATOM     18  C   UNL     1       5.320   4.955  17.684  0.00  0.00    +0.000 C 
ATOM     19  O   UNL     1       5.616   4.096  16.864  0.00  0.00    +0.000 OA
BRANCH  18  20
ATOM     20  O   UNL     1       6.036   5.233  18.813  0.00  0.00    +0.000 OA
BRANCH  20  22
ATOM     21  C   UNL     1       7.601   6.828  17.972  0.00  0.00    +0.000 C 
ATOM     22  C   UNL     1       7.438   5.463  18.622  0.00  0.00    +0.000 C 
ENDBRANCH  20  22
ENDBRANCH  18  20
ENDBRANCH   1  18
BRANCH   7  23
ATOM     23  C   UNL     1       0.339   9.782  20.223  0.00  0.00    +0.000 C 
BRANCH  23  24
ATOM     24  C   UNL     1      -0.827  10.426  19.496  0.00  0.00    +0.000 A 
ATOM     25  C   UNL     1      -1.457   9.770  18.426  0.00  0.00    +0.000 A 
ATOM     26  C   UNL     1      -2.641  10.271  17.875  0.00  0.00    +0.000 A 
ATOM     27  C   UNL     1      -3.205  11.443  18.376  0.00  0.00    +0.000 A 
ATOM     28  C   UNL     1      -2.566  12.130  19.405  0.00  0.00    +0.000 A 
ATOM     29  C   UNL     1      -1.384  11.630  19.957  0.00  0.00    +0.000 A 
ENDBRANCH  23  24
ENDBRANCH   7  23
TORSDOF 6
ENDMDL
MODEL 7
REMARK VINA RESULT:      -7.5      1.563      4.173
REMARK  Name = 
REMARK  8 active torsions:
REMARK  status: ('A' for Active; 'I' for Inactive)
REMARK    1  A    between atoms: C_1  and  C_2
REMARK    2  A    between atoms: C_2  and  O_3
REMARK    3  A    between atoms: O_3  and  C_4
REMARK    4  A    between atoms: C_4  and  C_6
REMARK    5  A    between atoms: C_10  and  C_11
REMARK    6  A    between atoms: N_12  and  C_13
REMARK    7  A    between atoms: C_13  and  C_14
REMARK    8  A    between atoms: C_23  and  C_24
REMARK                            x       y       z     vdW  Elec       q    Type
REMARK                         _______ _______ _______ _____ _____    ______ ____
ROOT
ATOM      1  C   UNL     1       3.961   5.768  17.732  0.00  0.00    +0.000 C 
ATOM      2  O   UNL     1       4.116   7.110  17.208  0.00  0.00    +0.000 OA
ATOM      3  C   UNL     1       3.203   7.809  17.967  0.00  0.00    +0.000 A 
ATOM      4  C   UNL     1       2.811   9.124  17.592  0.00  0.00    +0.000 A 
ATOM      5  C   UNL     1       1.879   9.763  18.321  0.00  0.00    +0.000 A 
ATOM      6  C   UNL     1       1.497  11.163  17.927  0.00  0.00    +0.000 C 
ATOM      7  N   UNL     1       1.318   9.139  19.459  0.00  0.00    +0.000 N 
ATOM      8  C   UNL     1       1.768   7.879  19.915  0.00  0.00    +0.000 A 
ATOM      9  O   UNL     1       1.418   7.350  20.965  0.00  0.00    +0.000 OA
ATOM     10  C   UNL     1       2.744   7.204  19.049  0.00  0.00    +0.000 A 
ATOM     11  C   UNL     1       3.368   5.869  19.160  0.00  0.00    +0.000 C 
ENDROOT
BRANCH  11  12
ATOM     12  C   UNL     1       2.417   4.738  19.497  0.00  0.00    +0.000 A 
ATOM     13  C   UNL     1       2.287   4.246  20.806  0.00  0.00    +0.000 A 
ATOM     14  C   UNL     1       1.394   3.215  21.092  0.00  0.00    +0.000 A 
ATOM     15  C   UNL     1       0.633   2.650  20.073  0.00  0.00    +0.000 A 
ATOM     16  C   UNL     1       0.762   3.114  18.766  0.00  0.00    +0.000 A 
ATOM     17  C   UNL     1       1.650   4.153  18.478  0.00  0.00    +0.000 A 
ENDBRANCH  11  12
BRANCH   1  18
ATOM     18  C   UNL     1       5.266   4.986  17.675  0.00  0.00    +0.000 C 
ATOM     19  O   UNL     1       5.487   3.931  18.254  0.00  0.00    +0.000 OA
BRANCH  18  20
ATOM     20  O   UNL     1       6.207   5.727  17.019  0.00  0.00    +0.000 OA
BRANCH  20  22
ATOM     21  C   UNL     1       7.602   7.593  17.539  0.00  0.00    +0.000 C 
ATOM     22  C   UNL     1       7.346   6.117  17.797  0.00  0.00    +0.000 C 
ENDBRANCH  20  22
ENDBRANCH  18  20
ENDBRANCH   1  18
BRANCH   7  23
ATOM     23  C   UNL     1       0.345   9.818  20.322  0.00  0.00    +0.000 C 
BRANCH  23  24
ATOM     24  C   UNL     1      -0.911  10.332  19.642  0.00  0.00    +0.000 A 
ATOM     25  C   UNL     1      -1.453  11.581  19.985  0.00  0.00    +0.000 A 
ATOM     26  C   UNL     1      -2.495  12.139  19.237  0.00  0.00    +0.000 A 
ATOM     27  C   UNL     1      -3.019  11.451  18.145  0.00  0.00    +0.000 A 
ATOM     28  C   UNL     1      -2.523  10.191  17.821  0.00  0.00    +0.000 A 
ATOM     29  C   UNL     1      -1.482   9.632  18.567  0.00  0.00    +0.000 A 
ENDBRANCH  23  24
ENDBRANCH   7  23
TORSDOF 6
ENDMDL
MODEL 8
REMARK VINA RESULT:      -7.5      1.598      3.965
REMARK  Name = 
REMARK  8 active torsions:
REMARK  status: ('A' for Active; 'I' for Inactive)
REMARK    1  A    between atoms: C_1  and  C_2
REMARK    2  A    between atoms: C_2  and  O_3
REMARK    3  A    between atoms: O_3  and  C_4
REMARK    4  A    between atoms: C_4  and  C_6
REMARK    5  A    between atoms: C_10  and  C_11
REMARK    6  A    between atoms: N_12  and  C_13
REMARK    7  A    between atoms: C_13  and  C_14
REMARK    8  A    between atoms: C_23  and  C_24
REMARK                            x       y       z     vdW  Elec       q    Type
REMARK                         _______ _______ _______ _____ _____    ______ ____
ROOT
ATOM      1  C   UNL     1       4.013   5.479  17.720  0.00  0.00    +0.000 C 
ATOM      2  O   UNL     1       4.227   6.810  17.188  0.00  0.00    +0.000 OA
ATOM      3  C   UNL     1       3.340   7.553  17.935  0.00  0.00    +0.000 A 
ATOM      4  C   UNL     1       3.007   8.880  17.548  0.00  0.00    +0.000 A 
ATOM      5  C   UNL     1       2.098   9.563  18.265  0.00  0.00    +0.000 A 
ATOM      6  C   UNL     1       1.777  10.975  17.858  0.00  0.00    +0.000 C 
ATOM      7  N   UNL     1       1.502   8.972  19.404  0.00  0.00    +0.000 N 
ATOM      8  C   UNL     1       1.896   7.697  19.872  0.00  0.00    +0.000 A 
ATOM      9  O   UNL     1       1.516   7.191  20.924  0.00  0.00    +0.000 OA
ATOM     10  C   UNL     1       2.848   6.975  19.018  0.00  0.00    +0.000 A 
ATOM     11  C   UNL     1       3.414   5.616  19.143  0.00  0.00    +0.000 C 
ENDROOT
BRANCH  11  12
ATOM     12  C   UNL     1       2.414   4.529  19.481  0.00  0.00    +0.000 A 
ATOM     13  C   UNL     1       1.577   3.965  18.507  0.00  0.00    +0.000 A 
ATOM     14  C   UNL     1       0.675   2.955  18.841  0.00  0.00    +0.000 A 
ATOM     15  C   UNL     1       0.588   2.508  20.156  0.00  0.00    +0.000 A 
ATOM     16  C   UNL     1       1.399   3.069  21.139  0.00  0.00    +0.000 A 
ATOM     17  C   UNL     1       2.309   4.074  20.806  0.00  0.00    +0.000 A 
ENDBRANCH  11  12
BRANCH   1  18
ATOM     18  C   UNL     1       5.283   4.643  17.678  0.00  0.00    +0.000 C 
ATOM     19  O   UNL     1       6.064   4.491  18.607  0.00  0.00    +0.000 OA
BRANCH  18  20
ATOM     20  O   UNL     1       5.508   4.228  16.396  0.00  0.00    +0.000 OA
BRANCH  20  22
ATOM     21  C   UNL     1       6.673   4.439  14.324  0.00  0.00    +0.000 C 
ATOM     22  C   UNL     1       6.770   4.605  15.831  0.00  0.00    +0.000 C 
ENDBRANCH  20  22
ENDBRANCH  18  20
ENDBRANCH   1  18
BRANCH   7  23
ATOM     23  C   UNL     1       0.553   9.697  20.255  0.00  0.00    +0.000 C 
BRANCH  23  24
ATOM     24  C   UNL     1      -0.691  10.231  19.569  0.00  0.00    +0.000 A 
ATOM     25  C   UNL     1      -1.206  11.495  19.897  0.00  0.00    +0.000 A 
ATOM     26  C   UNL     1      -2.236  12.068  19.141  0.00  0.00    +0.000 A 
ATOM     27  C   UNL     1      -2.775  11.378  18.058  0.00  0.00    +0.000 A 
ATOM     28  C   UNL     1      -2.307  10.103  17.749  0.00  0.00    +0.000 A 
ATOM     29  C   UNL     1      -1.277   9.531  18.502  0.00  0.00    +0.000 A 
ENDBRANCH  23  24
ENDBRANCH   7  23
TORSDOF 6
ENDMDL
MODEL 9
REMARK VINA RESULT:      -7.5      1.599      4.113
REMARK  Name = 
REMARK  8 active torsions:
REMARK  status: ('A' for Active; 'I' for Inactive)
REMARK    1  A    between atoms: C_1  and  C_2
REMARK    2  A    between atoms: C_2  and  O_3
REMARK    3  A    between atoms: O_3  and  C_4
REMARK    4  A    between atoms: C_4  and  C_6
REMARK    5  A    between atoms: C_10  and  C_11
REMARK    6  A    between atoms: N_12  and  C_13
REMARK    7  A    between atoms: C_13  and  C_14
REMARK    8  A    between atoms: C_23  and  C_24
REMARK                            x       y       z     vdW  Elec       q    Type
REMARK                         _______ _______ _______ _____ _____    ______ ____
ROOT
ATOM      1  C   UNL     1       4.103   5.419  17.826  0.00  0.00    +0.000 C 
ATOM      2  O   UNL     1       4.338   6.744  17.288  0.00  0.00    +0.000 OA
ATOM      3  C   UNL     1       3.414   7.492  17.983  0.00  0.00    +0.000 A 
ATOM      4  C   UNL     1       3.094   8.814  17.565  0.00  0.00    +0.000 A 
ATOM      5  C   UNL     1       2.150   9.501  18.230  0.00  0.00    +0.000 A 
ATOM      6  C   UNL     1       1.844  10.907  17.791  0.00  0.00    +0.000 C 
ATOM      7  N   UNL     1       1.504   8.922  19.347  0.00  0.00    +0.000 N 
ATOM      8  C   UNL     1       1.880   7.655  19.848  0.00  0.00    +0.000 A 
ATOM      9  O   UNL     1       1.453   7.160  20.887  0.00  0.00    +0.000 OA
ATOM     10  C   UNL     1       2.873   6.926  19.049  0.00  0.00    +0.000 A 
ATOM     11  C   UNL     1       3.438   5.571  19.218  0.00  0.00    +0.000 C 
ENDROOT
BRANCH  11  12
ATOM     12  C   UNL     1       2.427   4.483  19.522  0.00  0.00    +0.000 A 
ATOM     13  C   UNL     1       2.250   3.980  20.820  0.00  0.00    +0.000 A 
ATOM     14  C   UNL     1       1.303   2.990  21.076  0.00  0.00    +0.000 A 
ATOM     15  C   UNL     1       0.532   2.479  20.036  0.00  0.00    +0.000 A 
ATOM     16  C   UNL     1       0.706   2.955  18.739  0.00  0.00    +0.000 A 
ATOM     17  C   UNL     1       1.648   3.952  18.481  0.00  0.00    +0.000 A 
ENDBRANCH  11  12
BRANCH   1  18
ATOM     18  C   UNL     1       5.377   4.587  17.854  0.00  0.00    +0.000 C 
ATOM     19  O   UNL     1       6.203   4.584  18.757  0.00  0.00    +0.000 OA
BRANCH  18  20
ATOM     20  O   UNL     1       5.544   3.976  16.644  0.00  0.00    +0.000 OA
BRANCH  20  22
ATOM     21  C   UNL     1       6.232   4.607  14.448  0.00  0.00    +0.000 C 
ATOM     22  C   UNL     1       6.683   4.398  15.884  0.00  0.00    +0.000 C 
ENDBRANCH  20  22
ENDBRANCH  18  20
ENDBRANCH   1  18
BRANCH   7  23
ATOM     23  C   UNL     1       0.513   9.654  20.143  0.00  0.00    +0.000 C 
BRANCH  23  24
ATOM     24  C   UNL     1      -0.640  10.273  19.375  0.00  0.00    +0.000 A 
ATOM     25  C   UNL     1      -1.300   9.552  18.366  0.00  0.00    +0.000 A 
ATOM     26  C   UNL     1      -2.475  10.043  17.786  0.00  0.00    +0.000 A 
ATOM     27  C   UNL     1      -2.998  11.267  18.195  0.00  0.00    +0.000 A 
ATOM     28  C   UNL     1      -2.329  12.016  19.161  0.00  0.00    +0.000 A 
ATOM     29  C   UNL     1      -1.157  11.525  19.742  0.00  0.00    +0.000 A 
ENDBRANCH  23  24
ENDBRANCH   7  23
TORSDOF 6
ENDMDL
