MODEL 1
REMARK VINA RESULT:      -8.2      0.000      0.000
REMARK  Name = 
REMARK  10 active torsions:
REMARK  status: ('A' for Active; 'I' for Inactive)
REMARK    1  A    between atoms: C_1  and  C_2
REMARK    2  A    between atoms: C_2  and  C_3
REMARK    3  A    between atoms: C_3  and  O_4
REMARK    4  A    between atoms: O_4  and  C_5
REMARK    5  A    between atoms: C_8  and  C_9
REMARK    6  A    between atoms: C_9  and  N_10
REMARK    7  A    between atoms: C_11  and  C_13
REMARK    8  A    between atoms: C_13  and  C_14
REMARK    9  A    between atoms: C_14  and  C_15
REMARK   10  A    between atoms: C_22  and  C_23
REMARK                            x       y       z     vdW  Elec       q    Type
REMARK                         _______ _______ _______ _____ _____    ______ ____
ROOT
ATOM      1  N   UNL     1       2.038   4.748  19.891  0.00  0.00    +0.000 N 
ATOM      2  C   UNL     1       1.768   3.468  20.307  0.00  0.00    +0.000 C 
ATOM      3  O   UNL     1       1.623   3.155  21.483  0.00  0.00    +0.000 OA
ATOM      4  H   UNL     1       1.908   4.968  18.908  0.00  0.00    +0.000 HD
ENDROOT
BRANCH   1   5
ATOM      5  C   UNL     1       2.191   5.835  20.840  0.00  0.00    +0.000 C 
BRANCH   5   9
ATOM      6  C   UNL     1       1.260   9.659  18.993  0.00  0.00    +0.000 A 
ATOM      7  C   UNL     1       1.969   8.672  18.302  0.00  0.00    +0.000 A 
ATOM      8  C   UNL     1       2.272   7.448  18.909  0.00  0.00    +0.000 A 
ATOM      9  C   UNL     1       1.887   7.180  20.227  0.00  0.00    +0.000 A 
ATOM     10  C   UNL     1       1.176   8.171  20.920  0.00  0.00    +0.000 A 
ATOM     11  C   UNL     1       0.867   9.399  20.308  0.00  0.00    +0.000 A 
BRANCH   6  12
ATOM     12  O   UNL     1       0.909  10.886  18.477  0.00  0.00    +0.000 OA
BRANCH  12  13
ATOM     13  C   UNL     1      -0.466  11.249  18.652  0.00  0.00    +0.000 C 
BRANCH  13  15
ATOM     14  C   UNL     1      -2.678  11.162  17.476  0.00  0.00    +0.000 C 
ATOM     15  C   UNL     1      -1.376  10.419  17.751  0.00  0.00    +0.000 C 
ENDBRANCH  13  15
ENDBRANCH  12  13
ENDBRANCH   6  12
ENDBRANCH   5   9
ENDBRANCH   1   5
BRANCH   2  16
ATOM     16  C   UNL     1       1.732   2.448  19.187  0.00  0.00    +0.000 C 
BRANCH  16  17
ATOM     17  C   UNL     1       3.081   1.946  18.686  0.00  0.00    +0.000 C 
BRANCH  17  18
ATOM     18  C   UNL     1       4.375   2.643  19.130  0.00  0.00    +0.000 C 
ATOM     19  O   UNL     1       5.054   2.362  20.102  0.00  0.00    +0.000 OA
ATOM     20  N   UNL     1       4.710   3.754  18.278  0.00  0.00    +0.000 N 
ATOM     21  N   UNL     1       3.877   3.974  17.209  0.00  0.00    +0.000 NA
ATOM     22  C   UNL     1       4.282   5.116  16.681  0.00  0.00    +0.000 A 
ATOM     23  C   UNL     1       5.406   5.643  17.324  0.00  0.00    +0.000 A 
ATOM     24  C   UNL     1       6.167   6.810  17.132  0.00  0.00    +0.000 A 
ATOM     25  C   UNL     1       7.292   7.051  17.922  0.00  0.00    +0.000 A 
ATOM     26  C   UNL     1       8.087   8.310  17.700  0.00  0.00    +0.000 C 
ATOM     27  C   UNL     1       7.659   6.091  18.877  0.00  0.00    +0.000 A 
ATOM     28  C   UNL     1       6.887   4.922  19.107  0.00  0.00    +0.000 A 
ATOM     29  C   UNL     1       5.732   4.716  18.322  0.00  0.00    +0.000 A 
ENDBRANCH  17  18
ENDBRANCH  16  17
ENDBRANCH   2  16
TORSDOF 8
ENDMDL
MODEL 2
REMARK VINA RESULT:      -8.0      1.145      1.310
REMARK  Name = 
REMARK  10 active torsions:
REMARK  status: ('A' for Active; 'I' for Inactive)
REMARK    1  A    between atoms: C_1  and  C_2
REMARK    2  A    between atoms: C_2  and  C_3
REMARK    3  A    between atoms: C_3  and  O_4
REMARK    4  A    between atoms: O_4  and  C_5
REMARK    5  A    between atoms: C_8  and  C_9
REMARK    6  A    between atoms: C_9  and  N_10
REMARK    7  A    between atoms: C_11  and  C_13
REMARK    8  A    between atoms: C_13  and  C_14
REMARK    9  A    between atoms: C_14  and  C_15
REMARK   10  A    between atoms: C_22  and  C_23
REMARK                            x       y       z     vdW  Elec       q    Type
REMARK                         _______ _______ _______ _____ _____    ______ ____
ROOT
ATOM      1  N   UNL     1       1.754   4.668  20.285  0.00  0.00    +0.000 N 
ATOM      2  C   UNL     1       1.848   3.414  20.836  0.00  0.00    +0.000 C 
ATOM      3  O   UNL     1       2.037   3.212  22.030  0.00  0.00    +0.000 OA
ATOM      4  H   UNL     1       1.365   4.750  19.351  0.00  0.00    +0.000 HD
ENDROOT
BRANCH   1   5
ATOM      5  C   UNL     1       1.894   5.862  21.097  0.00  0.00    +0.000 C 
BRANCH   5   9
ATOM      6  C   UNL     1       1.471   9.449  18.677  0.00  0.00    +0.000 A 
ATOM      7  C   UNL     1       2.128   8.316  18.188  0.00  0.00    +0.000 A 
ATOM      8  C   UNL     1       2.266   7.170  18.978  0.00  0.00    +0.000 A 
ATOM      9  C   UNL     1       1.766   7.127  20.284  0.00  0.00    +0.000 A 
ATOM     10  C   UNL     1       1.107   8.265  20.775  0.00  0.00    +0.000 A 
ATOM     11  C   UNL     1       0.963   9.414  19.978  0.00  0.00    +0.000 A 
BRANCH   6  12
ATOM     12  O   UNL     1       1.277  10.616  17.972  0.00  0.00    +0.000 OA
BRANCH  12  13
ATOM     13  C   UNL     1       2.376  11.534  18.001  0.00  0.00    +0.000 C 
BRANCH  13  15
ATOM     14  C   UNL     1       0.743  13.361  18.529  0.00  0.00    +0.000 C 
ATOM     15  C   UNL     1       2.077  12.726  18.906  0.00  0.00    +0.000 C 
ENDBRANCH  13  15
ENDBRANCH  12  13
ENDBRANCH   6  12
ENDBRANCH   5   9
ENDBRANCH   1   5
BRANCH   2  16
ATOM     16  C   UNL     1       1.769   2.287  19.827  0.00  0.00    +0.000 C 
BRANCH  16  17
ATOM     17  C   UNL     1       2.938   2.162  18.859  0.00  0.00    +0.000 C 
BRANCH  17  18
ATOM     18  C   UNL     1       4.298   2.785  19.209  0.00  0.00    +0.000 C 
ATOM     19  O   UNL     1       5.048   2.435  20.102  0.00  0.00    +0.000 OA
ATOM     20  N   UNL     1       4.604   3.917  18.374  0.00  0.00    +0.000 N 
ATOM     21  N   UNL     1       3.688   4.217  17.395  0.00  0.00    +0.000 NA
ATOM     22  C   UNL     1       4.095   5.363  16.878  0.00  0.00    +0.000 A 
ATOM     23  C   UNL     1       5.295   5.816  17.435  0.00  0.00    +0.000 A 
ATOM     24  C   UNL     1       6.088   6.957  17.220  0.00  0.00    +0.000 A 
ATOM     25  C   UNL     1       7.289   7.117  17.912  0.00  0.00    +0.000 A 
ATOM     26  C   UNL     1       8.116   8.351  17.667  0.00  0.00    +0.000 C 
ATOM     27  C   UNL     1       7.697   6.103  18.791  0.00  0.00    +0.000 A 
ATOM     28  C   UNL     1       6.897   4.958  19.044  0.00  0.00    +0.000 A 
ATOM     29  C   UNL     1       5.668   4.833  18.362  0.00  0.00    +0.000 A 
ENDBRANCH  17  18
ENDBRANCH  16  17
ENDBRANCH   2  16
TORSDOF 8
ENDMDL
MODEL 3
REMARK VINA RESULT:      -7.4      1.120      1.307
REMARK  Name = 
REMARK  10 active torsions:
REMARK  status: ('A' for Active; 'I' for Inactive)
REMARK    1  A    between atoms: C_1  and  C_2
REMARK    2  A    between atoms: C_2  and  C_3
REMARK    3  A    between atoms: C_3  and  O_4
REMARK    4  A    between atoms: O_4  and  C_5
REMARK    5  A    between atoms: C_8  and  C_9
REMARK    6  A    between atoms: C_9  and  N_10
REMARK    7  A    between atoms: C_11  and  C_13
REMARK    8  A    between atoms: C_13  and  C_14
REMARK    9  A    between atoms: C_14  and  C_15
REMARK   10  A    between atoms: C_22  and  C_23
REMARK                            x       y       z     vdW  Elec       q    Type
REMARK                         _______ _______ _______ _____ _____    ______ ____
ROOT
ATOM      1  N   UNL     1       2.554   4.211  19.930  0.00  0.00    +0.000 N 
ATOM      2  C   UNL     1       1.800   3.228  19.339  0.00  0.00    +0.000 C 
ATOM      3  O   UNL     1       0.608   3.057  19.571  0.00  0.00    +0.000 OA
ATOM      4  H   UNL     1       3.453   4.437  19.516  0.00  0.00    +0.000 HD
ENDROOT
BRANCH   1   5
ATOM      5  C   UNL     1       1.980   5.119  20.906  0.00  0.00    +0.000 C 
BRANCH   5   9
ATOM      6  C   UNL     1       1.535   9.124  19.275  0.00  0.00    +0.000 A 
ATOM      7  C   UNL     1       2.250   8.137  18.591  0.00  0.00    +0.000 A 
ATOM      8  C   UNL     1       2.395   6.854  19.129  0.00  0.00    +0.000 A 
ATOM      9  C   UNL     1       1.842   6.523  20.371  0.00  0.00    +0.000 A 
ATOM     10  C   UNL     1       1.124   7.515  21.057  0.00  0.00    +0.000 A 
ATOM     11  C   UNL     1       0.974   8.803  20.513  0.00  0.00    +0.000 A 
BRANCH   6  12
ATOM     12  O   UNL     1       1.330  10.408  18.822  0.00  0.00    +0.000 OA
BRANCH  12  13
ATOM     13  C   UNL     1       0.328  11.151  19.527  0.00  0.00    +0.000 C 
BRANCH  13  15
ATOM     14  C   UNL     1      -0.518  13.080  18.169  0.00  0.00    +0.000 C 
ATOM     15  C   UNL     1      -0.768  11.634  18.583  0.00  0.00    +0.000 C 
ENDBRANCH  13  15
ENDBRANCH  12  13
ENDBRANCH   6  12
ENDBRANCH   5   9
ENDBRANCH   1   5
BRANCH   2  16
ATOM     16  C   UNL     1       2.583   2.317  18.417  0.00  0.00    +0.000 C 
BRANCH  16  17
ATOM     17  C   UNL     1       3.658   2.980  17.564  0.00  0.00    +0.000 C 
BRANCH  17  18
ATOM     18  C   UNL     1       4.912   3.569  18.226  0.00  0.00    +0.000 C 
ATOM     19  O   UNL     1       5.511   3.110  19.182  0.00  0.00    +0.000 OA
ATOM     20  N   UNL     1       5.313   4.810  17.615  0.00  0.00    +0.000 N 
ATOM     21  N   UNL     1       4.568   5.227  16.541  0.00  0.00    +0.000 NA
ATOM     22  C   UNL     1       5.013   6.440  16.259  0.00  0.00    +0.000 A 
ATOM     23  C   UNL     1       6.081   6.829  17.073  0.00  0.00    +0.000 A 
ATOM     24  C   UNL     1       6.854   8.001  17.154  0.00  0.00    +0.000 A 
ATOM     25  C   UNL     1       7.912   8.082  18.060  0.00  0.00    +0.000 A 
ATOM     26  C   UNL     1       8.720   9.350  18.131  0.00  0.00    +0.000 C 
ATOM     27  C   UNL     1       8.202   6.963  18.855  0.00  0.00    +0.000 A 
ATOM     28  C   UNL     1       7.415   5.782  18.810  0.00  0.00    +0.000 A 
ATOM     29  C   UNL     1       6.327   5.734  17.912  0.00  0.00    +0.000 A 
ENDBRANCH  17  18
ENDBRANCH  16  17
ENDBRANCH   2  16
TORSDOF 8
ENDMDL
MODEL 4
REMARK VINA RESULT:      -7.3      1.556      2.183
REMARK  Name = 
REMARK  10 active torsions:
REMARK  status: ('A' for Active; 'I' for Inactive)
REMARK    1  A    between atoms: C_1  and  C_2
REMARK    2  A    between atoms: C_2  and  C_3
REMARK    3  A    between atoms: C_3  and  O_4
REMARK    4  A    between atoms: O_4  and  C_5
REMARK    5  A    between atoms: C_8  and  C_9
REMARK    6  A    between atoms: C_9  and  N_10
REMARK    7  A    between atoms: C_11  and  C_13
REMARK    8  A    between atoms: C_13  and  C_14
REMARK    9  A    between atoms: C_14  and  C_15
REMARK   10  A    between atoms: C_22  and  C_23
REMARK                            x       y       z     vdW  Elec       q    Type
REMARK                         _______ _______ _______ _____ _____    ______ ____
ROOT
ATOM      1  N   UNL     1       1.499   4.370  20.042  0.00  0.00    +0.000 N 
ATOM      2  C   UNL     1       1.232   3.072  20.396  0.00  0.00    +0.000 C 
ATOM      3  O   UNL     1       1.157   2.689  21.558  0.00  0.00    +0.000 OA
ATOM      4  H   UNL     1       1.311   4.653  19.085  0.00  0.00    +0.000 HD
ENDROOT
BRANCH   1   5
ATOM      5  C   UNL     1       1.735   5.394  21.043  0.00  0.00    +0.000 C 
BRANCH   5   9
ATOM      6  C   UNL     1       1.371   9.368  19.319  0.00  0.00    +0.000 A 
ATOM      7  C   UNL     1       2.096   8.361  18.676  0.00  0.00    +0.000 A 
ATOM      8  C   UNL     1       2.214   7.088  19.243  0.00  0.00    +0.000 A 
ATOM      9  C   UNL     1       1.624   6.788  20.477  0.00  0.00    +0.000 A 
ATOM     10  C   UNL     1       0.897   7.800  21.122  0.00  0.00    +0.000 A 
ATOM     11  C   UNL     1       0.773   9.077  20.548  0.00  0.00    +0.000 A 
BRANCH   6  12
ATOM     12  O   UNL     1       1.191  10.644  18.835  0.00  0.00    +0.000 OA
BRANCH  12  13
ATOM     13  C   UNL     1       1.064  11.663  19.834  0.00  0.00    +0.000 C 
BRANCH  13  15
ATOM     14  C   UNL     1       2.512  12.795  18.129  0.00  0.00    +0.000 C 
ATOM     15  C   UNL     1       2.034  12.813  19.577  0.00  0.00    +0.000 C 
ENDBRANCH  13  15
ENDBRANCH  12  13
ENDBRANCH   6  12
ENDBRANCH   5   9
ENDBRANCH   1   5
BRANCH   2  16
ATOM     16  C   UNL     1       1.105   2.124  19.221  0.00  0.00    +0.000 C 
BRANCH  16  17
ATOM     17  C   UNL     1       2.316   2.018  18.303  0.00  0.00    +0.000 C 
BRANCH  17  18
ATOM     18  C   UNL     1       2.776   3.239  17.492  0.00  0.00    +0.000 C 
ATOM     19  O   UNL     1       2.330   3.608  16.421  0.00  0.00    +0.000 OA
ATOM     20  N   UNL     1       3.880   3.919  18.120  0.00  0.00    +0.000 N 
ATOM     21  N   UNL     1       4.295   3.417  19.328  0.00  0.00    +0.000 NA
ATOM     22  C   UNL     1       5.396   4.087  19.623  0.00  0.00    +0.000 A 
ATOM     23  C   UNL     1       5.702   5.072  18.679  0.00  0.00    +0.000 A 
ATOM     24  C   UNL     1       6.750   6.003  18.561  0.00  0.00    +0.000 A 
ATOM     25  C   UNL     1       6.763   6.914  17.504  0.00  0.00    +0.000 A 
ATOM     26  C   UNL     1       7.899   7.895  17.398  0.00  0.00    +0.000 C 
ATOM     27  C   UNL     1       5.696   6.900  16.593  0.00  0.00    +0.000 A 
ATOM     28  C   UNL     1       4.644   5.950  16.678  0.00  0.00    +0.000 A 
ATOM     29  C   UNL     1       4.669   5.013  17.733  0.00  0.00    +0.000 A 
ENDBRANCH  17  18
ENDBRANCH  16  17
ENDBRANCH   2  16
TORSDOF 8
ENDMDL
MODEL 5
REMARK VINA RESULT:      -7.3      5.596      8.642
REMARK  Name = 
REMARK  10 active torsions:
REMARK  status: ('A' for Active; 'I' for Inactive)
REMARK    1  A    between atoms: C_1  and  C_2
REMARK    2  A    between atoms: C_2  and  C_3
REMARK    3  A    between atoms: C_3  and  O_4
REMARK    4  A    between atoms: O_4  and  C_5
REMARK    5  A    between atoms: C_8  and  C_9
REMARK    6  A    between atoms: C_9  and  N_10
REMARK    7  A    between atoms: C_11  and  C_13
REMARK    8  A    between atoms: C_13  and  C_14
REMARK    9  A    between atoms: C_14  and  C_15
REMARK   10  A    between atoms: C_22  and  C_23
REMARK                            x       y       z     vdW  Elec       q    Type
REMARK                         _______ _______ _______ _____ _____    ______ ____
ROOT
ATOM      1  N   UNL     1       7.254   7.488  16.838  0.00  0.00    +0.000 N 
ATOM      2  C   UNL     1       7.938   7.968  17.927  0.00  0.00    +0.000 C 
ATOM      3  O   UNL     1       8.302   7.263  18.862  0.00  0.00    +0.000 OA
ATOM      4  H   UNL     1       7.201   8.075  16.012  0.00  0.00    +0.000 HD
ENDROOT
BRANCH   1   5
ATOM      5  C   UNL     1       6.892   6.087  16.731  0.00  0.00    +0.000 C 
BRANCH   5   9
ATOM      6  C   UNL     1       3.114   5.207  18.693  0.00  0.00    +0.000 A 
ATOM      7  C   UNL     1       4.172   4.294  18.712  0.00  0.00    +0.000 A 
ATOM      8  C   UNL     1       5.381   4.583  18.070  0.00  0.00    +0.000 A 
ATOM      9  C   UNL     1       5.563   5.786  17.378  0.00  0.00    +0.000 A 
ATOM     10  C   UNL     1       4.499   6.701  17.358  0.00  0.00    +0.000 A 
ATOM     11  C   UNL     1       3.287   6.412  18.009  0.00  0.00    +0.000 A 
BRANCH   6  12
ATOM     12  O   UNL     1       1.894   5.015  19.303  0.00  0.00    +0.000 OA
BRANCH  12  13
ATOM     13  C   UNL     1       1.957   4.587  20.669  0.00  0.00    +0.000 C 
BRANCH  13  15
ATOM     14  C   UNL     1       2.028   2.297  21.686  0.00  0.00    +0.000 C 
ATOM     15  C   UNL     1       1.195   3.281  20.873  0.00  0.00    +0.000 C 
ENDBRANCH  13  15
ENDBRANCH  12  13
ENDBRANCH   6  12
ENDBRANCH   5   9
ENDBRANCH   1   5
BRANCH   2  16
ATOM     16  C   UNL     1       8.149   9.468  17.914  0.00  0.00    +0.000 C 
BRANCH  16  17
ATOM     17  C   UNL     1       9.273  10.001  18.794  0.00  0.00    +0.000 C 
BRANCH  17  18
ATOM     18  C   UNL     1       9.795  11.431  18.595  0.00  0.00    +0.000 C 
ATOM     19  O   UNL     1      10.290  11.887  17.580  0.00  0.00    +0.000 OA
ATOM     20  N   UNL     1       9.689  12.217  19.797  0.00  0.00    +0.000 N 
ATOM     21  N   UNL     1       9.109  11.601  20.877  0.00  0.00    +0.000 NA
ATOM     22  C   UNL     1       9.268  12.442  21.884  0.00  0.00    +0.000 A 
ATOM     23  C   UNL     1       9.883  13.638  21.501  0.00  0.00    +0.000 A 
ATOM     24  C   UNL     1      10.262  14.796  22.204  0.00  0.00    +0.000 A 
ATOM     25  C   UNL     1      10.830  15.874  21.525  0.00  0.00    +0.000 A 
ATOM     26  C   UNL     1      11.230  17.099  22.301  0.00  0.00    +0.000 C 
ATOM     27  C   UNL     1      10.979  15.786  20.132  0.00  0.00    +0.000 A 
ATOM     28  C   UNL     1      10.631  14.615  19.409  0.00  0.00    +0.000 A 
ATOM     29  C   UNL     1      10.092  13.522  20.120  0.00  0.00    +0.000 A 
ENDBRANCH  17  18
ENDBRANCH  16  17
ENDBRANCH   2  16
TORSDOF 8
ENDMDL
MODEL 6
REMARK VINA RESULT:      -7.3      2.181      6.185
REMARK  Name = 
REMARK  10 active torsions:
REMARK  status: ('A' for Active; 'I' for Inactive)
REMARK    1  A    between atoms: C_1  and  C_2
REMARK    2  A    between atoms: C_2  and  C_3
REMARK    3  A    between atoms: C_3  and  O_4
REMARK    4  A    between atoms: O_4  and  C_5
REMARK    5  A    between atoms: C_8  and  C_9
REMARK    6  A    between atoms: C_9  and  N_10
REMARK    7  A    between atoms: C_11  and  C_13
REMARK    8  A    between atoms: C_13  and  C_14
REMARK    9  A    between atoms: C_14  and  C_15
REMARK   10  A    between atoms: C_22  and  C_23
REMARK                            x       y       z     vdW  Elec       q    Type
REMARK                         _______ _______ _______ _____ _____    ______ ____
ROOT
ATOM      1  N   UNL     1       4.619   2.884  17.443  0.00  0.00    +0.000 N 
ATOM      2  C   UNL     1       3.250   2.807  17.488  0.00  0.00    +0.000 C 
ATOM      3  O   UNL     1       2.515   3.340  16.664  0.00  0.00    +0.000 OA
ATOM      4  H   UNL     1       5.153   2.231  18.008  0.00  0.00    +0.000 HD
ENDROOT
BRANCH   1   5
ATOM      5  C   UNL     1       5.300   3.636  16.405  0.00  0.00    +0.000 C 
BRANCH   5   9
ATOM      6  C   UNL     1       7.664   6.924  17.988  0.00  0.00    +0.000 A 
ATOM      7  C   UNL     1       7.716   5.650  18.561  0.00  0.00    +0.000 A 
ATOM      8  C   UNL     1       6.945   4.601  18.050  0.00  0.00    +0.000 A 
ATOM      9  C   UNL     1       6.088   4.797  16.960  0.00  0.00    +0.000 A 
ATOM     10  C   UNL     1       6.036   6.076  16.386  0.00  0.00    +0.000 A 
ATOM     11  C   UNL     1       6.815   7.129  16.897  0.00  0.00    +0.000 A 
BRANCH   6  12
ATOM     12  O   UNL     1       8.391   8.012  18.415  0.00  0.00    +0.000 OA
BRANCH  12  13
ATOM     13  C   UNL     1       7.986   9.270  17.861  0.00  0.00    +0.000 C 
BRANCH  13  15
ATOM     14  C   UNL     1       9.414  10.344  19.619  0.00  0.00    +0.000 C 
ATOM     15  C   UNL     1       9.018  10.357  18.147  0.00  0.00    +0.000 C 
ENDBRANCH  13  15
ENDBRANCH  12  13
ENDBRANCH   6  12
ENDBRANCH   5   9
ENDBRANCH   1   5
BRANCH   2  16
ATOM     16  C   UNL     1       2.711   2.060  18.690  0.00  0.00    +0.000 C 
BRANCH  16  17
ATOM     17  C   UNL     1       3.072   2.627  20.057  0.00  0.00    +0.000 C 
BRANCH  17  18
ATOM     18  C   UNL     1       2.190   3.707  20.701  0.00  0.00    +0.000 C 
ATOM     19  O   UNL     1       1.318   3.530  21.532  0.00  0.00    +0.000 OA
ATOM     20  N   UNL     1       2.465   5.017  20.168  0.00  0.00    +0.000 N 
ATOM     21  N   UNL     1       3.474   5.096  19.241  0.00  0.00    +0.000 NA
ATOM     22  C   UNL     1       3.432   6.337  18.788  0.00  0.00    +0.000 A 
ATOM     23  C   UNL     1       2.465   7.118  19.428  0.00  0.00    +0.000 A 
ATOM     24  C   UNL     1       2.053   8.455  19.283  0.00  0.00    +0.000 A 
ATOM     25  C   UNL     1       1.067   8.979  20.119  0.00  0.00    +0.000 A 
ATOM     26  C   UNL     1       0.642  10.412  19.940  0.00  0.00    +0.000 C 
ATOM     27  C   UNL     1       0.529   8.156  21.120  0.00  0.00    +0.000 A 
ATOM     28  C   UNL     1       0.909   6.796  21.263  0.00  0.00    +0.000 A 
ATOM     29  C   UNL     1       1.881   6.275  20.384  0.00  0.00    +0.000 A 
ENDBRANCH  17  18
ENDBRANCH  16  17
ENDBRANCH   2  16
TORSDOF 8
ENDMDL
MODEL 7
REMARK VINA RESULT:      -7.3      1.129      1.515
REMARK  Name = 
REMARK  10 active torsions:
REMARK  status: ('A' for Active; 'I' for Inactive)
REMARK    1  A    between atoms: C_1  and  C_2
REMARK    2  A    between atoms: C_2  and  C_3
REMARK    3  A    between atoms: C_3  and  O_4
REMARK    4  A    between atoms: O_4  and  C_5
REMARK    5  A    between atoms: C_8  and  C_9
REMARK    6  A    between atoms: C_9  and  N_10
REMARK    7  A    between atoms: C_11  and  C_13
REMARK    8  A    between atoms: C_13  and  C_14
REMARK    9  A    between atoms: C_14  and  C_15
REMARK   10  A    between atoms: C_22  and  C_23
REMARK                            x       y       z     vdW  Elec       q    Type
REMARK                         _______ _______ _______ _____ _____    ______ ____
ROOT
ATOM      1  N   UNL     1       2.493   5.240  19.074  0.00  0.00    +0.000 N 
ATOM      2  C   UNL     1       1.758   4.097  19.263  0.00  0.00    +0.000 C 
ATOM      3  O   UNL     1       1.119   3.865  20.283  0.00  0.00    +0.000 OA
ATOM      4  H   UNL     1       2.792   5.464  18.130  0.00  0.00    +0.000 HD
ENDROOT
BRANCH   1   5
ATOM      5  C   UNL     1       2.578   6.263  20.100  0.00  0.00    +0.000 C 
BRANCH   5   9
ATOM      6  C   UNL     1       0.839  10.070  18.924  0.00  0.00    +0.000 A 
ATOM      7  C   UNL     1       0.685   9.570  20.221  0.00  0.00    +0.000 A 
ATOM      8  C   UNL     1       1.241   8.340  20.586  0.00  0.00    +0.000 A 
ATOM      9  C   UNL     1       1.955   7.566  19.664  0.00  0.00    +0.000 A 
ATOM     10  C   UNL     1       2.108   8.068  18.363  0.00  0.00    +0.000 A 
ATOM     11  C   UNL     1       1.554   9.308  17.998  0.00  0.00    +0.000 A 
BRANCH   6  12
ATOM     12  O   UNL     1       0.338  11.272  18.476  0.00  0.00    +0.000 OA
BRANCH  12  13
ATOM     13  C   UNL     1      -1.076  11.441  18.639  0.00  0.00    +0.000 C 
BRANCH  13  15
ATOM     14  C   UNL     1      -2.845  12.594  19.989  0.00  0.00    +0.000 C 
ATOM     15  C   UNL     1      -1.390  12.634  19.538  0.00  0.00    +0.000 C 
ENDBRANCH  13  15
ENDBRANCH  12  13
ENDBRANCH   6  12
ENDBRANCH   5   9
ENDBRANCH   1   5
BRANCH   2  16
ATOM     16  C   UNL     1       1.858   3.101  18.126  0.00  0.00    +0.000 C 
BRANCH  16  17
ATOM     17  C   UNL     1       3.247   2.879  17.542  0.00  0.00    +0.000 C 
BRANCH  17  18
ATOM     18  C   UNL     1       4.487   3.400  18.283  0.00  0.00    +0.000 C 
ATOM     19  O   UNL     1       4.967   2.943  19.305  0.00  0.00    +0.000 OA
ATOM     20  N   UNL     1       5.037   4.575  17.657  0.00  0.00    +0.000 N 
ATOM     21  N   UNL     1       4.418   4.997  16.506  0.00  0.00    +0.000 NA
ATOM     22  C   UNL     1       4.981   6.156  16.214  0.00  0.00    +0.000 A 
ATOM     23  C   UNL     1       6.008   6.500  17.098  0.00  0.00    +0.000 A 
ATOM     24  C   UNL     1       6.865   7.611  17.196  0.00  0.00    +0.000 A 
ATOM     25  C   UNL     1       7.849   7.653  18.185  0.00  0.00    +0.000 A 
ATOM     26  C   UNL     1       8.749   8.856  18.270  0.00  0.00    +0.000 C 
ATOM     27  C   UNL     1       7.981   6.554  19.047  0.00  0.00    +0.000 A 
ATOM     28  C   UNL     1       7.107   5.437  18.984  0.00  0.00    +0.000 A 
ATOM     29  C   UNL     1       6.095   5.431  18.000  0.00  0.00    +0.000 A 
ENDBRANCH  17  18
ENDBRANCH  16  17
ENDBRANCH   2  16
TORSDOF 8
ENDMDL
MODEL 8
REMARK VINA RESULT:      -7.3      4.083      7.861
REMARK  Name = 
REMARK  10 active torsions:
REMARK  status: ('A' for Active; 'I' for Inactive)
REMARK    1  A    between atoms: C_1  and  C_2
REMARK    2  A    between atoms: C_2  and  C_3
REMARK    3  A    between atoms: C_3  and  O_4
REMARK    4  A    between atoms: O_4  and  C_5
REMARK    5  A    between atoms: C_8  and  C_9
REMARK    6  A    between atoms: C_9  and  N_10
REMARK    7  A    between atoms: C_11  and  C_13
REMARK    8  A    between atoms: C_13  and  C_14
REMARK    9  A    between atoms: C_14  and  C_15
REMARK   10  A    between atoms: C_22  and  C_23
REMARK                            x       y       z     vdW  Elec       q    Type
REMARK                         _______ _______ _______ _____ _____    ______ ____
ROOT
ATOM      1  N   UNL     1       7.819   8.151  17.446  0.00  0.00    +0.000 N 
ATOM      2  C   UNL     1       7.399   6.845  17.503  0.00  0.00    +0.000 C 
ATOM      3  O   UNL     1       7.494   6.147  18.506  0.00  0.00    +0.000 OA
ATOM      4  H   UNL     1       7.493   8.723  16.674  0.00  0.00    +0.000 HD
ENDROOT
BRANCH   1   5
ATOM      5  C   UNL     1       8.435   8.797  18.590  0.00  0.00    +0.000 C 
BRANCH   5   9
ATOM      6  C   UNL     1       9.644  12.890  17.762  0.00  0.00    +0.000 A 
ATOM      7  C   UNL     1       8.368  12.427  17.427  0.00  0.00    +0.000 A 
ATOM      8  C   UNL     1       7.992  11.106  17.689  0.00  0.00    +0.000 A 
ATOM      9  C   UNL     1       8.884  10.204  18.282  0.00  0.00    +0.000 A 
ATOM     10  C   UNL     1      10.164  10.669  18.618  0.00  0.00    +0.000 A 
ATOM     11  C   UNL     1      10.539  12.000  18.359  0.00  0.00    +0.000 A 
BRANCH   6  12
ATOM     12  O   UNL     1      10.099  14.173  17.553  0.00  0.00    +0.000 OA
BRANCH  12  13
ATOM     13  C   UNL     1      11.505  14.285  17.296  0.00  0.00    +0.000 C 
BRANCH  13  15
ATOM     14  C   UNL     1      11.058  16.154  18.906  0.00  0.00    +0.000 C 
ATOM     15  C   UNL     1      12.132  15.395  18.135  0.00  0.00    +0.000 C 
ENDBRANCH  13  15
ENDBRANCH  12  13
ENDBRANCH   6  12
ENDBRANCH   5   9
ENDBRANCH   1   5
BRANCH   2  16
ATOM     16  C   UNL     1       6.865   6.309  16.191  0.00  0.00    +0.000 C 
BRANCH  16  17
ATOM     17  C   UNL     1       5.371   6.482  15.947  0.00  0.00    +0.000 C 
BRANCH  17  18
ATOM     18  C   UNL     1       4.404   6.592  17.135  0.00  0.00    +0.000 C 
ATOM     19  O   UNL     1       4.036   7.618  17.678  0.00  0.00    +0.000 OA
ATOM     20  N   UNL     1       3.986   5.299  17.613  0.00  0.00    +0.000 N 
ATOM     21  N   UNL     1       4.459   4.213  16.920  0.00  0.00    +0.000 NA
ATOM     22  C   UNL     1       4.083   3.161  17.625  0.00  0.00    +0.000 A 
ATOM     23  C   UNL     1       3.314   3.501  18.742  0.00  0.00    +0.000 A 
ATOM     24  C   UNL     1       2.715   2.746  19.767  0.00  0.00    +0.000 A 
ATOM     25  C   UNL     1       1.949   3.379  20.746  0.00  0.00    +0.000 A 
ATOM     26  C   UNL     1       1.322   2.549  21.834  0.00  0.00    +0.000 C 
ATOM     27  C   UNL     1       1.765   4.767  20.662  0.00  0.00    +0.000 A 
ATOM     28  C   UNL     1       2.386   5.550  19.654  0.00  0.00    +0.000 A 
ATOM     29  C   UNL     1       3.187   4.896  18.694  0.00  0.00    +0.000 A 
ENDBRANCH  17  18
ENDBRANCH  16  17
ENDBRANCH   2  16
TORSDOF 8
ENDMDL
MODEL 9
REMARK VINA RESULT:      -7.3      5.311      8.485
REMARK  Name = 
REMARK  10 active torsions:
REMARK  status: ('A' for Active; 'I' for Inactive)
REMARK    1  A    between atoms: C_1  and  C_2
REMARK    2  A    between atoms: C_2  and  C_3
REMARK    3  A    between atoms: C_3  and  O_4
REMARK    4  A    between atoms: O_4  and  C_5
REMARK    5  A    between atoms: C_8  and  C_9
REMARK    6  A    between atoms: C_9  and  N_10
REMARK    7  A    between atoms: C_11  and  C_13
REMARK    8  A    between atoms: C_13  and  C_14
REMARK    9  A    between atoms: C_14  and  C_15
REMARK   10  A    between atoms: C_22  and  C_23
REMARK                            x       y       z     vdW  Elec       q    Type
REMARK                         _______ _______ _______ _____ _____    ______ ____
ROOT
ATOM      1  N   UNL     1       7.766   6.298  17.485  0.00  0.00    +0.000 N 
ATOM      2  C   UNL     1       7.562   7.648  17.624  0.00  0.00    +0.000 C 
ATOM      3  O   UNL     1       6.718   8.274  16.992  0.00  0.00    +0.000 OA
ATOM      4  H   UNL     1       8.305   5.821  18.201  0.00  0.00    +0.000 HD
ENDROOT
BRANCH   1   5
ATOM      5  C   UNL     1       6.991   5.509  16.546  0.00  0.00    +0.000 C 
BRANCH   5   9
ATOM      6  C   UNL     1       3.707   3.339  18.392  0.00  0.00    +0.000 A 
ATOM      7  C   UNL     1       3.688   3.667  17.033  0.00  0.00    +0.000 A 
ATOM      8  C   UNL     1       4.746   4.373  16.451  0.00  0.00    +0.000 A 
ATOM      9  C   UNL     1       5.847   4.785  17.211  0.00  0.00    +0.000 A 
ATOM     10  C   UNL     1       5.865   4.455  18.575  0.00  0.00    +0.000 A 
ATOM     11  C   UNL     1       4.804   3.740  19.158  0.00  0.00    +0.000 A 
BRANCH   6  12
ATOM     12  O   UNL     1       2.720   2.639  19.049  0.00  0.00    +0.000 OA
BRANCH  12  13
ATOM     13  C   UNL     1       2.557   2.972  20.433  0.00  0.00    +0.000 C 
BRANCH  13  15
ATOM     14  C   UNL     1       1.724   5.329  20.622  0.00  0.00    +0.000 C 
ATOM     15  C   UNL     1       1.331   3.856  20.647  0.00  0.00    +0.000 C 
ENDBRANCH  13  15
ENDBRANCH  12  13
ENDBRANCH   6  12
ENDBRANCH   5   9
ENDBRANCH   1   5
BRANCH   2  16
ATOM     16  C   UNL     1       8.522   8.324  18.581  0.00  0.00    +0.000 C 
BRANCH  16  17
ATOM     17  C   UNL     1       8.826   9.792  18.310  0.00  0.00    +0.000 C 
BRANCH  17  18
ATOM     18  C   UNL     1       9.221  10.724  19.465  0.00  0.00    +0.000 C 
ATOM     19  O   UNL     1       9.094  10.497  20.655  0.00  0.00    +0.000 OA
ATOM     20  N   UNL     1       9.737  11.982  18.993  0.00  0.00    +0.000 N 
ATOM     21  N   UNL     1       9.841  12.124  17.631  0.00  0.00    +0.000 NA
ATOM     22  C   UNL     1      10.174  13.388  17.438  0.00  0.00    +0.000 A 
ATOM     23  C   UNL     1      10.362  14.090  18.632  0.00  0.00    +0.000 A 
ATOM     24  C   UNL     1      10.702  15.423  18.925  0.00  0.00    +0.000 A 
ATOM     25  C   UNL     1      10.866  15.830  20.249  0.00  0.00    +0.000 A 
ATOM     26  C   UNL     1      11.225  17.263  20.535  0.00  0.00    +0.000 C 
ATOM     27  C   UNL     1      10.717  14.876  21.268  0.00  0.00    +0.000 A 
ATOM     28  C   UNL     1      10.344  13.534  20.996  0.00  0.00    +0.000 A 
ATOM     29  C   UNL     1      10.148  13.152  19.652  0.00  0.00    +0.000 A 
ENDBRANCH  17  18
ENDBRANCH  16  17
ENDBRANCH   2  16
TORSDOF 8
ENDMDL
