MODEL 1
REMARK VINA RESULT:      -7.3      0.000      0.000
REMARK  Name = 
REMARK  5 active torsions:
REMARK  status: ('A' for Active; 'I' for Inactive)
REMARK    1  A    between atoms: C_1  and  O_2
REMARK    2  A    between atoms: O_2  and  C_3
REMARK    3  A    between atoms: C_6  and  C_7
REMARK    4  A    between atoms: C_12  and  C_13
REMARK    5  A    between atoms: C_16  and  C_17
REMARK                            x       y       z     vdW  Elec       q    Type
REMARK                         _______ _______ _______ _____ _____    ______ ____
ROOT
ATOM      1  C   UNL     1       4.007   6.770  17.808  0.00  0.00    +0.000 C 
ATOM      2  O   UNL     1       3.418   7.780  17.428  0.00  0.00    +0.000 OA
ATOM      3  N   UNL     1       5.387   6.643  17.749  0.00  0.00    +0.000 N 
ATOM      4  C   UNL     1       6.237   5.626  18.347  0.00  0.00    +0.000 C 
ATOM      5  C   UNL     1       7.499   6.375  18.725  0.00  0.00    +0.000 C 
ATOM      6  C   UNL     1       7.637   7.436  17.628  0.00  0.00    +0.000 C 
ATOM      7  C   UNL     1       6.196   7.712  17.182  0.00  0.00    +0.000 C 
ENDROOT
BRANCH   1  11
ATOM      8  C   UNL     1       1.707   3.588  19.330  0.00  0.00    +0.000 A 
ATOM      9  C   UNL     1       1.824   4.732  20.107  0.00  0.00    +0.000 A 
ATOM     10  C   UNL     1       2.581   5.795  19.611  0.00  0.00    +0.000 A 
ATOM     11  C   UNL     1       3.198   5.670  18.365  0.00  0.00    +0.000 A 
ATOM     12  C   UNL     1       2.965   4.509  17.642  0.00  0.00    +0.000 A 
ATOM     13  N   UNL     1       2.257   3.456  18.105  0.00  0.00    +0.000 NA
BRANCH   8  15
ATOM     14  C   UNL     1       1.243   2.356  21.252  0.00  0.00    +0.000 C 
ATOM     15  O   UNL     1       0.985   2.540  19.862  0.00  0.00    +0.000 OA
ENDBRANCH   8  15
ENDBRANCH   1  11
BRANCH   6  16
ATOM     16  C   UNL     1       8.321   8.659  18.112  0.00  0.00    +0.000 A 
ATOM     17  N   UNL     1       8.989   8.709  19.271  0.00  0.00    +0.000 NA
ATOM     18  O   UNL     1       9.478  10.018  19.298  0.00  0.00    +0.000 OA
ATOM     19  C   UNL     1       9.048  10.622  18.148  0.00  0.00    +0.000 A 
ATOM     20  N   UNL     1       8.316   9.828  17.399  0.00  0.00    +0.000 NA
BRANCH  19  21
ATOM     21  C   UNL     1       9.459  11.993  17.911  0.00  0.00    +0.000 A 
ATOM     22  C   UNL     1      10.742  12.276  17.429  0.00  0.00    +0.000 A 
ATOM     23  C   UNL     1      11.140  13.598  17.235  0.00  0.00    +0.000 A 
ATOM     24  C   UNL     1      10.238  14.603  17.530  0.00  0.00    +0.000 A 
ATOM     25  N   UNL     1       8.988  14.375  17.987  0.00  0.00    +0.000 NA
ATOM     26  C   UNL     1       8.631  13.079  18.170  0.00  0.00    +0.000 A 
ENDBRANCH  19  21
ENDBRANCH   6  16
TORSDOF 4
ENDMDL
MODEL 2
REMARK VINA RESULT:      -7.2      0.783      1.330
REMARK  Name = 
REMARK  5 active torsions:
REMARK  status: ('A' for Active; 'I' for Inactive)
REMARK    1  A    between atoms: C_1  and  O_2
REMARK    2  A    between atoms: O_2  and  C_3
REMARK    3  A    between atoms: C_6  and  C_7
REMARK    4  A    between atoms: C_12  and  C_13
REMARK    5  A    between atoms: C_16  and  C_17
REMARK                            x       y       z     vdW  Elec       q    Type
REMARK                         _______ _______ _______ _____ _____    ______ ____
ROOT
ATOM      1  C   UNL     1       4.045   6.800  17.892  0.00  0.00    +0.000 C 
ATOM      2  O   UNL     1       3.425   7.815  17.578  0.00  0.00    +0.000 OA
ATOM      3  N   UNL     1       5.423   6.699  17.772  0.00  0.00    +0.000 N 
ATOM      4  C   UNL     1       6.312   5.673  18.292  0.00  0.00    +0.000 C 
ATOM      5  C   UNL     1       7.576   6.426  18.652  0.00  0.00    +0.000 C 
ATOM      6  C   UNL     1       7.654   7.535  17.597  0.00  0.00    +0.000 C 
ATOM      7  C   UNL     1       6.192   7.805  17.220  0.00  0.00    +0.000 C 
ENDROOT
BRANCH   1  11
ATOM      8  C   UNL     1       1.856   3.588  19.509  0.00  0.00    +0.000 A 
ATOM      9  C   UNL     1       2.142   3.558  18.152  0.00  0.00    +0.000 A 
ATOM     10  C   UNL     1       2.871   4.615  17.605  0.00  0.00    +0.000 A 
ATOM     11  C   UNL     1       3.276   5.664  18.432  0.00  0.00    +0.000 A 
ATOM     12  C   UNL     1       2.992   5.565  19.787  0.00  0.00    +0.000 A 
ATOM     13  N   UNL     1       2.271   4.567  20.340  0.00  0.00    +0.000 NA
BRANCH   8  15
ATOM     14  C   UNL     1       1.302   2.365  21.414  0.00  0.00    +0.000 C 
ATOM     15  O   UNL     1       1.102   2.549  20.014  0.00  0.00    +0.000 OA
ENDBRANCH   8  15
ENDBRANCH   1  11
BRANCH   6  16
ATOM     16  C   UNL     1       8.338   8.748  18.106  0.00  0.00    +0.000 A 
ATOM     17  N   UNL     1       8.996   8.777  19.271  0.00  0.00    +0.000 NA
ATOM     18  O   UNL     1       9.490  10.084  19.323  0.00  0.00    +0.000 OA
ATOM     19  C   UNL     1       9.071  10.707  18.179  0.00  0.00    +0.000 A 
ATOM     20  N   UNL     1       8.344   9.928  17.411  0.00  0.00    +0.000 NA
BRANCH  19  21
ATOM     21  C   UNL     1       9.490  12.080  17.966  0.00  0.00    +0.000 A 
ATOM     22  C   UNL     1       8.602  13.137  18.192  0.00  0.00    +0.000 A 
ATOM     23  C   UNL     1       9.003  14.450  17.953  0.00  0.00    +0.000 A 
ATOM     24  C   UNL     1      10.289  14.669  17.495  0.00  0.00    +0.000 A 
ATOM     25  N   UNL     1      11.182  13.680  17.274  0.00  0.00    +0.000 NA
ATOM     26  C   UNL     1      10.761  12.413  17.511  0.00  0.00    +0.000 A 
ENDBRANCH  19  21
ENDBRANCH   6  16
TORSDOF 4
ENDMDL
MODEL 3
REMARK VINA RESULT:      -7.1      6.204      8.962
REMARK  Name = 
REMARK  5 active torsions:
REMARK  status: ('A' for Active; 'I' for Inactive)
REMARK    1  A    between atoms: C_1  and  O_2
REMARK    2  A    between atoms: O_2  and  C_3
REMARK    3  A    between atoms: C_6  and  C_7
REMARK    4  A    between atoms: C_12  and  C_13
REMARK    5  A    between atoms: C_16  and  C_17
REMARK                            x       y       z     vdW  Elec       q    Type
REMARK                         _______ _______ _______ _____ _____    ______ ____
ROOT
ATOM      1  C   UNL     1       2.364   7.659  18.351  0.00  0.00    +0.000 C 
ATOM      2  O   UNL     1       2.467   8.195  17.249  0.00  0.00    +0.000 OA
ATOM      3  N   UNL     1       1.914   8.338  19.472  0.00  0.00    +0.000 N 
ATOM      4  C   UNL     1       1.534   7.806  20.771  0.00  0.00    +0.000 C 
ATOM      5  C   UNL     1       0.397   8.702  21.219  0.00  0.00    +0.000 C 
ATOM      6  C   UNL     1       0.763  10.074  20.644  0.00  0.00    +0.000 C 
ATOM      7  C   UNL     1       1.581   9.753  19.386  0.00  0.00    +0.000 C 
ENDROOT
BRANCH   1  11
ATOM      8  C   UNL     1       3.447   3.604  18.688  0.00  0.00    +0.000 A 
ATOM      9  C   UNL     1       2.254   3.904  18.047  0.00  0.00    +0.000 A 
ATOM     10  C   UNL     1       1.886   5.245  17.925  0.00  0.00    +0.000 A 
ATOM     11  C   UNL     1       2.719   6.232  18.457  0.00  0.00    +0.000 A 
ATOM     12  C   UNL     1       3.920   5.828  19.022  0.00  0.00    +0.000 A 
ATOM     13  N   UNL     1       4.292   4.538  19.174  0.00  0.00    +0.000 NA
BRANCH   8  15
ATOM     14  C   UNL     1       4.508   2.011  20.017  0.00  0.00    +0.000 C 
ATOM     15  O   UNL     1       3.766   2.269  18.827  0.00  0.00    +0.000 OA
ENDBRANCH   8  15
ENDBRANCH   1  11
BRANCH   6  16
ATOM     16  C   UNL     1      -0.434  10.895  20.343  0.00  0.00    +0.000 A 
ATOM     17  N   UNL     1      -0.680  12.068  20.940  0.00  0.00    +0.000 NA
ATOM     18  O   UNL     1      -1.872  12.484  20.339  0.00  0.00    +0.000 OA
ATOM     19  C   UNL     1      -2.220  11.510  19.443  0.00  0.00    +0.000 A 
ATOM     20  N   UNL     1      -1.374  10.505  19.427  0.00  0.00    +0.000 NA
BRANCH  19  21
ATOM     21  C   UNL     1      -3.415  11.722  18.648  0.00  0.00    +0.000 A 
ATOM     22  C   UNL     1      -3.438  11.373  17.293  0.00  0.00    +0.000 A 
ATOM     23  C   UNL     1      -4.580  11.610  16.529  0.00  0.00    +0.000 A 
ATOM     24  C   UNL     1      -5.671  12.191  17.146  0.00  0.00    +0.000 A 
ATOM     25  N   UNL     1      -5.696  12.534  18.453  0.00  0.00    +0.000 NA
ATOM     26  C   UNL     1      -4.570  12.295  19.169  0.00  0.00    +0.000 A 
ENDBRANCH  19  21
ENDBRANCH   6  16
TORSDOF 4
ENDMDL
MODEL 4
REMARK VINA RESULT:      -7.0      5.455      8.083
REMARK  Name = 
REMARK  5 active torsions:
REMARK  status: ('A' for Active; 'I' for Inactive)
REMARK    1  A    between atoms: C_1  and  O_2
REMARK    2  A    between atoms: O_2  and  C_3
REMARK    3  A    between atoms: C_6  and  C_7
REMARK    4  A    between atoms: C_12  and  C_13
REMARK    5  A    between atoms: C_16  and  C_17
REMARK                            x       y       z     vdW  Elec       q    Type
REMARK                         _______ _______ _______ _____ _____    ______ ____
ROOT
ATOM      1  C   UNL     1       3.945   5.924  18.815  0.00  0.00    +0.000 C 
ATOM      2  O   UNL     1       4.102   5.321  19.874  0.00  0.00    +0.000 OA
ATOM      3  N   UNL     1       2.891   6.800  18.603  0.00  0.00    +0.000 N 
ATOM      4  C   UNL     1       2.688   7.738  17.511  0.00  0.00    +0.000 C 
ATOM      5  C   UNL     1       2.000   8.920  18.163  0.00  0.00    +0.000 C 
ATOM      6  C   UNL     1       1.136   8.284  19.257  0.00  0.00    +0.000 C 
ATOM      7  C   UNL     1       1.891   7.005  19.641  0.00  0.00    +0.000 C 
ENDROOT
BRANCH   1  11
ATOM      8  C   UNL     1       6.820   5.377  15.787  0.00  0.00    +0.000 A 
ATOM      9  C   UNL     1       5.757   4.486  15.840  0.00  0.00    +0.000 A 
ATOM     10  C   UNL     1       4.795   4.660  16.836  0.00  0.00    +0.000 A 
ATOM     11  C   UNL     1       4.938   5.709  17.747  0.00  0.00    +0.000 A 
ATOM     12  C   UNL     1       6.004   6.580  17.567  0.00  0.00    +0.000 A 
ATOM     13  N   UNL     1       6.961   6.424  16.627  0.00  0.00    +0.000 NA
BRANCH   8  15
ATOM     14  C   UNL     1       7.200   4.752  13.576  0.00  0.00    +0.000 C 
ATOM     15  O   UNL     1       7.774   5.158  14.816  0.00  0.00    +0.000 OA
ENDBRANCH   8  15
ENDBRANCH   1  11
BRANCH   6  16
ATOM     16  C   UNL     1       0.936   9.190  20.413  0.00  0.00    +0.000 A 
ATOM     17  N   UNL     1       1.562   9.023  21.584  0.00  0.00    +0.000 NA
ATOM     18  O   UNL     1       1.100  10.101  22.346  0.00  0.00    +0.000 OA
ATOM     19  C   UNL     1       0.237  10.803  21.549  0.00  0.00    +0.000 A 
ATOM     20  N   UNL     1       0.092  10.266  20.358  0.00  0.00    +0.000 NA
BRANCH  19  21
ATOM     21  C   UNL     1      -0.358  12.008  22.096  0.00  0.00    +0.000 A 
ATOM     22  C   UNL     1      -1.470  11.930  22.942  0.00  0.00    +0.000 A 
ATOM     23  C   UNL     1      -2.055  13.095  23.436  0.00  0.00    +0.000 A 
ATOM     24  C   UNL     1      -1.506  14.309  23.070  0.00  0.00    +0.000 A 
ATOM     25  N   UNL     1      -0.428  14.430  22.265  0.00  0.00    +0.000 NA
ATOM     26  C   UNL     1       0.117  13.280  21.796  0.00  0.00    +0.000 A 
ENDBRANCH  19  21
ENDBRANCH   6  16
TORSDOF 4
ENDMDL
MODEL 5
REMARK VINA RESULT:      -7.0      6.973      9.412
REMARK  Name = 
REMARK  5 active torsions:
REMARK  status: ('A' for Active; 'I' for Inactive)
REMARK    1  A    between atoms: C_1  and  O_2
REMARK    2  A    between atoms: O_2  and  C_3
REMARK    3  A    between atoms: C_6  and  C_7
REMARK    4  A    between atoms: C_12  and  C_13
REMARK    5  A    between atoms: C_16  and  C_17
REMARK                            x       y       z     vdW  Elec       q    Type
REMARK                         _______ _______ _______ _____ _____    ______ ____
ROOT
ATOM      1  C   UNL     1      -0.683  12.044  21.265  0.00  0.00    +0.000 C 
ATOM      2  O   UNL     1       0.135  12.128  22.179  0.00  0.00    +0.000 OA
ATOM      3  N   UNL     1      -0.361  11.530  20.019  0.00  0.00    +0.000 N 
ATOM      4  C   UNL     1      -1.246  11.166  18.923  0.00  0.00    +0.000 C 
ATOM      5  C   UNL     1      -0.577   9.963  18.292  0.00  0.00    +0.000 C 
ATOM      6  C   UNL     1       0.920  10.242  18.466  0.00  0.00    +0.000 C 
ATOM      7  C   UNL     1       1.001  11.101  19.734  0.00  0.00    +0.000 C 
ENDROOT
BRANCH   1  11
ATOM      8  C   UNL     1      -4.619  13.287  22.096  0.00  0.00    +0.000 A 
ATOM      9  C   UNL     1      -4.046  13.708  20.904  0.00  0.00    +0.000 A 
ATOM     10  C   UNL     1      -2.743  13.298  20.616  0.00  0.00    +0.000 A 
ATOM     11  C   UNL     1      -2.061  12.495  21.532  0.00  0.00    +0.000 A 
ATOM     12  C   UNL     1      -2.749  12.080  22.664  0.00  0.00    +0.000 A 
ATOM     13  N   UNL     1      -4.001  12.477  22.980  0.00  0.00    +0.000 NA
BRANCH   8  15
ATOM     14  C   UNL     1      -6.280  13.478  23.718  0.00  0.00    +0.000 C 
ATOM     15  O   UNL     1      -5.893  13.738  22.371  0.00  0.00    +0.000 OA
ENDBRANCH   8  15
ENDBRANCH   1  11
BRANCH   6  16
ATOM     16  C   UNL     1       1.715   8.996  18.576  0.00  0.00    +0.000 A 
ATOM     17  N   UNL     1       1.785   8.276  19.702  0.00  0.00    +0.000 NA
ATOM     18  O   UNL     1       2.604   7.202  19.339  0.00  0.00    +0.000 OA
ATOM     19  C   UNL     1       2.945   7.394  18.028  0.00  0.00    +0.000 A 
ATOM     20  N   UNL     1       2.436   8.496  17.525  0.00  0.00    +0.000 NA
BRANCH  19  21
ATOM     21  C   UNL     1       3.769   6.384  17.390  0.00  0.00    +0.000 A 
ATOM     22  C   UNL     1       4.757   6.750  16.470  0.00  0.00    +0.000 A 
ATOM     23  C   UNL     1       5.521   5.770  15.837  0.00  0.00    +0.000 A 
ATOM     24  C   UNL     1       5.274   4.446  16.148  0.00  0.00    +0.000 A 
ATOM     25  N   UNL     1       4.339   4.048  17.037  0.00  0.00    +0.000 NA
ATOM     26  C   UNL     1       3.608   5.024  17.633  0.00  0.00    +0.000 A 
ENDBRANCH  19  21
ENDBRANCH   6  16
TORSDOF 4
ENDMDL
MODEL 6
REMARK VINA RESULT:      -6.9      5.273      7.757
REMARK  Name = 
REMARK  5 active torsions:
REMARK  status: ('A' for Active; 'I' for Inactive)
REMARK    1  A    between atoms: C_1  and  O_2
REMARK    2  A    between atoms: O_2  and  C_3
REMARK    3  A    between atoms: C_6  and  C_7
REMARK    4  A    between atoms: C_12  and  C_13
REMARK    5  A    between atoms: C_16  and  C_17
REMARK                            x       y       z     vdW  Elec       q    Type
REMARK                         _______ _______ _______ _____ _____    ______ ____
ROOT
ATOM      1  C   UNL     1       5.695   5.738  16.077  0.00  0.00    +0.000 C 
ATOM      2  O   UNL     1       5.943   6.942  16.068  0.00  0.00    +0.000 OA
ATOM      3  N   UNL     1       5.177   5.090  17.188  0.00  0.00    +0.000 N 
ATOM      4  C   UNL     1       4.634   3.745  17.291  0.00  0.00    +0.000 C 
ATOM      5  C   UNL     1       3.517   3.874  18.306  0.00  0.00    +0.000 C 
ATOM      6  C   UNL     1       4.025   4.946  19.277  0.00  0.00    +0.000 C 
ATOM      7  C   UNL     1       4.944   5.827  18.422  0.00  0.00    +0.000 C 
ENDROOT
BRANCH   1  11
ATOM      8  C   UNL     1       6.488   3.587  12.545  0.00  0.00    +0.000 A 
ATOM      9  C   UNL     1       5.199   3.540  13.056  0.00  0.00    +0.000 A 
ATOM     10  C   UNL     1       4.923   4.253  14.224  0.00  0.00    +0.000 A 
ATOM     11  C   UNL     1       5.946   4.975  14.841  0.00  0.00    +0.000 A 
ATOM     12  C   UNL     1       7.183   5.007  14.212  0.00  0.00    +0.000 A 
ATOM     13  N   UNL     1       7.486   4.311  13.095  0.00  0.00    +0.000 NA
BRANCH   8  15
ATOM     14  C   UNL     1       5.936   1.668  11.345  0.00  0.00    +0.000 C 
ATOM     15  O   UNL     1       6.741   2.843  11.411  0.00  0.00    +0.000 OA
ENDBRANCH   8  15
ENDBRANCH   1  11
BRANCH   6  16
ATOM     16  C   UNL     1       2.919   5.716  19.893  0.00  0.00    +0.000 A 
ATOM     17  N   UNL     1       2.002   5.158  20.693  0.00  0.00    +0.000 NA
ATOM     18  O   UNL     1       1.194   6.242  21.052  0.00  0.00    +0.000 OA
ATOM     19  C   UNL     1       1.712   7.342  20.424  0.00  0.00    +0.000 A 
ATOM     20  N   UNL     1       2.762   7.060  19.685  0.00  0.00    +0.000 NA
BRANCH  19  21
ATOM     21  C   UNL     1       1.072   8.621  20.667  0.00  0.00    +0.000 A 
ATOM     22  C   UNL     1       0.588   8.942  21.940  0.00  0.00    +0.000 A 
ATOM     23  C   UNL     1      -0.055  10.160  22.156  0.00  0.00    +0.000 A 
ATOM     24  C   UNL     1      -0.193  11.026  21.087  0.00  0.00    +0.000 A 
ATOM     25  N   UNL     1       0.267  10.761  19.846  0.00  0.00    +0.000 NA
ATOM     26  C   UNL     1       0.884   9.567  19.665  0.00  0.00    +0.000 A 
ENDBRANCH  19  21
ENDBRANCH   6  16
TORSDOF 4
ENDMDL
MODEL 7
REMARK VINA RESULT:      -6.9      6.641      9.303
REMARK  Name = 
REMARK  5 active torsions:
REMARK  status: ('A' for Active; 'I' for Inactive)
REMARK    1  A    between atoms: C_1  and  O_2
REMARK    2  A    between atoms: O_2  and  C_3
REMARK    3  A    between atoms: C_6  and  C_7
REMARK    4  A    between atoms: C_12  and  C_13
REMARK    5  A    between atoms: C_16  and  C_17
REMARK                            x       y       z     vdW  Elec       q    Type
REMARK                         _______ _______ _______ _____ _____    ______ ____
ROOT
ATOM      1  C   UNL     1       2.220   8.040  18.265  0.00  0.00    +0.000 C 
ATOM      2  O   UNL     1       2.212   8.753  17.263  0.00  0.00    +0.000 OA
ATOM      3  N   UNL     1       1.878   8.515  19.522  0.00  0.00    +0.000 N 
ATOM      4  C   UNL     1       1.630   7.767  20.744  0.00  0.00    +0.000 C 
ATOM      5  C   UNL     1       0.537   8.551  21.442  0.00  0.00    +0.000 C 
ATOM      6  C   UNL     1       0.837  10.007  21.071  0.00  0.00    +0.000 C 
ATOM      7  C   UNL     1       1.529   9.916  19.705  0.00  0.00    +0.000 C 
ENDROOT
BRANCH   1  11
ATOM      8  C   UNL     1       3.361   4.015  17.788  0.00  0.00    +0.000 A 
ATOM      9  C   UNL     1       2.006   4.311  17.762  0.00  0.00    +0.000 A 
ATOM     10  C   UNL     1       1.616   5.643  17.915  0.00  0.00    +0.000 A 
ATOM     11  C   UNL     1       2.593   6.624  18.098  0.00  0.00    +0.000 A 
ATOM     12  C   UNL     1       3.922   6.229  18.045  0.00  0.00    +0.000 A 
ATOM     13  N   UNL     1       4.329   4.947  17.921  0.00  0.00    +0.000 NA
BRANCH   8  15
ATOM     14  C   UNL     1       3.457   1.953  18.868  0.00  0.00    +0.000 C 
ATOM     15  O   UNL     1       3.715   2.687  17.673  0.00  0.00    +0.000 OA
ENDBRANCH   8  15
ENDBRANCH   1  11
BRANCH   6  16
ATOM     16  C   UNL     1      -0.389  10.839  21.027  0.00  0.00    +0.000 A 
ATOM     17  N   UNL     1      -0.895  11.330  19.889  0.00  0.00    +0.000 NA
ATOM     18  O   UNL     1      -2.039  12.011  20.319  0.00  0.00    +0.000 OA
ATOM     19  C   UNL     1      -2.097  11.860  21.678  0.00  0.00    +0.000 A 
ATOM     20  N   UNL     1      -1.091  11.163  22.157  0.00  0.00    +0.000 NA
BRANCH  19  21
ATOM     21  C   UNL     1      -3.227  12.446  22.374  0.00  0.00    +0.000 A 
ATOM     22  C   UNL     1      -3.318  12.375  23.768  0.00  0.00    +0.000 A 
ATOM     23  C   UNL     1      -4.424  12.912  24.425  0.00  0.00    +0.000 A 
ATOM     24  C   UNL     1      -5.411  13.508  23.664  0.00  0.00    +0.000 A 
ATOM     25  N   UNL     1      -5.360  13.607  22.318  0.00  0.00    +0.000 NA
ATOM     26  C   UNL     1      -4.274  13.072  21.707  0.00  0.00    +0.000 A 
ENDBRANCH  19  21
ENDBRANCH   6  16
TORSDOF 4
ENDMDL
MODEL 8
REMARK VINA RESULT:      -6.9      5.708      8.789
REMARK  Name = 
REMARK  5 active torsions:
REMARK  status: ('A' for Active; 'I' for Inactive)
REMARK    1  A    between atoms: C_1  and  O_2
REMARK    2  A    between atoms: O_2  and  C_3
REMARK    3  A    between atoms: C_6  and  C_7
REMARK    4  A    between atoms: C_12  and  C_13
REMARK    5  A    between atoms: C_16  and  C_17
REMARK                            x       y       z     vdW  Elec       q    Type
REMARK                         _______ _______ _______ _____ _____    ______ ____
ROOT
ATOM      1  C   UNL     1       1.907  12.244  18.909  0.00  0.00    +0.000 C 
ATOM      2  O   UNL     1       2.698  12.556  18.021  0.00  0.00    +0.000 OA
ATOM      3  N   UNL     1       1.404  10.959  19.043  0.00  0.00    +0.000 N 
ATOM      4  C   UNL     1       0.647  10.384  20.144  0.00  0.00    +0.000 C 
ATOM      5  C   UNL     1       1.116   8.945  20.204  0.00  0.00    +0.000 C 
ATOM      6  C   UNL     1       1.393   8.589  18.739  0.00  0.00    +0.000 C 
ATOM      7  C   UNL     1       1.777   9.924  18.090  0.00  0.00    +0.000 C 
ENDROOT
BRANCH   1  11
ATOM      8  C   UNL     1       0.817  15.204  21.698  0.00  0.00    +0.000 A 
ATOM      9  C   UNL     1      -0.012  15.010  20.603  0.00  0.00    +0.000 A 
ATOM     10  C   UNL     1       0.336  14.028  19.674  0.00  0.00    +0.000 A 
ATOM     11  C   UNL     1       1.503  13.288  19.869  0.00  0.00    +0.000 A 
ATOM     12  C   UNL     1       2.228  13.518  21.030  0.00  0.00    +0.000 A 
ATOM     13  N   UNL     1       1.928  14.474  21.935  0.00  0.00    +0.000 NA
BRANCH   8  15
ATOM     14  C   UNL     1      -0.863  16.672  22.369  0.00  0.00    +0.000 C 
ATOM     15  O   UNL     1       0.468  16.206  22.579  0.00  0.00    +0.000 OA
ENDBRANCH   8  15
ENDBRANCH   1  11
BRANCH   6  16
ATOM     16  C   UNL     1       2.458   7.567  18.601  0.00  0.00    +0.000 A 
ATOM     17  N   UNL     1       2.687   6.626  19.525  0.00  0.00    +0.000 NA
ATOM     18  O   UNL     1       3.739   5.889  18.971  0.00  0.00    +0.000 OA
ATOM     19  C   UNL     1       4.034   6.470  17.767  0.00  0.00    +0.000 A 
ATOM     20  N   UNL     1       3.283   7.518  17.510  0.00  0.00    +0.000 NA
BRANCH  19  21
ATOM     21  C   UNL     1       5.076   5.862  16.962  0.00  0.00    +0.000 A 
ATOM     22  C   UNL     1       4.853   4.643  16.314  0.00  0.00    +0.000 A 
ATOM     23  C   UNL     1       5.872   4.049  15.570  0.00  0.00    +0.000 A 
ATOM     24  C   UNL     1       7.090   4.699  15.494  0.00  0.00    +0.000 A 
ATOM     25  N   UNL     1       7.346   5.882  16.094  0.00  0.00    +0.000 NA
ATOM     26  C   UNL     1       6.337   6.431  16.815  0.00  0.00    +0.000 A 
ENDBRANCH  19  21
ENDBRANCH   6  16
TORSDOF 4
ENDMDL
MODEL 9
REMARK VINA RESULT:      -6.8      6.354      9.160
REMARK  Name = 
REMARK  5 active torsions:
REMARK  status: ('A' for Active; 'I' for Inactive)
REMARK    1  A    between atoms: C_1  and  O_2
REMARK    2  A    between atoms: O_2  and  C_3
REMARK    3  A    between atoms: C_6  and  C_7
REMARK    4  A    between atoms: C_12  and  C_13
REMARK    5  A    between atoms: C_16  and  C_17
REMARK                            x       y       z     vdW  Elec       q    Type
REMARK                         _______ _______ _______ _____ _____    ______ ____
ROOT
ATOM      1  C   UNL     1       2.547   7.721  18.113  0.00  0.00    +0.000 C 
ATOM      2  O   UNL     1       2.764   8.101  16.964  0.00  0.00    +0.000 OA
ATOM      3  N   UNL     1       2.010   8.550  19.086  0.00  0.00    +0.000 N 
ATOM      4  C   UNL     1       1.499   8.203  20.402  0.00  0.00    +0.000 C 
ATOM      5  C   UNL     1       0.346   9.162  20.616  0.00  0.00    +0.000 C 
ATOM      6  C   UNL     1       0.795  10.440  19.899  0.00  0.00    +0.000 C 
ATOM      7  C   UNL     1       1.718   9.943  18.780  0.00  0.00    +0.000 C 
ENDROOT
BRANCH   1  11
ATOM      8  C   UNL     1       3.505   3.738  19.086  0.00  0.00    +0.000 A 
ATOM      9  C   UNL     1       2.319   3.970  18.405  0.00  0.00    +0.000 A 
ATOM     10  C   UNL     1       1.993   5.286  18.073  0.00  0.00    +0.000 A 
ATOM     11  C   UNL     1       2.857   6.318  18.443  0.00  0.00    +0.000 A 
ATOM     12  C   UNL     1       4.048   5.970  19.066  0.00  0.00    +0.000 A 
ATOM     13  N   UNL     1       4.380   4.710  19.419  0.00  0.00    +0.000 NA
BRANCH   8  15
ATOM     14  C   UNL     1       3.381   1.507  18.426  0.00  0.00    +0.000 C 
ATOM     15  O   UNL     1       3.783   2.432  19.434  0.00  0.00    +0.000 OA
ENDBRANCH   8  15
ENDBRANCH   1  11
BRANCH   6  16
ATOM     16  C   UNL     1      -0.350  11.225  19.379  0.00  0.00    +0.000 A 
ATOM     17  N   UNL     1      -0.199  12.322  18.628  0.00  0.00    +0.000 NA
ATOM     18  O   UNL     1      -1.516  12.702  18.353  0.00  0.00    +0.000 OA
ATOM     19  C   UNL     1      -2.325  11.789  18.974  0.00  0.00    +0.000 A 
ATOM     20  N   UNL     1      -1.649  10.874  19.633  0.00  0.00    +0.000 NA
BRANCH  19  21
ATOM     21  C   UNL     1      -3.759  11.935  18.808  0.00  0.00    +0.000 A 
ATOM     22  C   UNL     1      -4.387  11.499  17.636  0.00  0.00    +0.000 A 
ATOM     23  C   UNL     1      -5.760  11.674  17.472  0.00  0.00    +0.000 A 
ATOM     24  C   UNL     1      -6.469  12.281  18.492  0.00  0.00    +0.000 A 
ATOM     25  N   UNL     1      -5.906  12.707  19.643  0.00  0.00    +0.000 NA
ATOM     26  C   UNL     1      -4.567  12.528  19.772  0.00  0.00    +0.000 A 
ENDBRANCH  19  21
ENDBRANCH   6  16
TORSDOF 4
ENDMDL
