MODEL 1
REMARK VINA RESULT:      -7.8      0.000      0.000
REMARK  Name = 
REMARK  8 active torsions:
REMARK  status: ('A' for Active; 'I' for Inactive)
REMARK    1  A    between atoms: C_1  and  O_2
REMARK    2  A    between atoms: O_2  and  C_3
REMARK    3  A    between atoms: C_6  and  C_7
REMARK    4  A    between atoms: C_7  and  C_8
REMARK    5  A    between atoms: C_8  and  N_9
REMARK    6  A    between atoms: C_13  and  N_14
REMARK    7  A    between atoms: N_17  and  S_18
REMARK    8  A    between atoms: S_18  and  C_21
REMARK                            x       y       z     vdW  Elec       q    Type
REMARK                         _______ _______ _______ _____ _____    ______ ____
ROOT
ATOM      1  N   UNL     1       1.869   7.938  20.236  0.00  0.00    +0.000 N 
ATOM      2  C   UNL     1       1.775   8.546  19.017  0.00  0.00    +0.000 C 
ATOM      3  O   UNL     1       1.434   9.697  18.795  0.00  0.00    +0.000 OA
ATOM      4  C   UNL     1       2.020   7.523  17.942  0.00  0.00    +0.000 C 
ATOM      5  C   UNL     1       2.517   6.280  18.693  0.00  0.00    +0.000 C 
ATOM      6  C   UNL     1       1.957   6.585  20.083  0.00  0.00    +0.000 C 
ATOM      7  O   UNL     1       1.643   5.731  20.903  0.00  0.00    +0.000 OA
ENDROOT
BRANCH   5   8
ATOM      8  N   UNL     1       3.994   6.113  18.792  0.00  0.00    +0.000 NA
ATOM      9  C   UNL     1       4.439   4.717  18.514  0.00  0.00    +0.000 C 
ATOM     10  C   UNL     1       4.470   4.279  17.026  0.00  0.00    +0.000 C 
ATOM     11  N   UNL     1       5.146   5.277  16.140  0.00  0.00    +0.000 NA
ATOM     12  C   UNL     1       4.678   6.666  16.421  0.00  0.00    +0.000 C 
ATOM     13  C   UNL     1       4.783   7.005  17.917  0.00  0.00    +0.000 C 
BRANCH  11  14
ATOM     14  S   UNL     1       6.835   5.109  15.963  0.00  0.00    +0.000 S 
ATOM     15  O   UNL     1       7.442   6.409  16.155  0.00  0.00    +0.000 OA
ATOM     16  O   UNL     1       7.252   3.965  16.744  0.00  0.00    +0.000 OA
BRANCH  14  17
ATOM     17  C   UNL     1       7.022   4.710  14.241  0.00  0.00    +0.000 A 
ATOM     18  C   UNL     1       6.254   3.675  13.696  0.00  0.00    +0.000 A 
ATOM     19  C   UNL     1       6.341   3.400  12.335  0.00  0.00    +0.000 A 
ATOM     20  C   UNL     1       7.179   4.163  11.516  0.00  0.00    +0.000 A 
ATOM     21  C   UNL     1       7.944   5.193  12.064  0.00  0.00    +0.000 A 
ATOM     22  C   UNL     1       7.877   5.464  13.432  0.00  0.00    +0.000 A 
ENDBRANCH  14  17
ENDBRANCH  11  14
ENDBRANCH   5   8
BRANCH   1  23
ATOM     23  C   UNL     1       1.501   8.608  21.477  0.00  0.00    +0.000 C 
BRANCH  23  24
ATOM     24  C   UNL     1      -0.012   8.615  21.739  0.00  0.00    +0.000 C 
BRANCH  24  28
ATOM     25  C   UNL     1      -1.557  12.639  22.051  0.00  0.00    +0.000 A 
ATOM     26  C   UNL     1      -1.135  12.140  20.818  0.00  0.00    +0.000 A 
ATOM     27  C   UNL     1      -0.651  10.833  20.709  0.00  0.00    +0.000 A 
ATOM     28  C   UNL     1      -0.567  10.014  21.842  0.00  0.00    +0.000 A 
ATOM     29  C   UNL     1      -0.983  10.522  23.078  0.00  0.00    +0.000 A 
ATOM     30  C   UNL     1      -1.472  11.828  23.182  0.00  0.00    +0.000 A 
BRANCH  25  32
ATOM     31  C   UNL     1      -2.903  14.282  23.082  0.00  0.00    +0.000 C 
ATOM     32  O   UNL     1      -1.996  13.935  22.041  0.00  0.00    +0.000 OA
ENDBRANCH  25  32
ENDBRANCH  24  28
ENDBRANCH  23  24
ENDBRANCH   1  23
TORSDOF 7
ENDMDL
MODEL 2
REMARK VINA RESULT:      -7.8      2.724     10.813
REMARK  Name = 
REMARK  8 active torsions:
REMARK  status: ('A' for Active; 'I' for Inactive)
REMARK    1  A    between atoms: C_1  and  O_2
REMARK    2  A    between atoms: O_2  and  C_3
REMARK    3  A    between atoms: C_6  and  C_7
REMARK    4  A    between atoms: C_7  and  C_8
REMARK    5  A    between atoms: C_8  and  N_9
REMARK    6  A    between atoms: C_13  and  N_14
REMARK    7  A    between atoms: N_17  and  S_18
REMARK    8  A    between atoms: S_18  and  C_21
REMARK                            x       y       z     vdW  Elec       q    Type
REMARK                         _______ _______ _______ _____ _____    ______ ____
ROOT
ATOM      1  N   UNL     1       3.399   5.681  19.709  0.00  0.00    +0.000 N 
ATOM      2  C   UNL     1       2.506   5.095  20.559  0.00  0.00    +0.000 C 
ATOM      3  O   UNL     1       2.664   4.064  21.193  0.00  0.00    +0.000 OA
ATOM      4  C   UNL     1       1.205   5.845  20.492  0.00  0.00    +0.000 C 
ATOM      5  C   UNL     1       1.523   7.104  19.673  0.00  0.00    +0.000 C 
ATOM      6  C   UNL     1       2.773   6.619  18.940  0.00  0.00    +0.000 C 
ATOM      7  O   UNL     1       3.128   7.021  17.839  0.00  0.00    +0.000 OA
ENDROOT
BRANCH   5   8
ATOM      8  N   UNL     1       1.861   8.329  20.450  0.00  0.00    +0.000 NA
ATOM      9  C   UNL     1       1.536   9.588  19.717  0.00  0.00    +0.000 C 
ATOM     10  C   UNL     1       0.042  10.003  19.678  0.00  0.00    +0.000 C 
ATOM     11  N   UNL     1      -0.615   9.941  21.021  0.00  0.00    +0.000 NA
ATOM     12  C   UNL     1      -0.291   8.670  21.733  0.00  0.00    +0.000 C 
ATOM     13  C   UNL     1       1.226   8.422  21.781  0.00  0.00    +0.000 C 
BRANCH  11  14
ATOM     14  S   UNL     1      -0.510  11.350  21.979  0.00  0.00    +0.000 S 
ATOM     15  O   UNL     1      -0.432  10.947  23.368  0.00  0.00    +0.000 OA
ATOM     16  O   UNL     1       0.493  12.212  21.393  0.00  0.00    +0.000 OA
BRANCH  14  17
ATOM     17  C   UNL     1      -2.101  12.109  21.757  0.00  0.00    +0.000 A 
ATOM     18  C   UNL     1      -2.500  12.488  20.471  0.00  0.00    +0.000 A 
ATOM     19  C   UNL     1      -3.771  13.019  20.275  0.00  0.00    +0.000 A 
ATOM     20  C   UNL     1      -4.648  13.158  21.356  0.00  0.00    +0.000 A 
ATOM     21  C   UNL     1      -4.246  12.780  22.636  0.00  0.00    +0.000 A 
ATOM     22  C   UNL     1      -2.965  12.263  22.845  0.00  0.00    +0.000 A 
ENDBRANCH  14  17
ENDBRANCH  11  14
ENDBRANCH   5   8
BRANCH   1  23
ATOM     23  C   UNL     1       4.692   5.085  19.397  0.00  0.00    +0.000 C 
BRANCH  23  24
ATOM     24  C   UNL     1       4.612   3.977  18.336  0.00  0.00    +0.000 C 
BRANCH  24  28
ATOM     25  C   UNL     1       6.825   4.943  14.752  0.00  0.00    +0.000 A 
ATOM     26  C   UNL     1       5.528   4.437  14.665  0.00  0.00    +0.000 A 
ATOM     27  C   UNL     1       4.802   4.139  15.821  0.00  0.00    +0.000 A 
ATOM     28  C   UNL     1       5.376   4.330  17.084  0.00  0.00    +0.000 A 
ATOM     29  C   UNL     1       6.681   4.829  17.167  0.00  0.00    +0.000 A 
ATOM     30  C   UNL     1       7.403   5.130  16.007  0.00  0.00    +0.000 A 
BRANCH  25  32
ATOM     31  C   UNL     1       6.996   4.385  12.464  0.00  0.00    +0.000 C 
ATOM     32  O   UNL     1       7.445   5.182  13.555  0.00  0.00    +0.000 OA
ENDBRANCH  25  32
ENDBRANCH  24  28
ENDBRANCH  23  24
ENDBRANCH   1  23
TORSDOF 7
ENDMDL
MODEL 3
REMARK VINA RESULT:      -7.8      2.632     10.472
REMARK  Name = 
REMARK  8 active torsions:
REMARK  status: ('A' for Active; 'I' for Inactive)
REMARK    1  A    between atoms: C_1  and  O_2
REMARK    2  A    between atoms: O_2  and  C_3
REMARK    3  A    between atoms: C_6  and  C_7
REMARK    4  A    between atoms: C_7  and  C_8
REMARK    5  A    between atoms: C_8  and  N_9
REMARK    6  A    between atoms: C_13  and  N_14
REMARK    7  A    between atoms: N_17  and  S_18
REMARK    8  A    between atoms: S_18  and  C_21
REMARK                            x       y       z     vdW  Elec       q    Type
REMARK                         _______ _______ _______ _____ _____    ______ ____
ROOT
ATOM      1  N   UNL     1       3.176   4.655  19.639  0.00  0.00    +0.000 N 
ATOM      2  C   UNL     1       2.443   4.358  20.752  0.00  0.00    +0.000 C 
ATOM      3  O   UNL     1       2.650   3.455  21.548  0.00  0.00    +0.000 OA
ATOM      4  C   UNL     1       1.224   5.237  20.782  0.00  0.00    +0.000 C 
ATOM      5  C   UNL     1       1.459   6.267  19.669  0.00  0.00    +0.000 C 
ATOM      6  C   UNL     1       2.477   5.499  18.826  0.00  0.00    +0.000 C 
ATOM      7  O   UNL     1       2.617   5.636  17.617  0.00  0.00    +0.000 OA
ENDROOT
BRANCH   5   8
ATOM      8  N   UNL     1       2.056   7.566  20.086  0.00  0.00    +0.000 NA
ATOM      9  C   UNL     1       2.005   8.599  19.010  0.00  0.00    +0.000 C 
ATOM     10  C   UNL     1       0.634   9.285  18.770  0.00  0.00    +0.000 C 
ATOM     11  N   UNL     1      -0.014   9.750  20.035  0.00  0.00    +0.000 NA
ATOM     12  C   UNL     1       0.034   8.699  21.095  0.00  0.00    +0.000 C 
ATOM     13  C   UNL     1       1.462   8.168  21.298  0.00  0.00    +0.000 C 
BRANCH  11  14
ATOM     14  S   UNL     1       0.396  11.322  20.561  0.00  0.00    +0.000 S 
ATOM     15  O   UNL     1       1.360  11.202  21.635  0.00  0.00    +0.000 OA
ATOM     16  O   UNL     1       0.675  12.123  19.390  0.00  0.00    +0.000 OA
BRANCH  14  17
ATOM     17  C   UNL     1      -1.113  11.907  21.295  0.00  0.00    +0.000 A 
ATOM     18  C   UNL     1      -2.121  12.412  20.467  0.00  0.00    +0.000 A 
ATOM     19  C   UNL     1      -3.332  12.809  21.024  0.00  0.00    +0.000 A 
ATOM     20  C   UNL     1      -3.545  12.688  22.401  0.00  0.00    +0.000 A 
ATOM     21  C   UNL     1      -2.537  12.185  23.224  0.00  0.00    +0.000 A 
ATOM     22  C   UNL     1      -1.311  11.802  22.675  0.00  0.00    +0.000 A 
ENDBRANCH  14  17
ENDBRANCH  11  14
ENDBRANCH   5   8
BRANCH   1  23
ATOM     23  C   UNL     1       4.318   3.855  19.216  0.00  0.00    +0.000 C 
BRANCH  23  24
ATOM     24  C   UNL     1       5.571   4.693  18.918  0.00  0.00    +0.000 C 
BRANCH  24  28
ATOM     25  C   UNL     1       6.667   4.580  14.740  0.00  0.00    +0.000 A 
ATOM     26  C   UNL     1       5.532   3.905  15.189  0.00  0.00    +0.000 A 
ATOM     27  C   UNL     1       5.163   3.953  16.536  0.00  0.00    +0.000 A 
ATOM     28  C   UNL     1       5.941   4.666  17.456  0.00  0.00    +0.000 A 
ATOM     29  C   UNL     1       7.085   5.334  17.003  0.00  0.00    +0.000 A 
ATOM     30  C   UNL     1       7.447   5.289  15.653  0.00  0.00    +0.000 A 
BRANCH  25  32
ATOM     31  C   UNL     1       6.138   3.502  12.707  0.00  0.00    +0.000 C 
ATOM     32  O   UNL     1       6.939   4.449  13.405  0.00  0.00    +0.000 OA
ENDBRANCH  25  32
ENDBRANCH  24  28
ENDBRANCH  23  24
ENDBRANCH   1  23
TORSDOF 7
ENDMDL
MODEL 4
REMARK VINA RESULT:      -7.7      4.372     10.660
REMARK  Name = 
REMARK  8 active torsions:
REMARK  status: ('A' for Active; 'I' for Inactive)
REMARK    1  A    between atoms: C_1  and  O_2
REMARK    2  A    between atoms: O_2  and  C_3
REMARK    3  A    between atoms: C_6  and  C_7
REMARK    4  A    between atoms: C_7  and  C_8
REMARK    5  A    between atoms: C_8  and  N_9
REMARK    6  A    between atoms: C_13  and  N_14
REMARK    7  A    between atoms: N_17  and  S_18
REMARK    8  A    between atoms: S_18  and  C_21
REMARK                            x       y       z     vdW  Elec       q    Type
REMARK                         _______ _______ _______ _____ _____    ______ ____
ROOT
ATOM      1  N   UNL     1       1.795   8.560  19.588  0.00  0.00    +0.000 N 
ATOM      2  C   UNL     1       0.831   8.550  20.555  0.00  0.00    +0.000 C 
ATOM      3  O   UNL     1       0.630   7.675  21.383  0.00  0.00    +0.000 OA
ATOM      4  C   UNL     1      -0.068   9.739  20.360  0.00  0.00    +0.000 C 
ATOM      5  C   UNL     1       0.640  10.592  19.297  0.00  0.00    +0.000 C 
ATOM      6  C   UNL     1       1.518   9.518  18.656  0.00  0.00    +0.000 C 
ATOM      7  O   UNL     1       1.893   9.537  17.490  0.00  0.00    +0.000 OA
ENDROOT
BRANCH   5   8
ATOM      8  N   UNL     1       1.509  11.691  19.803  0.00  0.00    +0.000 NA
ATOM      9  C   UNL     1       1.975  12.606  18.720  0.00  0.00    +0.000 C 
ATOM     10  C   UNL     1       0.946  13.638  18.191  0.00  0.00    +0.000 C 
ATOM     11  N   UNL     1       0.239  14.370  19.289  0.00  0.00    +0.000 NA
ATOM     12  C   UNL     1      -0.233  13.439  20.355  0.00  0.00    +0.000 C 
ATOM     13  C   UNL     1       0.904  12.533  20.856  0.00  0.00    +0.000 C 
BRANCH  11  14
ATOM     14  S   UNL     1       0.994  15.792  19.857  0.00  0.00    +0.000 S 
ATOM     15  O   UNL     1       0.239  16.283  20.990  0.00  0.00    +0.000 OA
ATOM     16  O   UNL     1       2.413  15.530  19.961  0.00  0.00    +0.000 OA
BRANCH  14  17
ATOM     17  C   UNL     1       0.732  16.945  18.531  0.00  0.00    +0.000 A 
ATOM     18  C   UNL     1       1.809  17.295  17.710  0.00  0.00    +0.000 A 
ATOM     19  C   UNL     1       1.600  18.143  16.628  0.00  0.00    +0.000 A 
ATOM     20  C   UNL     1       0.318  18.630  16.354  0.00  0.00    +0.000 A 
ATOM     21  C   UNL     1      -0.753  18.281  17.176  0.00  0.00    +0.000 A 
ATOM     22  C   UNL     1      -0.549  17.444  18.276  0.00  0.00    +0.000 A 
ENDBRANCH  14  17
ENDBRANCH  11  14
ENDBRANCH   5   8
BRANCH   1  23
ATOM     23  C   UNL     1       2.711   7.445  19.382  0.00  0.00    +0.000 C 
BRANCH  23  24
ATOM     24  C   UNL     1       2.132   6.341  18.484  0.00  0.00    +0.000 C 
BRANCH  24  28
ATOM     25  C   UNL     1       5.175   4.231  16.256  0.00  0.00    +0.000 A 
ATOM     26  C   UNL     1       5.233   5.619  16.388  0.00  0.00    +0.000 A 
ATOM     27  C   UNL     1       4.261   6.304  17.122  0.00  0.00    +0.000 A 
ATOM     28  C   UNL     1       3.205   5.606  17.720  0.00  0.00    +0.000 A 
ATOM     29  C   UNL     1       3.146   4.214  17.577  0.00  0.00    +0.000 A 
ATOM     30  C   UNL     1       4.123   3.532  16.846  0.00  0.00    +0.000 A 
BRANCH  25  32
ATOM     31  C   UNL     1       6.052   3.857  14.096  0.00  0.00    +0.000 C 
ATOM     32  O   UNL     1       6.171   3.670  15.502  0.00  0.00    +0.000 OA
ENDBRANCH  25  32
ENDBRANCH  24  28
ENDBRANCH  23  24
ENDBRANCH   1  23
TORSDOF 7
ENDMDL
MODEL 5
REMARK VINA RESULT:      -7.7      2.654     10.623
REMARK  Name = 
REMARK  8 active torsions:
REMARK  status: ('A' for Active; 'I' for Inactive)
REMARK    1  A    between atoms: C_1  and  O_2
REMARK    2  A    between atoms: O_2  and  C_3
REMARK    3  A    between atoms: C_6  and  C_7
REMARK    4  A    between atoms: C_7  and  C_8
REMARK    5  A    between atoms: C_8  and  N_9
REMARK    6  A    between atoms: C_13  and  N_14
REMARK    7  A    between atoms: N_17  and  S_18
REMARK    8  A    between atoms: S_18  and  C_21
REMARK                            x       y       z     vdW  Elec       q    Type
REMARK                         _______ _______ _______ _____ _____    ______ ____
ROOT
ATOM      1  N   UNL     1       3.306   4.973  19.637  0.00  0.00    +0.000 N 
ATOM      2  C   UNL     1       2.498   4.476  20.620  0.00  0.00    +0.000 C 
ATOM      3  O   UNL     1       2.696   3.481  21.301  0.00  0.00    +0.000 OA
ATOM      4  C   UNL     1       1.221   5.268  20.648  0.00  0.00    +0.000 C 
ATOM      5  C   UNL     1       1.481   6.460  19.717  0.00  0.00    +0.000 C 
ATOM      6  C   UNL     1       2.624   5.882  18.882  0.00  0.00    +0.000 C 
ATOM      7  O   UNL     1       2.863   6.201  17.724  0.00  0.00    +0.000 OA
ENDROOT
BRANCH   5   8
ATOM      8  N   UNL     1       1.942   7.718  20.366  0.00  0.00    +0.000 NA
ATOM      9  C   UNL     1       1.861   8.901  19.460  0.00  0.00    +0.000 C 
ATOM     10  C   UNL     1       0.452   9.511  19.237  0.00  0.00    +0.000 C 
ATOM     11  N   UNL     1      -0.300   9.720  20.513  0.00  0.00    +0.000 NA
ATOM     12  C   UNL     1      -0.221   8.522  21.400  0.00  0.00    +0.000 C 
ATOM     13  C   UNL     1       1.234   8.074  21.613  0.00  0.00    +0.000 C 
BRANCH  11  14
ATOM     14  S   UNL     1      -0.055  11.215  21.299  0.00  0.00    +0.000 S 
ATOM     15  O   UNL     1       0.283  10.949  22.682  0.00  0.00    +0.000 OA
ATOM     16  O   UNL     1       0.805  12.022  20.461  0.00  0.00    +0.000 OA
BRANCH  14  17
ATOM     17  C   UNL     1      -1.677  11.940  21.302  0.00  0.00    +0.000 A 
ATOM     18  C   UNL     1      -2.316  12.182  20.081  0.00  0.00    +0.000 A 
ATOM     19  C   UNL     1      -3.613  12.686  20.073  0.00  0.00    +0.000 A 
ATOM     20  C   UNL     1      -4.278  12.932  21.279  0.00  0.00    +0.000 A 
ATOM     21  C   UNL     1      -3.637  12.690  22.494  0.00  0.00    +0.000 A 
ATOM     22  C   UNL     1      -2.328  12.203  22.511  0.00  0.00    +0.000 A 
ENDBRANCH  14  17
ENDBRANCH  11  14
ENDBRANCH   5   8
BRANCH   1  23
ATOM     23  C   UNL     1       4.537   4.310  19.224  0.00  0.00    +0.000 C 
BRANCH  23  24
ATOM     24  C   UNL     1       4.397   3.533  17.907  0.00  0.00    +0.000 C 
BRANCH  24  28
ATOM     25  C   UNL     1       7.078   5.007  14.856  0.00  0.00    +0.000 A 
ATOM     26  C   UNL     1       7.346   5.245  16.205  0.00  0.00    +0.000 A 
ATOM     27  C   UNL     1       6.491   4.755  17.196  0.00  0.00    +0.000 A 
ATOM     28  C   UNL     1       5.344   4.033  16.845  0.00  0.00    +0.000 A 
ATOM     29  C   UNL     1       5.074   3.806  15.490  0.00  0.00    +0.000 A 
ATOM     30  C   UNL     1       5.935   4.293  14.502  0.00  0.00    +0.000 A 
BRANCH  25  32
ATOM     31  C   UNL     1       7.774   5.203  12.608  0.00  0.00    +0.000 C 
ATOM     32  O   UNL     1       7.976   5.548  13.975  0.00  0.00    +0.000 OA
ENDBRANCH  25  32
ENDBRANCH  24  28
ENDBRANCH  23  24
ENDBRANCH   1  23
TORSDOF 7
ENDMDL
MODEL 6
REMARK VINA RESULT:      -7.6      0.619      1.052
REMARK  Name = 
REMARK  8 active torsions:
REMARK  status: ('A' for Active; 'I' for Inactive)
REMARK    1  A    between atoms: C_1  and  O_2
REMARK    2  A    between atoms: O_2  and  C_3
REMARK    3  A    between atoms: C_6  and  C_7
REMARK    4  A    between atoms: C_7  and  C_8
REMARK    5  A    between atoms: C_8  and  N_9
REMARK    6  A    between atoms: C_13  and  N_14
REMARK    7  A    between atoms: N_17  and  S_18
REMARK    8  A    between atoms: S_18  and  C_21
REMARK                            x       y       z     vdW  Elec       q    Type
REMARK                         _______ _______ _______ _____ _____    ______ ____
ROOT
ATOM      1  N   UNL     1       1.756   8.559  20.078  0.00  0.00    +0.000 N 
ATOM      2  C   UNL     1       1.613   9.107  18.835  0.00  0.00    +0.000 C 
ATOM      3  O   UNL     1       1.206  10.228  18.569  0.00  0.00    +0.000 OA
ATOM      4  C   UNL     1       1.898   8.053  17.802  0.00  0.00    +0.000 C 
ATOM      5  C   UNL     1       2.473   6.873  18.598  0.00  0.00    +0.000 C 
ATOM      6  C   UNL     1       1.916   7.207  19.982  0.00  0.00    +0.000 C 
ATOM      7  O   UNL     1       1.659   6.375  20.843  0.00  0.00    +0.000 OA
ENDROOT
BRANCH   5   8
ATOM      8  N   UNL     1       3.957   6.791  18.680  0.00  0.00    +0.000 NA
ATOM      9  C   UNL     1       4.457   5.386  18.737  0.00  0.00    +0.000 C 
ATOM     10  C   UNL     1       4.469   4.597  17.401  0.00  0.00    +0.000 C 
ATOM     11  N   UNL     1       5.076   5.371  16.273  0.00  0.00    +0.000 NA
ATOM     12  C   UNL     1       4.553   6.768  16.222  0.00  0.00    +0.000 C 
ATOM     13  C   UNL     1       4.683   7.468  17.585  0.00  0.00    +0.000 C 
BRANCH  11  14
ATOM     14  S   UNL     1       6.766   5.227  16.081  0.00  0.00    +0.000 S 
ATOM     15  O   UNL     1       7.349   6.545  16.212  0.00  0.00    +0.000 OA
ATOM     16  O   UNL     1       7.214   4.125  16.903  0.00  0.00    +0.000 OA
BRANCH  14  17
ATOM     17  C   UNL     1       6.939   4.760  14.375  0.00  0.00    +0.000 A 
ATOM     18  C   UNL     1       6.125   3.745  13.862  0.00  0.00    +0.000 A 
ATOM     19  C   UNL     1       6.204   3.419  12.511  0.00  0.00    +0.000 A 
ATOM     20  C   UNL     1       7.079   4.114  11.671  0.00  0.00    +0.000 A 
ATOM     21  C   UNL     1       7.890   5.125  12.187  0.00  0.00    +0.000 A 
ATOM     22  C   UNL     1       7.831   5.446  13.545  0.00  0.00    +0.000 A 
ENDBRANCH  14  17
ENDBRANCH  11  14
ENDBRANCH   5   8
BRANCH   1  23
ATOM     23  C   UNL     1       1.369   9.262  21.295  0.00  0.00    +0.000 C 
BRANCH  23  24
ATOM     24  C   UNL     1      -0.138   9.193  21.583  0.00  0.00    +0.000 C 
BRANCH  24  28
ATOM     25  C   UNL     1      -1.934  13.093  22.075  0.00  0.00    +0.000 A 
ATOM     26  C   UNL     1      -1.729  12.267  23.181  0.00  0.00    +0.000 A 
ATOM     27  C   UNL     1      -1.133  11.011  23.029  0.00  0.00    +0.000 A 
ATOM     28  C   UNL     1      -0.749  10.561  21.760  0.00  0.00    +0.000 A 
ATOM     29  C   UNL     1      -0.965  11.389  20.653  0.00  0.00    +0.000 A 
ATOM     30  C   UNL     1      -1.557  12.647  20.809  0.00  0.00    +0.000 A 
BRANCH  25  32
ATOM     31  C   UNL     1      -2.811  15.105  21.205  0.00  0.00    +0.000 C 
ATOM     32  O   UNL     1      -2.539  14.291  22.341  0.00  0.00    +0.000 OA
ENDBRANCH  25  32
ENDBRANCH  24  28
ENDBRANCH  23  24
ENDBRANCH   1  23
TORSDOF 7
ENDMDL
MODEL 7
REMARK VINA RESULT:      -7.5      3.355      9.788
REMARK  Name = 
REMARK  8 active torsions:
REMARK  status: ('A' for Active; 'I' for Inactive)
REMARK    1  A    between atoms: C_1  and  O_2
REMARK    2  A    between atoms: O_2  and  C_3
REMARK    3  A    between atoms: C_6  and  C_7
REMARK    4  A    between atoms: C_7  and  C_8
REMARK    5  A    between atoms: C_8  and  N_9
REMARK    6  A    between atoms: C_13  and  N_14
REMARK    7  A    between atoms: N_17  and  S_18
REMARK    8  A    between atoms: S_18  and  C_21
REMARK                            x       y       z     vdW  Elec       q    Type
REMARK                         _______ _______ _______ _____ _____    ______ ____
ROOT
ATOM      1  N   UNL     1       3.096   4.471  19.329  0.00  0.00    +0.000 N 
ATOM      2  C   UNL     1       2.549   4.063  20.512  0.00  0.00    +0.000 C 
ATOM      3  O   UNL     1       2.886   3.100  21.184  0.00  0.00    +0.000 OA
ATOM      4  C   UNL     1       1.341   4.908  20.807  0.00  0.00    +0.000 C 
ATOM      5  C   UNL     1       1.390   6.034  19.766  0.00  0.00    +0.000 C 
ATOM      6  C   UNL     1       2.271   5.365  18.711  0.00  0.00    +0.000 C 
ATOM      7  O   UNL     1       2.219   5.608  17.512  0.00  0.00    +0.000 OA
ENDROOT
BRANCH   5   8
ATOM      8  N   UNL     1       2.033   7.306  20.198  0.00  0.00    +0.000 NA
ATOM      9  C   UNL     1       2.078   8.330  19.113  0.00  0.00    +0.000 C 
ATOM     10  C   UNL     1       0.755   9.080  18.808  0.00  0.00    +0.000 C 
ATOM     11  N   UNL     1       0.078   9.589  20.041  0.00  0.00    +0.000 NA
ATOM     12  C   UNL     1       0.027   8.548  21.109  0.00  0.00    +0.000 C 
ATOM     13  C   UNL     1       1.417   7.949  21.378  0.00  0.00    +0.000 C 
BRANCH  11  14
ATOM     14  S   UNL     1       0.542  11.144  20.572  0.00  0.00    +0.000 S 
ATOM     15  O   UNL     1       1.468  10.988  21.673  0.00  0.00    +0.000 OA
ATOM     16  O   UNL     1       0.891  11.925  19.405  0.00  0.00    +0.000 OA
BRANCH  14  17
ATOM     17  C   UNL     1      -0.960  11.800  21.258  0.00  0.00    +0.000 A 
ATOM     18  C   UNL     1      -1.928  12.328  20.397  0.00  0.00    +0.000 A 
ATOM     19  C   UNL     1      -3.136  12.781  20.918  0.00  0.00    +0.000 A 
ATOM     20  C   UNL     1      -3.385  12.695  22.291  0.00  0.00    +0.000 A 
ATOM     21  C   UNL     1      -2.416  12.170  23.147  0.00  0.00    +0.000 A 
ATOM     22  C   UNL     1      -1.193  11.729  22.635  0.00  0.00    +0.000 A 
ENDBRANCH  14  17
ENDBRANCH  11  14
ENDBRANCH   5   8
BRANCH   1  23
ATOM     23  C   UNL     1       4.166   3.736  18.665  0.00  0.00    +0.000 C 
BRANCH  23  24
ATOM     24  C   UNL     1       5.550   3.984  19.285  0.00  0.00    +0.000 C 
BRANCH  24  28
ATOM     25  C   UNL     1       7.477   7.469  17.606  0.00  0.00    +0.000 A 
ATOM     26  C   UNL     1       8.033   6.819  18.708  0.00  0.00    +0.000 A 
ATOM     27  C   UNL     1       7.423   5.681  19.244  0.00  0.00    +0.000 A 
ATOM     28  C   UNL     1       6.234   5.190  18.690  0.00  0.00    +0.000 A 
ATOM     29  C   UNL     1       5.675   5.851  17.590  0.00  0.00    +0.000 A 
ATOM     30  C   UNL     1       6.292   6.986  17.053  0.00  0.00    +0.000 A 
BRANCH  25  32
ATOM     31  C   UNL     1       8.473   9.528  18.189  0.00  0.00    +0.000 C 
ATOM     32  O   UNL     1       8.152   8.580  17.177  0.00  0.00    +0.000 OA
ENDBRANCH  25  32
ENDBRANCH  24  28
ENDBRANCH  23  24
ENDBRANCH   1  23
TORSDOF 7
ENDMDL
MODEL 8
REMARK VINA RESULT:      -7.5      4.382     10.440
REMARK  Name = 
REMARK  8 active torsions:
REMARK  status: ('A' for Active; 'I' for Inactive)
REMARK    1  A    between atoms: C_1  and  O_2
REMARK    2  A    between atoms: O_2  and  C_3
REMARK    3  A    between atoms: C_6  and  C_7
REMARK    4  A    between atoms: C_7  and  C_8
REMARK    5  A    between atoms: C_8  and  N_9
REMARK    6  A    between atoms: C_13  and  N_14
REMARK    7  A    between atoms: N_17  and  S_18
REMARK    8  A    between atoms: S_18  and  C_21
REMARK                            x       y       z     vdW  Elec       q    Type
REMARK                         _______ _______ _______ _____ _____    ______ ____
ROOT
ATOM      1  N   UNL     1       1.100   8.634  20.583  0.00  0.00    +0.000 N 
ATOM      2  C   UNL     1      -0.118   8.859  21.159  0.00  0.00    +0.000 C 
ATOM      3  O   UNL     1      -0.674   8.163  21.994  0.00  0.00    +0.000 OA
ATOM      4  C   UNL     1      -0.761  10.044  20.495  0.00  0.00    +0.000 C 
ATOM      5  C   UNL     1       0.345  10.645  19.616  0.00  0.00    +0.000 C 
ATOM      6  C   UNL     1       1.251   9.421  19.478  0.00  0.00    +0.000 C 
ATOM      7  O   UNL     1       1.980   9.206  18.518  0.00  0.00    +0.000 OA
ENDROOT
BRANCH   5   8
ATOM      8  N   UNL     1       1.128  11.763  20.211  0.00  0.00    +0.000 NA
ATOM      9  C   UNL     1       1.762  12.638  19.182  0.00  0.00    +0.000 C 
ATOM     10  C   UNL     1       0.832  13.649  18.460  0.00  0.00    +0.000 C 
ATOM     11  N   UNL     1      -0.035  14.419  19.405  0.00  0.00    +0.000 NA
ATOM     12  C   UNL     1      -0.672  13.527  20.417  0.00  0.00    +0.000 C 
ATOM     13  C   UNL     1       0.368  12.642  21.124  0.00  0.00    +0.000 C 
BRANCH  11  14
ATOM     14  S   UNL     1       0.627  15.862  20.033  0.00  0.00    +0.000 S 
ATOM     15  O   UNL     1      -0.286  16.382  21.028  0.00  0.00    +0.000 OA
ATOM     16  O   UNL     1       2.016  15.613  20.348  0.00  0.00    +0.000 OA
BRANCH  14  17
ATOM     17  C   UNL     1       0.556  16.974  18.648  0.00  0.00    +0.000 A 
ATOM     18  C   UNL     1       1.723  17.227  17.919  0.00  0.00    +0.000 A 
ATOM     19  C   UNL     1       1.665  18.041  16.792  0.00  0.00    +0.000 A 
ATOM     20  C   UNL     1       0.445  18.588  16.383  0.00  0.00    +0.000 A 
ATOM     21  C   UNL     1      -0.716  18.334  17.113  0.00  0.00    +0.000 A 
ATOM     22  C   UNL     1      -0.664  17.533  18.256  0.00  0.00    +0.000 A 
ENDBRANCH  14  17
ENDBRANCH  11  14
ENDBRANCH   5   8
BRANCH   1  23
ATOM     23  C   UNL     1       1.896   7.448  20.869  0.00  0.00    +0.000 C 
BRANCH  23  24
ATOM     24  C   UNL     1       1.347   6.173  20.210  0.00  0.00    +0.000 C 
BRANCH  24  28
ATOM     25  C   UNL     1       4.258   4.253  17.659  0.00  0.00    +0.000 A 
ATOM     26  C   UNL     1       2.897   3.993  17.495  0.00  0.00    +0.000 A 
ATOM     27  C   UNL     1       1.951   4.625  18.307  0.00  0.00    +0.000 A 
ATOM     28  C   UNL     1       2.360   5.515  19.307  0.00  0.00    +0.000 A 
ATOM     29  C   UNL     1       3.727   5.766  19.474  0.00  0.00    +0.000 A 
ATOM     30  C   UNL     1       4.671   5.136  18.656  0.00  0.00    +0.000 A 
BRANCH  25  32
ATOM     31  C   UNL     1       5.400   4.219  15.592  0.00  0.00    +0.000 C 
ATOM     32  O   UNL     1       5.093   3.566  16.820  0.00  0.00    +0.000 OA
ENDBRANCH  25  32
ENDBRANCH  24  28
ENDBRANCH  23  24
ENDBRANCH   1  23
TORSDOF 7
ENDMDL
MODEL 9
REMARK VINA RESULT:      -7.4      3.153      4.247
REMARK  Name = 
REMARK  8 active torsions:
REMARK  status: ('A' for Active; 'I' for Inactive)
REMARK    1  A    between atoms: C_1  and  O_2
REMARK    2  A    between atoms: O_2  and  C_3
REMARK    3  A    between atoms: C_6  and  C_7
REMARK    4  A    between atoms: C_7  and  C_8
REMARK    5  A    between atoms: C_8  and  N_9
REMARK    6  A    between atoms: C_13  and  N_14
REMARK    7  A    between atoms: N_17  and  S_18
REMARK    8  A    between atoms: S_18  and  C_21
REMARK                            x       y       z     vdW  Elec       q    Type
REMARK                         _______ _______ _______ _____ _____    ______ ____
ROOT
ATOM      1  N   UNL     1       0.072   9.579  19.918  0.00  0.00    +0.000 N 
ATOM      2  C   UNL     1       0.145   9.053  21.176  0.00  0.00    +0.000 C 
ATOM      3  O   UNL     1      -0.653   9.215  22.086  0.00  0.00    +0.000 OA
ATOM      4  C   UNL     1       1.460   8.342  21.332  0.00  0.00    +0.000 C 
ATOM      5  C   UNL     1       2.052   8.303  19.916  0.00  0.00    +0.000 C 
ATOM      6  C   UNL     1       1.277   9.461  19.287  0.00  0.00    +0.000 C 
ATOM      7  O   UNL     1       1.696  10.155  18.369  0.00  0.00    +0.000 OA
ENDROOT
BRANCH   5   8
ATOM      8  N   UNL     1       1.800   7.066  19.127  0.00  0.00    +0.000 NA
ATOM      9  C   UNL     1       2.581   7.019  17.857  0.00  0.00    +0.000 C 
ATOM     10  C   UNL     1       4.084   6.658  17.977  0.00  0.00    +0.000 C 
ATOM     11  N   UNL     1       4.327   5.458  18.838  0.00  0.00    +0.000 NA
ATOM     12  C   UNL     1       3.551   5.529  20.110  0.00  0.00    +0.000 C 
ATOM     13  C   UNL     1       2.061   5.801  19.846  0.00  0.00    +0.000 C 
BRANCH  11  14
ATOM     14  S   UNL     1       4.286   3.943  18.052  0.00  0.00    +0.000 S 
ATOM     15  O   UNL     1       4.921   2.969  18.914  0.00  0.00    +0.000 OA
ATOM     16  O   UNL     1       2.944   3.738  17.552  0.00  0.00    +0.000 OA
BRANCH  14  17
ATOM     17  C   UNL     1       5.371   4.179  16.664  0.00  0.00    +0.000 A 
ATOM     18  C   UNL     1       4.849   4.090  15.370  0.00  0.00    +0.000 A 
ATOM     19  C   UNL     1       5.674   4.341  14.278  0.00  0.00    +0.000 A 
ATOM     20  C   UNL     1       7.013   4.695  14.476  0.00  0.00    +0.000 A 
ATOM     21  C   UNL     1       7.530   4.781  15.769  0.00  0.00    +0.000 A 
ATOM     22  C   UNL     1       6.713   4.513  16.870  0.00  0.00    +0.000 A 
ENDBRANCH  14  17
ENDBRANCH  11  14
ENDBRANCH   5   8
BRANCH   1  23
ATOM     23  C   UNL     1      -0.991  10.488  19.508  0.00  0.00    +0.000 C 
BRANCH  23  24
ATOM     24  C   UNL     1      -1.417  10.304  18.043  0.00  0.00    +0.000 C 
BRANCH  24  28
ATOM     25  C   UNL     1      -5.315  11.990  17.244  0.00  0.00    +0.000 A 
ATOM     26  C   UNL     1      -4.743  12.107  18.512  0.00  0.00    +0.000 A 
ATOM     27  C   UNL     1      -3.475  11.578  18.771  0.00  0.00    +0.000 A 
ATOM     28  C   UNL     1      -2.770  10.909  17.763  0.00  0.00    +0.000 A 
ATOM     29  C   UNL     1      -3.352  10.786  16.495  0.00  0.00    +0.000 A 
ATOM     30  C   UNL     1      -4.618  11.321  16.239  0.00  0.00    +0.000 A 
BRANCH  25  32
ATOM     31  C   UNL     1      -7.342  12.576  18.305  0.00  0.00    +0.000 C 
ATOM     32  O   UNL     1      -6.565  12.531  17.112  0.00  0.00    +0.000 OA
ENDBRANCH  25  32
ENDBRANCH  24  28
ENDBRANCH  23  24
ENDBRANCH   1  23
TORSDOF 7
ENDMDL
