MODEL 1
REMARK VINA RESULT:      -7.8      0.000      0.000
REMARK  Name = 
REMARK  3 active torsions:
REMARK  status: ('A' for Active; 'I' for Inactive)
REMARK    1  A    between atoms: C_2  and  C_3
REMARK    2  A    between atoms: C_5  and  C_6
REMARK    3  A    between atoms: C_22  and  N_23
REMARK                            x       y       z     vdW  Elec       q    Type
REMARK                         _______ _______ _______ _____ _____    ______ ____
ROOT
ATOM      1  C   UNL     1       4.234   5.217  19.479  0.00  0.00    +0.000 A 
ATOM      2  C   UNL     1       3.835   6.539  19.384  0.00  0.00    +0.000 A 
ATOM      3  C   UNL     1       2.491   6.857  19.539  0.00  0.00    +0.000 A 
ATOM      4  N   UNL     1       1.602   5.925  19.931  0.00  0.00    +0.000 NA
ATOM      5  C   UNL     1       2.025   4.668  20.198  0.00  0.00    +0.000 A 
ATOM      6  C   UNL     1       1.107   3.749  20.691  0.00  0.00    +0.000 A 
ATOM      7  C   UNL     1       1.461   2.433  21.001  0.00  0.00    +0.000 A 
ATOM      8  C   UNL     1       2.769   2.010  20.803  0.00  0.00    +0.000 A 
ATOM      9  C   UNL     1       3.705   2.899  20.281  0.00  0.00    +0.000 A 
ATOM     10  C   UNL     1       3.355   4.245  19.985  0.00  0.00    +0.000 A 
ENDROOT
BRANCH   1  12
ATOM     11  O   UNL     1       6.520   4.789  19.768  0.00  0.00    +0.000 OA
ATOM     12  C   UNL     1       5.605   4.923  18.967  0.00  0.00    +0.000 C 
ATOM     13  N   UNL     1       5.794   4.878  17.568  0.00  0.00    +0.000 N 
ATOM     14  C   UNL     1       7.130   4.586  17.056  0.00  0.00    +0.000 C 
ATOM     15  C   UNL     1       7.412   5.316  15.737  0.00  0.00    +0.000 C 
ATOM     16  C   UNL     1       6.314   5.134  14.651  0.00  0.00    +0.000 C 
ATOM     17  C   UNL     1       4.974   5.492  15.335  0.00  0.00    +0.000 C 
ATOM     18  C   UNL     1       4.730   4.653  16.583  0.00  0.00    +0.000 C 
BRANCH  16  19
ATOM     19  N   UNL     1       6.299   3.788  14.019  0.00  0.00    +0.000 NA
ATOM     20  C   UNL     1       7.306   3.629  12.947  0.00  0.00    +0.000 C 
ATOM     21  C   UNL     1       6.608   4.058  11.670  0.00  0.00    +0.000 C 
ATOM     22  C   UNL     1       5.227   3.472  11.847  0.00  0.00    +0.000 C 
ATOM     23  C   UNL     1       5.013   3.455  13.356  0.00  0.00    +0.000 C 
ENDBRANCH  16  19
ENDBRANCH   1  12
BRANCH   3  24
ATOM     24  C   UNL     1       1.984   8.193  19.172  0.00  0.00    +0.000 A 
ATOM     25  C   UNL     1       1.185   8.959  20.042  0.00  0.00    +0.000 A 
ATOM     26  C   UNL     1       0.743  10.234  19.686  0.00  0.00    +0.000 A 
ATOM     27  C   UNL     1       1.123  10.727  18.455  0.00  0.00    +0.000 A 
ATOM     28  N   UNL     1       1.902  10.051  17.586  0.00  0.00    +0.000 NA
ATOM     29  C   UNL     1       2.306   8.807  17.960  0.00  0.00    +0.000 A 
ENDBRANCH   3  24
TORSDOF 3
ENDMDL
MODEL 2
REMARK VINA RESULT:      -7.6      5.479     11.981
REMARK  Name = 
REMARK  3 active torsions:
REMARK  status: ('A' for Active; 'I' for Inactive)
REMARK    1  A    between atoms: C_2  and  C_3
REMARK    2  A    between atoms: C_5  and  C_6
REMARK    3  A    between atoms: C_22  and  N_23
REMARK                            x       y       z     vdW  Elec       q    Type
REMARK                         _______ _______ _______ _____ _____    ______ ____
ROOT
ATOM      1  C   UNL     1      -0.901  11.775  18.824  0.00  0.00    +0.000 A 
ATOM      2  C   UNL     1      -0.364  10.519  19.053  0.00  0.00    +0.000 A 
ATOM      3  C   UNL     1       1.015  10.352  19.016  0.00  0.00    +0.000 A 
ATOM      4  N   UNL     1       1.837  11.414  18.916  0.00  0.00    +0.000 NA
ATOM      5  C   UNL     1       1.315  12.661  18.871  0.00  0.00    +0.000 A 
ATOM      6  C   UNL     1       2.185  13.745  18.863  0.00  0.00    +0.000 A 
ATOM      7  C   UNL     1       1.731  15.066  18.827  0.00  0.00    +0.000 A 
ATOM      8  C   UNL     1       0.366  15.321  18.785  0.00  0.00    +0.000 A 
ATOM      9  C   UNL     1      -0.530  14.256  18.761  0.00  0.00    +0.000 A 
ATOM     10  C   UNL     1      -0.073  12.910  18.820  0.00  0.00    +0.000 A 
ENDROOT
BRANCH   1  12
ATOM     11  O   UNL     1      -2.762  11.482  17.430  0.00  0.00    +0.000 OA
ATOM     12  C   UNL     1      -2.367  11.803  18.542  0.00  0.00    +0.000 C 
ATOM     13  N   UNL     1      -3.228  12.264  19.563  0.00  0.00    +0.000 N 
ATOM     14  C   UNL     1      -4.665  12.290  19.300  0.00  0.00    +0.000 C 
ATOM     15  C   UNL     1      -5.358  13.455  20.017  0.00  0.00    +0.000 C 
ATOM     16  C   UNL     1      -5.035  13.564  21.535  0.00  0.00    +0.000 C 
ATOM     17  C   UNL     1      -3.494  13.540  21.645  0.00  0.00    +0.000 C 
ATOM     18  C   UNL     1      -2.895  12.300  20.991  0.00  0.00    +0.000 C 
BRANCH  16  19
ATOM     19  N   UNL     1      -5.692  12.526  22.372  0.00  0.00    +0.000 NA
ATOM     20  C   UNL     1      -7.103  12.278  22.005  0.00  0.00    +0.000 C 
ATOM     21  C   UNL     1      -7.917  13.242  22.847  0.00  0.00    +0.000 C 
ATOM     22  C   UNL     1      -7.201  13.189  24.176  0.00  0.00    +0.000 C 
ATOM     23  C   UNL     1      -5.754  12.875  23.814  0.00  0.00    +0.000 C 
ENDBRANCH  16  19
ENDBRANCH   1  12
BRANCH   3  24
ATOM     24  C   UNL     1       1.611   9.003  18.974  0.00  0.00    +0.000 A 
ATOM     25  C   UNL     1       2.297   8.517  17.845  0.00  0.00    +0.000 A 
ATOM     26  C   UNL     1       2.881   7.251  17.841  0.00  0.00    +0.000 A 
ATOM     27  C   UNL     1       2.774   6.488  18.985  0.00  0.00    +0.000 A 
ATOM     28  N   UNL     1       2.146   6.903  20.105  0.00  0.00    +0.000 NA
ATOM     29  C   UNL     1       1.579   8.139  20.071  0.00  0.00    +0.000 A 
ENDBRANCH   3  24
TORSDOF 3
ENDMDL
MODEL 3
REMARK VINA RESULT:      -6.8      4.643      9.882
REMARK  Name = 
REMARK  3 active torsions:
REMARK  status: ('A' for Active; 'I' for Inactive)
REMARK    1  A    between atoms: C_2  and  C_3
REMARK    2  A    between atoms: C_5  and  C_6
REMARK    3  A    between atoms: C_22  and  N_23
REMARK                            x       y       z     vdW  Elec       q    Type
REMARK                         _______ _______ _______ _____ _____    ______ ____
ROOT
ATOM      1  C   UNL     1       0.361  11.138  19.610  0.00  0.00    +0.000 A 
ATOM      2  C   UNL     1       0.984  10.114  18.915  0.00  0.00    +0.000 A 
ATOM      3  C   UNL     1       1.316   8.943  19.584  0.00  0.00    +0.000 A 
ATOM      4  N   UNL     1       0.904   8.728  20.848  0.00  0.00    +0.000 NA
ATOM      5  C   UNL     1       0.140   9.657  21.469  0.00  0.00    +0.000 A 
ATOM      6  C   UNL     1      -0.350   9.373  22.737  0.00  0.00    +0.000 A 
ATOM      7  C   UNL     1      -1.153  10.271  23.445  0.00  0.00    +0.000 A 
ATOM      8  C   UNL     1      -1.470  11.500  22.880  0.00  0.00    +0.000 A 
ATOM      9  C   UNL     1      -0.968  11.827  21.623  0.00  0.00    +0.000 A 
ATOM     10  C   UNL     1      -0.169  10.907  20.890  0.00  0.00    +0.000 A 
ENDROOT
BRANCH   1  12
ATOM     11  O   UNL     1      -0.424  12.648  17.998  0.00  0.00    +0.000 OA
ATOM     12  C   UNL     1       0.353  12.464  18.924  0.00  0.00    +0.000 C 
ATOM     13  N   UNL     1       1.295  13.431  19.342  0.00  0.00    +0.000 N 
ATOM     14  C   UNL     1       1.292  14.734  18.682  0.00  0.00    +0.000 C 
ATOM     15  C   UNL     1       2.701  15.333  18.586  0.00  0.00    +0.000 C 
ATOM     16  C   UNL     1       3.487  15.355  19.929  0.00  0.00    +0.000 C 
ATOM     17  C   UNL     1       3.413  13.916  20.489  0.00  0.00    +0.000 C 
ATOM     18  C   UNL     1       1.974  13.437  20.642  0.00  0.00    +0.000 C 
BRANCH  16  19
ATOM     19  N   UNL     1       3.009  16.378  20.896  0.00  0.00    +0.000 NA
ATOM     20  C   UNL     1       3.234  17.768  20.443  0.00  0.00    +0.000 C 
ATOM     21  C   UNL     1       4.606  18.147  20.966  0.00  0.00    +0.000 C 
ATOM     22  C   UNL     1       4.607  17.527  22.343  0.00  0.00    +0.000 C 
ATOM     23  C   UNL     1       3.690  16.316  22.214  0.00  0.00    +0.000 C 
ENDBRANCH  16  19
ENDBRANCH   1  12
BRANCH   3  24
ATOM     24  C   UNL     1       2.219   7.951  18.968  0.00  0.00    +0.000 A 
ATOM     25  C   UNL     1       2.912   8.206  17.770  0.00  0.00    +0.000 A 
ATOM     26  C   UNL     1       3.785   7.265  17.224  0.00  0.00    +0.000 A 
ATOM     27  C   UNL     1       3.957   6.076  17.901  0.00  0.00    +0.000 A 
ATOM     28  N   UNL     1       3.337   5.780  19.062  0.00  0.00    +0.000 NA
ATOM     29  C   UNL     1       2.485   6.716  19.561  0.00  0.00    +0.000 A 
ENDBRANCH   3  24
TORSDOF 3
ENDMDL
MODEL 4
REMARK VINA RESULT:      -6.6      8.208     10.369
REMARK  Name = 
REMARK  3 active torsions:
REMARK  status: ('A' for Active; 'I' for Inactive)
REMARK    1  A    between atoms: C_2  and  C_3
REMARK    2  A    between atoms: C_5  and  C_6
REMARK    3  A    between atoms: C_22  and  N_23
REMARK                            x       y       z     vdW  Elec       q    Type
REMARK                         _______ _______ _______ _____ _____    ______ ____
ROOT
ATOM      1  C   UNL     1      -2.019  11.324  19.017  0.00  0.00    +0.000 A 
ATOM      2  C   UNL     1      -2.786  11.891  20.020  0.00  0.00    +0.000 A 
ATOM      3  C   UNL     1      -4.054  12.373  19.718  0.00  0.00    +0.000 A 
ATOM      4  N   UNL     1      -4.604  12.156  18.508  0.00  0.00    +0.000 NA
ATOM      5  C   UNL     1      -3.922  11.443  17.581  0.00  0.00    +0.000 A 
ATOM      6  C   UNL     1      -4.548  11.152  16.375  0.00  0.00    +0.000 A 
ATOM      7  C   UNL     1      -3.921  10.414  15.368  0.00  0.00    +0.000 A 
ATOM      8  C   UNL     1      -2.622   9.960  15.559  0.00  0.00    +0.000 A 
ATOM      9  C   UNL     1      -1.957  10.261  16.745  0.00  0.00    +0.000 A 
ATOM     10  C   UNL     1      -2.600  10.993  17.781  0.00  0.00    +0.000 A 
ENDROOT
BRANCH   1  12
ATOM     11  O   UNL     1      -0.166  10.049  19.673  0.00  0.00    +0.000 OA
ATOM     12  C   UNL     1      -0.571  11.152  19.337  0.00  0.00    +0.000 C 
ATOM     13  N   UNL     1       0.256  12.297  19.296  0.00  0.00    +0.000 N 
ATOM     14  C   UNL     1       1.675  12.140  19.602  0.00  0.00    +0.000 C 
ATOM     15  C   UNL     1       2.253  13.378  20.300  0.00  0.00    +0.000 C 
ATOM     16  C   UNL     1       1.951  14.724  19.582  0.00  0.00    +0.000 C 
ATOM     17  C   UNL     1       0.424  14.748  19.345  0.00  0.00    +0.000 C 
ATOM     18  C   UNL     1      -0.049  13.530  18.561  0.00  0.00    +0.000 C 
BRANCH  16  19
ATOM     19  N   UNL     1       2.734  14.938  18.336  0.00  0.00    +0.000 NA
ATOM     20  C   UNL     1       4.107  14.393  18.402  0.00  0.00    +0.000 C 
ATOM     21  C   UNL     1       4.965  15.521  18.943  0.00  0.00    +0.000 C 
ATOM     22  C   UNL     1       4.396  16.726  18.232  0.00  0.00    +0.000 C 
ATOM     23  C   UNL     1       2.933  16.369  17.995  0.00  0.00    +0.000 C 
ENDBRANCH  16  19
ENDBRANCH   1  12
BRANCH   3  24
ATOM     24  C   UNL     1      -4.786  13.227  20.672  0.00  0.00    +0.000 A 
ATOM     25  C   UNL     1      -6.001  12.829  21.259  0.00  0.00    +0.000 A 
ATOM     26  C   UNL     1      -6.659  13.641  22.184  0.00  0.00    +0.000 A 
ATOM     27  C   UNL     1      -6.074  14.845  22.516  0.00  0.00    +0.000 A 
ATOM     28  N   UNL     1      -4.902  15.274  22.003  0.00  0.00    +0.000 NA
ATOM     29  C   UNL     1      -4.293  14.463  21.096  0.00  0.00    +0.000 A 
ENDBRANCH   3  24
TORSDOF 3
ENDMDL
MODEL 5
REMARK VINA RESULT:      -6.5      2.083      7.135
REMARK  Name = 
REMARK  3 active torsions:
REMARK  status: ('A' for Active; 'I' for Inactive)
REMARK    1  A    between atoms: C_2  and  C_3
REMARK    2  A    between atoms: C_5  and  C_6
REMARK    3  A    between atoms: C_22  and  N_23
REMARK                            x       y       z     vdW  Elec       q    Type
REMARK                         _______ _______ _______ _____ _____    ______ ____
ROOT
ATOM      1  C   UNL     1       2.550   5.547  19.092  0.00  0.00    +0.000 A 
ATOM      2  C   UNL     1       3.528   5.929  18.189  0.00  0.00    +0.000 A 
ATOM      3  C   UNL     1       4.114   4.968  17.374  0.00  0.00    +0.000 A 
ATOM      4  N   UNL     1       3.638   3.709  17.339  0.00  0.00    +0.000 NA
ATOM      5  C   UNL     1       2.563   3.379  18.092  0.00  0.00    +0.000 A 
ATOM      6  C   UNL     1       2.033   2.101  17.969  0.00  0.00    +0.000 A 
ATOM      7  C   UNL     1       0.920   1.681  18.701  0.00  0.00    +0.000 A 
ATOM      8  C   UNL     1       0.320   2.556  19.597  0.00  0.00    +0.000 A 
ATOM      9  C   UNL     1       0.846   3.834  19.766  0.00  0.00    +0.000 A 
ATOM     10  C   UNL     1       1.966   4.273  19.007  0.00  0.00    +0.000 A 
ENDROOT
BRANCH   1  12
ATOM     11  O   UNL     1       2.220   6.198  21.319  0.00  0.00    +0.000 OA
ATOM     12  C   UNL     1       2.226   6.551  20.148  0.00  0.00    +0.000 C 
ATOM     13  N   UNL     1       1.878   7.856  19.736  0.00  0.00    +0.000 N 
ATOM     14  C   UNL     1       1.565   8.849  20.761  0.00  0.00    +0.000 C 
ATOM     15  C   UNL     1       0.498   9.845  20.289  0.00  0.00    +0.000 C 
ATOM     16  C   UNL     1       0.789  10.498  18.908  0.00  0.00    +0.000 C 
ATOM     17  C   UNL     1       1.082   9.330  17.938  0.00  0.00    +0.000 C 
ATOM     18  C   UNL     1       2.220   8.448  18.437  0.00  0.00    +0.000 C 
BRANCH  16  19
ATOM     19  N   UNL     1       1.871  11.516  18.933  0.00  0.00    +0.000 NA
ATOM     20  C   UNL     1       1.850  12.371  20.139  0.00  0.00    +0.000 C 
ATOM     21  C   UNL     1       0.968  13.552  19.783  0.00  0.00    +0.000 C 
ATOM     22  C   UNL     1       1.375  13.838  18.357  0.00  0.00    +0.000 C 
ATOM     23  C   UNL     1       1.806  12.483  17.808  0.00  0.00    +0.000 C 
ENDBRANCH  16  19
ENDBRANCH   1  12
BRANCH   3  24
ATOM     24  C   UNL     1       5.339   5.272  16.609  0.00  0.00    +0.000 A 
ATOM     25  C   UNL     1       5.621   4.668  15.369  0.00  0.00    +0.000 A 
ATOM     26  C   UNL     1       6.769   4.995  14.649  0.00  0.00    +0.000 A 
ATOM     27  C   UNL     1       7.620   5.939  15.185  0.00  0.00    +0.000 A 
ATOM     28  N   UNL     1       7.397   6.566  16.358  0.00  0.00    +0.000 NA
ATOM     29  C   UNL     1       6.272   6.216  17.039  0.00  0.00    +0.000 A 
ENDBRANCH   3  24
TORSDOF 3
ENDMDL
MODEL 6
REMARK VINA RESULT:      -6.5      2.349      7.154
REMARK  Name = 
REMARK  3 active torsions:
REMARK  status: ('A' for Active; 'I' for Inactive)
REMARK    1  A    between atoms: C_2  and  C_3
REMARK    2  A    between atoms: C_5  and  C_6
REMARK    3  A    between atoms: C_22  and  N_23
REMARK                            x       y       z     vdW  Elec       q    Type
REMARK                         _______ _______ _______ _____ _____    ______ ____
ROOT
ATOM      1  C   UNL     1       2.407   5.704  19.262  0.00  0.00    +0.000 A 
ATOM      2  C   UNL     1       3.444   6.230  18.509  0.00  0.00    +0.000 A 
ATOM      3  C   UNL     1       4.239   5.375  17.757  0.00  0.00    +0.000 A 
ATOM      4  N   UNL     1       3.922   4.072  17.626  0.00  0.00    +0.000 NA
ATOM      5  C   UNL     1       2.803   3.594  18.219  0.00  0.00    +0.000 A 
ATOM      6  C   UNL     1       2.447   2.270  17.994  0.00  0.00    +0.000 A 
ATOM      7  C   UNL     1       1.304   1.699  18.558  0.00  0.00    +0.000 A 
ATOM      8  C   UNL     1       0.493   2.463  19.387  0.00  0.00    +0.000 A 
ATOM      9  C   UNL     1       0.840   3.785  19.657  0.00  0.00    +0.000 A 
ATOM     10  C   UNL     1       1.991   4.377  19.067  0.00  0.00    +0.000 A 
ENDROOT
BRANCH   1  12
ATOM     11  O   UNL     1       1.571   6.180  21.399  0.00  0.00    +0.000 OA
ATOM     12  C   UNL     1       1.832   6.622  20.290  0.00  0.00    +0.000 C 
ATOM     13  N   UNL     1       1.557   7.954  19.907  0.00  0.00    +0.000 N 
ATOM     14  C   UNL     1       1.001   8.863  20.906  0.00  0.00    +0.000 C 
ATOM     15  C   UNL     1       0.045   9.887  20.282  0.00  0.00    +0.000 C 
ATOM     16  C   UNL     1       0.624  10.646  19.054  0.00  0.00    +0.000 C 
ATOM     17  C   UNL     1       1.153   9.558  18.091  0.00  0.00    +0.000 C 
ATOM     18  C   UNL     1       2.169   8.645  18.767  0.00  0.00    +0.000 C 
BRANCH  16  19
ATOM     19  N   UNL     1       1.651  11.664  19.398  0.00  0.00    +0.000 NA
ATOM     20  C   UNL     1       1.142  12.744  20.271  0.00  0.00    +0.000 C 
ATOM     21  C   UNL     1       0.627  13.817  19.329  0.00  0.00    +0.000 C 
ATOM     22  C   UNL     1       1.672  13.815  18.239  0.00  0.00    +0.000 C 
ATOM     23  C   UNL     1       2.195  12.384  18.218  0.00  0.00    +0.000 C 
ENDBRANCH  16  19
ENDBRANCH   1  12
BRANCH   3  24
ATOM     24  C   UNL     1       5.510   5.844  17.171  0.00  0.00    +0.000 A 
ATOM     25  C   UNL     1       6.292   6.846  17.775  0.00  0.00    +0.000 A 
ATOM     26  C   UNL     1       7.505   7.251  17.219  0.00  0.00    +0.000 A 
ATOM     27  C   UNL     1       7.924   6.629  16.061  0.00  0.00    +0.000 A 
ATOM     28  N   UNL     1       7.230   5.649  15.446  0.00  0.00    +0.000 NA
ATOM     29  C   UNL     1       6.045   5.287  16.008  0.00  0.00    +0.000 A 
ENDBRANCH   3  24
TORSDOF 3
ENDMDL
MODEL 7
REMARK VINA RESULT:      -6.4      8.763     11.523
REMARK  Name = 
REMARK  3 active torsions:
REMARK  status: ('A' for Active; 'I' for Inactive)
REMARK    1  A    between atoms: C_2  and  C_3
REMARK    2  A    between atoms: C_5  and  C_6
REMARK    3  A    between atoms: C_22  and  N_23
REMARK                            x       y       z     vdW  Elec       q    Type
REMARK                         _______ _______ _______ _____ _____    ______ ____
ROOT
ATOM      1  C   UNL     1       8.399  14.316  20.233  0.00  0.00    +0.000 A 
ATOM      2  C   UNL     1       8.071  14.025  21.547  0.00  0.00    +0.000 A 
ATOM      3  C   UNL     1       8.244  12.731  22.021  0.00  0.00    +0.000 A 
ATOM      4  N   UNL     1       8.868  11.800  21.275  0.00  0.00    +0.000 NA
ATOM      5  C   UNL     1       9.351  12.134  20.056  0.00  0.00    +0.000 A 
ATOM      6  C   UNL     1      10.072  11.183  19.344  0.00  0.00    +0.000 A 
ATOM      7  C   UNL     1      10.613  11.447  18.083  0.00  0.00    +0.000 A 
ATOM      8  C   UNL     1      10.420  12.693  17.502  0.00  0.00    +0.000 A 
ATOM      9  C   UNL     1       9.675  13.657  18.176  0.00  0.00    +0.000 A 
ATOM     10  C   UNL     1       9.141  13.400  19.469  0.00  0.00    +0.000 A 
ENDROOT
BRANCH   1  12
ATOM     11  O   UNL     1       8.660  16.471  19.352  0.00  0.00    +0.000 OA
ATOM     12  C   UNL     1       7.870  15.611  19.712  0.00  0.00    +0.000 C 
ATOM     13  N   UNL     1       6.471  15.805  19.719  0.00  0.00    +0.000 N 
ATOM     14  C   UNL     1       5.941  17.066  19.206  0.00  0.00    +0.000 C 
ATOM     15  C   UNL     1       4.672  17.501  19.950  0.00  0.00    +0.000 C 
ATOM     16  C   UNL     1       3.576  16.402  20.055  0.00  0.00    +0.000 C 
ATOM     17  C   UNL     1       4.282  15.149  20.622  0.00  0.00    +0.000 C 
ATOM     18  C   UNL     1       5.473  14.730  19.769  0.00  0.00    +0.000 C 
BRANCH  16  19
ATOM     19  N   UNL     1       2.859  16.135  18.780  0.00  0.00    +0.000 NA
ATOM     20  C   UNL     1       1.970  17.240  18.361  0.00  0.00    +0.000 C 
ATOM     21  C   UNL     1       0.625  16.940  18.993  0.00  0.00    +0.000 C 
ATOM     22  C   UNL     1       0.516  15.443  18.821  0.00  0.00    +0.000 C 
ATOM     23  C   UNL     1       1.960  14.955  18.838  0.00  0.00    +0.000 C 
ENDBRANCH  16  19
ENDBRANCH   1  12
BRANCH   3  24
ATOM     24  C   UNL     1       7.654  12.312  23.307  0.00  0.00    +0.000 A 
ATOM     25  C   UNL     1       8.367  12.374  24.519  0.00  0.00    +0.000 A 
ATOM     26  C   UNL     1       7.777  12.002  25.727  0.00  0.00    +0.000 A 
ATOM     27  C   UNL     1       6.464  11.580  25.700  0.00  0.00    +0.000 A 
ATOM     28  N   UNL     1       5.721  11.517  24.575  0.00  0.00    +0.000 NA
ATOM     29  C   UNL     1       6.331  11.877  23.414  0.00  0.00    +0.000 A 
ENDBRANCH   3  24
TORSDOF 3
ENDMDL
MODEL 8
REMARK VINA RESULT:      -6.4      9.456     11.931
REMARK  Name = 
REMARK  3 active torsions:
REMARK  status: ('A' for Active; 'I' for Inactive)
REMARK    1  A    between atoms: C_2  and  C_3
REMARK    2  A    between atoms: C_5  and  C_6
REMARK    3  A    between atoms: C_22  and  N_23
REMARK                            x       y       z     vdW  Elec       q    Type
REMARK                         _______ _______ _______ _____ _____    ______ ____
ROOT
ATOM      1  C   UNL     1       8.123  14.484  21.080  0.00  0.00    +0.000 A 
ATOM      2  C   UNL     1       6.879  14.875  20.613  0.00  0.00    +0.000 A 
ATOM      3  C   UNL     1       6.623  14.837  19.248  0.00  0.00    +0.000 A 
ATOM      4  N   UNL     1       7.506  14.282  18.395  0.00  0.00    +0.000 NA
ATOM      5  C   UNL     1       8.647  13.736  18.875  0.00  0.00    +0.000 A 
ATOM      6  C   UNL     1       9.497  13.088  17.988  0.00  0.00    +0.000 A 
ATOM      7  C   UNL     1      10.691  12.490  18.400  0.00  0.00    +0.000 A 
ATOM      8  C   UNL     1      11.061  12.549  19.738  0.00  0.00    +0.000 A 
ATOM      9  C   UNL     1      10.245  13.219  20.646  0.00  0.00    +0.000 A 
ATOM     10  C   UNL     1       9.019  13.810  20.235  0.00  0.00    +0.000 A 
ENDROOT
BRANCH   1  12
ATOM     11  O   UNL     1       9.022  15.924  22.696  0.00  0.00    +0.000 OA
ATOM     12  C   UNL     1       8.429  14.875  22.488  0.00  0.00    +0.000 C 
ATOM     13  N   UNL     1       8.072  13.976  23.517  0.00  0.00    +0.000 N 
ATOM     14  C   UNL     1       8.362  14.350  24.899  0.00  0.00    +0.000 C 
ATOM     15  C   UNL     1       8.703  13.131  25.765  0.00  0.00    +0.000 C 
ATOM     16  C   UNL     1       7.676  11.966  25.675  0.00  0.00    +0.000 C 
ATOM     17  C   UNL     1       7.490  11.679  24.167  0.00  0.00    +0.000 C 
ATOM     18  C   UNL     1       7.058  12.922  23.399  0.00  0.00    +0.000 C 
BRANCH  16  19
ATOM     19  N   UNL     1       6.393  12.231  26.376  0.00  0.00    +0.000 NA
ATOM     20  C   UNL     1       6.537  12.360  27.842  0.00  0.00    +0.000 C 
ATOM     21  C   UNL     1       6.362  10.957  28.391  0.00  0.00    +0.000 C 
ATOM     22  C   UNL     1       5.240  10.416  27.536  0.00  0.00    +0.000 C 
ATOM     23  C   UNL     1       5.388  11.151  26.209  0.00  0.00    +0.000 C 
ENDBRANCH  16  19
ENDBRANCH   1  12
BRANCH   3  24
ATOM     24  C   UNL     1       5.431  15.499  18.684  0.00  0.00    +0.000 A 
ATOM     25  C   UNL     1       4.664  14.919  17.656  0.00  0.00    +0.000 A 
ATOM     26  C   UNL     1       3.522  15.550  17.161  0.00  0.00    +0.000 A 
ATOM     27  C   UNL     1       3.161  16.759  17.718  0.00  0.00    +0.000 A 
ATOM     28  N   UNL     1       3.843  17.356  18.717  0.00  0.00    +0.000 NA
ATOM     29  C   UNL     1       4.957  16.719  19.169  0.00  0.00    +0.000 A 
ENDBRANCH   3  24
TORSDOF 3
ENDMDL
MODEL 9
REMARK VINA RESULT:      -6.4      3.399      6.139
REMARK  Name = 
REMARK  3 active torsions:
REMARK  status: ('A' for Active; 'I' for Inactive)
REMARK    1  A    between atoms: C_2  and  C_3
REMARK    2  A    between atoms: C_5  and  C_6
REMARK    3  A    between atoms: C_22  and  N_23
REMARK                            x       y       z     vdW  Elec       q    Type
REMARK                         _______ _______ _______ _____ _____    ______ ____
ROOT
ATOM      1  C   UNL     1       1.055   9.467  18.922  0.00  0.00    +0.000 A 
ATOM      2  C   UNL     1       0.124   9.991  18.041  0.00  0.00    +0.000 A 
ATOM      3  C   UNL     1      -1.147  10.307  18.504  0.00  0.00    +0.000 A 
ATOM      4  N   UNL     1      -1.436  10.258  19.819  0.00  0.00    +0.000 NA
ATOM      5  C   UNL     1      -0.469   9.917  20.702  0.00  0.00    +0.000 A 
ATOM      6  C   UNL     1      -0.764   9.964  22.059  0.00  0.00    +0.000 A 
ATOM      7  C   UNL     1       0.176   9.637  23.039  0.00  0.00    +0.000 A 
ATOM      8  C   UNL     1       1.451   9.235  22.659  0.00  0.00    +0.000 A 
ATOM      9  C   UNL     1       1.767   9.148  21.306  0.00  0.00    +0.000 A 
ATOM     10  C   UNL     1       0.820   9.501  20.306  0.00  0.00    +0.000 A 
ENDROOT
BRANCH   1  12
ATOM     11  O   UNL     1       2.966   9.526  17.566  0.00  0.00    +0.000 OA
ATOM     12  C   UNL     1       2.255   8.843  18.289  0.00  0.00    +0.000 C 
ATOM     13  N   UNL     1       2.477   7.465  18.508  0.00  0.00    +0.000 N 
ATOM     14  C   UNL     1       3.651   6.845  17.898  0.00  0.00    +0.000 C 
ATOM     15  C   UNL     1       3.390   5.386  17.503  0.00  0.00    +0.000 C 
ATOM     16  C   UNL     1       2.783   4.509  18.635  0.00  0.00    +0.000 C 
ATOM     17  C   UNL     1       1.553   5.285  19.162  0.00  0.00    +0.000 C 
ATOM     18  C   UNL     1       1.921   6.690  19.622  0.00  0.00    +0.000 C 
BRANCH  16  19
ATOM     19  N   UNL     1       3.745   4.151  19.710  0.00  0.00    +0.000 NA
ATOM     20  C   UNL     1       4.782   3.190  19.276  0.00  0.00    +0.000 C 
ATOM     21  C   UNL     1       4.204   1.816  19.559  0.00  0.00    +0.000 C 
ATOM     22  C   UNL     1       3.520   2.024  20.890  0.00  0.00    +0.000 C 
ATOM     23  C   UNL     1       3.113   3.492  20.881  0.00  0.00    +0.000 C 
ENDBRANCH  16  19
ENDBRANCH   1  12
BRANCH   3  24
ATOM     24  C   UNL     1      -2.245  10.597  17.561  0.00  0.00    +0.000 A 
ATOM     25  C   UNL     1      -2.312  10.015  16.281  0.00  0.00    +0.000 A 
ATOM     26  C   UNL     1      -3.376  10.280  15.420  0.00  0.00    +0.000 A 
ATOM     27  C   UNL     1      -4.370  11.126  15.864  0.00  0.00    +0.000 A 
ATOM     28  N   UNL     1      -4.373  11.700  17.085  0.00  0.00    +0.000 NA
ATOM     29  C   UNL     1      -3.315  11.428  17.896  0.00  0.00    +0.000 A 
ENDBRANCH   3  24
TORSDOF 3
ENDMDL
