MODEL 1
REMARK VINA RESULT:      -8.4      0.000      0.000
REMARK  Name = 
REMARK  8 active torsions:
REMARK  status: ('A' for Active; 'I' for Inactive)
REMARK    1  A    between atoms: C_1  and  C_2
REMARK    2  A    between atoms: C_5  and  S_6
REMARK    3  A    between atoms: S_6  and  N_9
REMARK    4  A    between atoms: N_9  and  C_10
REMARK    5  A    between atoms: C_10  and  C_11
REMARK    6  A    between atoms: C_11  and  C_12
REMARK    7  A    between atoms: C_17  and  C_18
REMARK    8  A    between atoms: C_28  and  C_29
REMARK                            x       y       z     vdW  Elec       q    Type
REMARK                         _______ _______ _______ _____ _____    ______ ____
ROOT
ATOM      1  C   UNL     1       5.104   3.691  19.102  0.00  0.00    +0.000 C 
ENDROOT
BRANCH   1   2
ATOM      2  C   UNL     1       3.782   3.783  19.803  0.00  0.00    +0.000 A 
ATOM      3  C   UNL     1       3.118   2.721  20.308  0.00  0.00    +0.000 A 
ATOM      4  S   UNL     1       1.569   3.128  21.040  0.00  0.00    +0.000 S 
ATOM      5  C   UNL     1       1.863   4.779  20.623  0.00  0.00    +0.000 A 
ATOM      6  N   UNL     1       1.197   5.878  20.768  0.00  0.00    +0.000 NA
ATOM      7  C   UNL     1       2.034   6.804  20.159  0.00  0.00    +0.000 A 
ATOM      8  N   UNL     1       3.186   6.278  19.677  0.00  0.00    +0.000 NA
ATOM      9  N   UNL     1       3.053   4.962  19.981  0.00  0.00    +0.000 N 
BRANCH   7  10
ATOM     10  C   UNL     1       1.585   8.199  20.076  0.00  0.00    +0.000 A 
ATOM     11  C   UNL     1       1.194   8.850  21.269  0.00  0.00    +0.000 A 
ATOM     12  C   UNL     1       0.691  10.154  21.265  0.00  0.00    +0.000 A 
ATOM     13  C   UNL     1       0.573  10.841  20.063  0.00  0.00    +0.000 A 
ATOM     14  C   UNL     1       0.969  10.225  18.876  0.00  0.00    +0.000 A 
ATOM     15  C   UNL     1       1.474   8.915  18.887  0.00  0.00    +0.000 A 
ATOM     16  F   UNL     1       1.827   8.378  17.709  0.00  0.00    +0.000 F 
ENDBRANCH   7  10
ENDBRANCH   1   2
BRANCH   1  17
ATOM     17  C   UNL     1       5.952   4.968  19.169  0.00  0.00    +0.000 C 
BRANCH  17  18
ATOM     18  N   UNL     1       5.898   5.673  17.873  0.00  0.00    +0.000 NA
ATOM     19  H   UNL     1       5.044   5.603  17.321  0.00  0.00    +0.000 HD
BRANCH  18  20
ATOM     20  S   UNL     1       7.243   5.533  16.856  0.00  0.00    +0.000 S 
ATOM     21  O   UNL     1       8.089   4.528  17.465  0.00  0.00    +0.000 OA
ATOM     22  O   UNL     1       7.729   6.866  16.580  0.00  0.00    +0.000 OA
BRANCH  20  27
ATOM     23  C   UNL     1       4.888   3.226  11.749  0.00  0.00    +0.000 C 
ATOM     24  C   UNL     1       5.489   3.808  13.001  0.00  0.00    +0.000 A 
ATOM     25  C   UNL     1       4.780   3.715  14.211  0.00  0.00    +0.000 A 
ATOM     26  C   UNL     1       5.313   4.228  15.394  0.00  0.00    +0.000 A 
ATOM     27  C   UNL     1       6.568   4.834  15.375  0.00  0.00    +0.000 A 
ATOM     28  C   UNL     1       7.281   4.957  14.176  0.00  0.00    +0.000 A 
ATOM     29  C   UNL     1       6.747   4.446  12.981  0.00  0.00    +0.000 A 
ATOM     30  C   UNL     1       7.528   4.598  11.705  0.00  0.00    +0.000 C 
ENDBRANCH  20  27
ENDBRANCH  18  20
ENDBRANCH  17  18
ENDBRANCH   1  17
TORSDOF 6
ENDMDL
MODEL 2
REMARK VINA RESULT:      -8.4      3.137      4.863
REMARK  Name = 
REMARK  8 active torsions:
REMARK  status: ('A' for Active; 'I' for Inactive)
REMARK    1  A    between atoms: C_1  and  C_2
REMARK    2  A    between atoms: C_5  and  S_6
REMARK    3  A    between atoms: S_6  and  N_9
REMARK    4  A    between atoms: N_9  and  C_10
REMARK    5  A    between atoms: C_10  and  C_11
REMARK    6  A    between atoms: C_11  and  C_12
REMARK    7  A    between atoms: C_17  and  C_18
REMARK    8  A    between atoms: C_28  and  C_29
REMARK                            x       y       z     vdW  Elec       q    Type
REMARK                         _______ _______ _______ _____ _____    ______ ____
ROOT
ATOM      1  C   UNL     1       1.963   5.724  20.777  0.00  0.00    +0.000 C 
ENDROOT
BRANCH   1   2
ATOM      2  C   UNL     1       1.922   6.938  19.899  0.00  0.00    +0.000 A 
ATOM      3  C   UNL     1       2.616   7.063  18.747  0.00  0.00    +0.000 A 
ATOM      4  S   UNL     1       2.403   8.617  17.948  0.00  0.00    +0.000 S 
ATOM      5  C   UNL     1       1.353   9.080  19.240  0.00  0.00    +0.000 A 
ATOM      6  N   UNL     1       0.691  10.155  19.523  0.00  0.00    +0.000 NA
ATOM      7  C   UNL     1       0.100   9.818  20.734  0.00  0.00    +0.000 A 
ATOM      8  N   UNL     1       0.383   8.563  21.160  0.00  0.00    +0.000 NA
ATOM      9  N   UNL     1       1.203   8.103  20.181  0.00  0.00    +0.000 N 
BRANCH   7  10
ATOM     10  C   UNL     1      -0.714  10.831  21.416  0.00  0.00    +0.000 A 
ATOM     11  C   UNL     1      -1.265  11.880  20.645  0.00  0.00    +0.000 A 
ATOM     12  C   UNL     1      -1.995  12.918  21.230  0.00  0.00    +0.000 A 
ATOM     13  C   UNL     1      -2.194  12.929  22.606  0.00  0.00    +0.000 A 
ATOM     14  C   UNL     1      -1.674  11.895  23.384  0.00  0.00    +0.000 A 
ATOM     15  C   UNL     1      -0.943  10.854  22.790  0.00  0.00    +0.000 A 
ATOM     16  F   UNL     1      -0.461   9.897  23.597  0.00  0.00    +0.000 F 
ENDBRANCH   7  10
ENDBRANCH   1   2
BRANCH   1  17
ATOM     17  C   UNL     1       1.282   4.484  20.183  0.00  0.00    +0.000 C 
BRANCH  17  18
ATOM     18  N   UNL     1       2.238   3.360  20.140  0.00  0.00    +0.000 NA
ATOM     19  H   UNL     1       3.030   3.375  20.782  0.00  0.00    +0.000 HD
BRANCH  18  20
ATOM     20  S   UNL     1       2.754   2.838  18.615  0.00  0.00    +0.000 S 
ATOM     21  O   UNL     1       1.662   3.134  17.712  0.00  0.00    +0.000 OA
ATOM     22  O   UNL     1       3.275   1.497  18.760  0.00  0.00    +0.000 OA
BRANCH  20  27
ATOM     23  C   UNL     1       7.366   6.560  17.264  0.00  0.00    +0.000 C 
ATOM     24  C   UNL     1       6.220   5.634  17.574  0.00  0.00    +0.000 A 
ATOM     25  C   UNL     1       6.012   5.220  18.901  0.00  0.00    +0.000 A 
ATOM     26  C   UNL     1       4.949   4.376  19.230  0.00  0.00    +0.000 A 
ATOM     27  C   UNL     1       4.081   3.946  18.228  0.00  0.00    +0.000 A 
ATOM     28  C   UNL     1       4.284   4.329  16.897  0.00  0.00    +0.000 A 
ATOM     29  C   UNL     1       5.354   5.175  16.560  0.00  0.00    +0.000 A 
ATOM     30  C   UNL     1       5.556   5.565  15.122  0.00  0.00    +0.000 C 
ENDBRANCH  20  27
ENDBRANCH  18  20
ENDBRANCH  17  18
ENDBRANCH   1  17
TORSDOF 6
ENDMDL
MODEL 3
REMARK VINA RESULT:      -8.3      3.248      4.770
REMARK  Name = 
REMARK  8 active torsions:
REMARK  status: ('A' for Active; 'I' for Inactive)
REMARK    1  A    between atoms: C_1  and  C_2
REMARK    2  A    between atoms: C_5  and  S_6
REMARK    3  A    between atoms: S_6  and  N_9
REMARK    4  A    between atoms: N_9  and  C_10
REMARK    5  A    between atoms: C_10  and  C_11
REMARK    6  A    between atoms: C_11  and  C_12
REMARK    7  A    between atoms: C_17  and  C_18
REMARK    8  A    between atoms: C_28  and  C_29
REMARK                            x       y       z     vdW  Elec       q    Type
REMARK                         _______ _______ _______ _____ _____    ______ ____
ROOT
ATOM      1  C   UNL     1       2.362   5.487  20.407  0.00  0.00    +0.000 C 
ENDROOT
BRANCH   1   2
ATOM      2  C   UNL     1       2.262   6.727  19.572  0.00  0.00    +0.000 A 
ATOM      3  C   UNL     1       2.820   6.862  18.348  0.00  0.00    +0.000 A 
ATOM      4  S   UNL     1       2.571   8.446  17.620  0.00  0.00    +0.000 S 
ATOM      5  C   UNL     1       1.699   8.905  19.038  0.00  0.00    +0.000 A 
ATOM      6  N   UNL     1       1.115   9.993  19.425  0.00  0.00    +0.000 NA
ATOM      7  C   UNL     1       0.660   9.642  20.689  0.00  0.00    +0.000 A 
ATOM      8  N   UNL     1       0.944   8.366  21.046  0.00  0.00    +0.000 NA
ATOM      9  N   UNL     1       1.625   7.907  19.965  0.00  0.00    +0.000 N 
BRANCH   7  10
ATOM     10  C   UNL     1      -0.030  10.661  21.488  0.00  0.00    +0.000 A 
ATOM     11  C   UNL     1       0.174  12.021  21.161  0.00  0.00    +0.000 A 
ATOM     12  C   UNL     1      -0.394  13.052  21.916  0.00  0.00    +0.000 A 
ATOM     13  C   UNL     1      -1.186  12.744  23.015  0.00  0.00    +0.000 A 
ATOM     14  C   UNL     1      -1.415  11.409  23.345  0.00  0.00    +0.000 A 
ATOM     15  C   UNL     1      -0.842  10.378  22.583  0.00  0.00    +0.000 A 
ATOM     16  F   UNL     1      -1.094   9.115  22.962  0.00  0.00    +0.000 F 
ENDBRANCH   7  10
ENDBRANCH   1   2
BRANCH   1  17
ATOM     17  C   UNL     1       1.638   4.266  19.826  0.00  0.00    +0.000 C 
BRANCH  17  18
ATOM     18  N   UNL     1       2.533   3.093  19.855  0.00  0.00    +0.000 NA
ATOM     19  H   UNL     1       3.293   3.081  20.535  0.00  0.00    +0.000 HD
BRANCH  18  20
ATOM     20  S   UNL     1       3.095   2.507  18.370  0.00  0.00    +0.000 S 
ATOM     21  O   UNL     1       1.991   2.665  17.447  0.00  0.00    +0.000 OA
ATOM     22  O   UNL     1       3.707   1.219  18.605  0.00  0.00    +0.000 OA
BRANCH  20  27
ATOM     23  C   UNL     1       7.320   6.596  16.828  0.00  0.00    +0.000 C 
ATOM     24  C   UNL     1       6.280   5.586  17.234  0.00  0.00    +0.000 A 
ATOM     25  C   UNL     1       5.346   5.141  16.282  0.00  0.00    +0.000 A 
ATOM     26  C   UNL     1       4.379   4.192  16.617  0.00  0.00    +0.000 A 
ATOM     27  C   UNL     1       4.343   3.676  17.911  0.00  0.00    +0.000 A 
ATOM     28  C   UNL     1       5.250   4.123  18.880  0.00  0.00    +0.000 A 
ATOM     29  C   UNL     1       6.224   5.081  18.549  0.00  0.00    +0.000 A 
ATOM     30  C   UNL     1       7.180   5.550  19.610  0.00  0.00    +0.000 C 
ENDBRANCH  20  27
ENDBRANCH  18  20
ENDBRANCH  17  18
ENDBRANCH   1  17
TORSDOF 6
ENDMDL
MODEL 4
REMARK VINA RESULT:      -8.2      2.991      4.589
REMARK  Name = 
REMARK  8 active torsions:
REMARK  status: ('A' for Active; 'I' for Inactive)
REMARK    1  A    between atoms: C_1  and  C_2
REMARK    2  A    between atoms: C_5  and  S_6
REMARK    3  A    between atoms: S_6  and  N_9
REMARK    4  A    between atoms: N_9  and  C_10
REMARK    5  A    between atoms: C_10  and  C_11
REMARK    6  A    between atoms: C_11  and  C_12
REMARK    7  A    between atoms: C_17  and  C_18
REMARK    8  A    between atoms: C_28  and  C_29
REMARK                            x       y       z     vdW  Elec       q    Type
REMARK                         _______ _______ _______ _____ _____    ______ ____
ROOT
ATOM      1  C   UNL     1       1.999   5.492  20.661  0.00  0.00    +0.000 C 
ENDROOT
BRANCH   1   2
ATOM      2  C   UNL     1       2.042   6.715  19.795  0.00  0.00    +0.000 A 
ATOM      3  C   UNL     1       2.805   6.831  18.687  0.00  0.00    +0.000 A 
ATOM      4  S   UNL     1       2.680   8.398  17.893  0.00  0.00    +0.000 S 
ATOM      5  C   UNL     1       1.570   8.877  19.126  0.00  0.00    +0.000 A 
ATOM      6  N   UNL     1       0.921   9.967  19.382  0.00  0.00    +0.000 NA
ATOM      7  C   UNL     1       0.252   9.636  20.553  0.00  0.00    +0.000 A 
ATOM      8  N   UNL     1       0.476   8.370  20.981  0.00  0.00    +0.000 NA
ATOM      9  N   UNL     1       1.339   7.897  20.047  0.00  0.00    +0.000 N 
BRANCH   7  10
ATOM     10  C   UNL     1      -0.573  10.665  21.197  0.00  0.00    +0.000 A 
ATOM     11  C   UNL     1      -0.668  10.663  22.608  0.00  0.00    +0.000 A 
ATOM     12  C   UNL     1      -1.486  11.567  23.291  0.00  0.00    +0.000 A 
ATOM     13  C   UNL     1      -2.226  12.501  22.576  0.00  0.00    +0.000 A 
ATOM     14  C   UNL     1      -2.134  12.532  21.185  0.00  0.00    +0.000 A 
ATOM     15  C   UNL     1      -1.310  11.622  20.504  0.00  0.00    +0.000 A 
ATOM     16  F   UNL     1      -1.276  11.699  19.165  0.00  0.00    +0.000 F 
ENDBRANCH   7  10
ENDBRANCH   1   2
BRANCH   1  17
ATOM     17  C   UNL     1       1.384   4.257  19.991  0.00  0.00    +0.000 C 
BRANCH  17  18
ATOM     18  N   UNL     1       2.347   3.139  20.020  0.00  0.00    +0.000 NA
ATOM     19  H   UNL     1       3.101   3.169  20.707  0.00  0.00    +0.000 HD
BRANCH  18  20
ATOM     20  S   UNL     1       2.954   2.598  18.537  0.00  0.00    +0.000 S 
ATOM     21  O   UNL     1       1.886   2.803  17.581  0.00  0.00    +0.000 OA
ATOM     22  O   UNL     1       3.541   1.293  18.748  0.00  0.00    +0.000 OA
BRANCH  20  27
ATOM     23  C   UNL     1       7.407   6.525  17.235  0.00  0.00    +0.000 C 
ATOM     24  C   UNL     1       6.300   5.549  17.533  0.00  0.00    +0.000 A 
ATOM     25  C   UNL     1       6.114   5.103  18.853  0.00  0.00    +0.000 A 
ATOM     26  C   UNL     1       5.088   4.213  19.170  0.00  0.00    +0.000 A 
ATOM     27  C   UNL     1       4.233   3.764  18.164  0.00  0.00    +0.000 A 
ATOM     28  C   UNL     1       4.415   4.179  16.840  0.00  0.00    +0.000 A 
ATOM     29  C   UNL     1       5.450   5.073  16.514  0.00  0.00    +0.000 A 
ATOM     30  C   UNL     1       5.630   5.496  15.082  0.00  0.00    +0.000 C 
ENDBRANCH  20  27
ENDBRANCH  18  20
ENDBRANCH  17  18
ENDBRANCH   1  17
TORSDOF 6
ENDMDL
MODEL 5
REMARK VINA RESULT:      -8.1      2.868      7.739
REMARK  Name = 
REMARK  8 active torsions:
REMARK  status: ('A' for Active; 'I' for Inactive)
REMARK    1  A    between atoms: C_1  and  C_2
REMARK    2  A    between atoms: C_5  and  S_6
REMARK    3  A    between atoms: S_6  and  N_9
REMARK    4  A    between atoms: N_9  and  C_10
REMARK    5  A    between atoms: C_10  and  C_11
REMARK    6  A    between atoms: C_11  and  C_12
REMARK    7  A    between atoms: C_17  and  C_18
REMARK    8  A    between atoms: C_28  and  C_29
REMARK                            x       y       z     vdW  Elec       q    Type
REMARK                         _______ _______ _______ _____ _____    ______ ____
ROOT
ATOM      1  C   UNL     1       4.662   3.996  19.456  0.00  0.00    +0.000 C 
ENDROOT
BRANCH   1   2
ATOM      2  C   UNL     1       5.808   4.744  18.844  0.00  0.00    +0.000 A 
ATOM      3  C   UNL     1       6.622   5.576  19.531  0.00  0.00    +0.000 A 
ATOM      4  S   UNL     1       7.856   6.347  18.542  0.00  0.00    +0.000 S 
ATOM      5  C   UNL     1       7.215   5.507  17.175  0.00  0.00    +0.000 A 
ATOM      6  N   UNL     1       7.509   5.476  15.916  0.00  0.00    +0.000 NA
ATOM      7  C   UNL     1       6.545   4.610  15.416  0.00  0.00    +0.000 A 
ATOM      8  N   UNL     1       5.704   4.114  16.357  0.00  0.00    +0.000 NA
ATOM      9  N   UNL     1       6.150   4.714  17.490  0.00  0.00    +0.000 N 
BRANCH   7  10
ATOM     10  C   UNL     1       6.520   4.355  13.971  0.00  0.00    +0.000 A 
ATOM     11  C   UNL     1       5.522   3.496  13.458  0.00  0.00    +0.000 A 
ATOM     12  C   UNL     1       5.473   3.151  12.105  0.00  0.00    +0.000 A 
ATOM     13  C   UNL     1       6.423   3.664  11.229  0.00  0.00    +0.000 A 
ATOM     14  C   UNL     1       7.406   4.527  11.711  0.00  0.00    +0.000 A 
ATOM     15  C   UNL     1       7.450   4.870  13.071  0.00  0.00    +0.000 A 
ATOM     16  F   UNL     1       8.429   5.697  13.471  0.00  0.00    +0.000 F 
ENDBRANCH   7  10
ENDBRANCH   1   2
BRANCH   1  17
ATOM     17  C   UNL     1       4.481   2.566  18.931  0.00  0.00    +0.000 C 
BRANCH  17  18
ATOM     18  N   UNL     1       3.077   2.145  19.099  0.00  0.00    +0.000 NA
ATOM     19  H   UNL     1       2.871   1.146  19.117  0.00  0.00    +0.000 HD
BRANCH  18  20
ATOM     20  S   UNL     1       1.909   2.947  18.174  0.00  0.00    +0.000 S 
ATOM     21  O   UNL     1       0.661   2.264  18.445  0.00  0.00    +0.000 OA
ATOM     22  O   UNL     1       2.423   3.077  16.829  0.00  0.00    +0.000 OA
BRANCH  20  27
ATOM     23  C   UNL     1       1.686   8.433  20.780  0.00  0.00    +0.000 C 
ATOM     24  C   UNL     1       1.753   7.084  20.115  0.00  0.00    +0.000 A 
ATOM     25  C   UNL     1       1.394   5.939  20.847  0.00  0.00    +0.000 A 
ATOM     26  C   UNL     1       1.427   4.674  20.259  0.00  0.00    +0.000 A 
ATOM     27  C   UNL     1       1.815   4.547  18.926  0.00  0.00    +0.000 A 
ATOM     28  C   UNL     1       2.198   5.673  18.186  0.00  0.00    +0.000 A 
ATOM     29  C   UNL     1       2.171   6.948  18.775  0.00  0.00    +0.000 A 
ATOM     30  C   UNL     1       2.595   8.140  17.962  0.00  0.00    +0.000 C 
ENDBRANCH  20  27
ENDBRANCH  18  20
ENDBRANCH  17  18
ENDBRANCH   1  17
TORSDOF 6
ENDMDL
MODEL 6
REMARK VINA RESULT:      -8.0      3.610      8.195
REMARK  Name = 
REMARK  8 active torsions:
REMARK  status: ('A' for Active; 'I' for Inactive)
REMARK    1  A    between atoms: C_1  and  C_2
REMARK    2  A    between atoms: C_5  and  S_6
REMARK    3  A    between atoms: S_6  and  N_9
REMARK    4  A    between atoms: N_9  and  C_10
REMARK    5  A    between atoms: C_10  and  C_11
REMARK    6  A    between atoms: C_11  and  C_12
REMARK    7  A    between atoms: C_17  and  C_18
REMARK    8  A    between atoms: C_28  and  C_29
REMARK                            x       y       z     vdW  Elec       q    Type
REMARK                         _______ _______ _______ _____ _____    ______ ____
ROOT
ATOM      1  C   UNL     1       1.638   6.729  20.869  0.00  0.00    +0.000 C 
ENDROOT
BRANCH   1   2
ATOM      2  C   UNL     1       1.724   5.397  20.188  0.00  0.00    +0.000 A 
ATOM      3  C   UNL     1       0.983   4.321  20.534  0.00  0.00    +0.000 A 
ATOM      4  S   UNL     1       1.327   2.880  19.583  0.00  0.00    +0.000 S 
ATOM      5  C   UNL     1       2.510   3.795  18.718  0.00  0.00    +0.000 A 
ATOM      6  N   UNL     1       3.340   3.522  17.764  0.00  0.00    +0.000 NA
ATOM      7  C   UNL     1       4.003   4.732  17.605  0.00  0.00    +0.000 A 
ATOM      8  N   UNL     1       3.567   5.716  18.428  0.00  0.00    +0.000 NA
ATOM      9  N   UNL     1       2.604   5.086  19.148  0.00  0.00    +0.000 N 
BRANCH   7  10
ATOM     10  C   UNL     1       5.087   4.807  16.618  0.00  0.00    +0.000 A 
ATOM     11  C   UNL     1       4.859   4.272  15.329  0.00  0.00    +0.000 A 
ATOM     12  C   UNL     1       5.862   4.244  14.356  0.00  0.00    +0.000 A 
ATOM     13  C   UNL     1       7.119   4.759  14.650  0.00  0.00    +0.000 A 
ATOM     14  C   UNL     1       7.360   5.309  15.909  0.00  0.00    +0.000 A 
ATOM     15  C   UNL     1       6.349   5.334  16.882  0.00  0.00    +0.000 A 
ATOM     16  F   UNL     1       6.651   5.867  18.075  0.00  0.00    +0.000 F 
ENDBRANCH   7  10
ENDBRANCH   1   2
BRANCH   1  17
ATOM     17  C   UNL     1       1.819   7.935  19.938  0.00  0.00    +0.000 C 
BRANCH  17  18
ATOM     18  N   UNL     1       0.756   8.927  20.190  0.00  0.00    +0.000 NA
ATOM     19  H   UNL     1      -0.214   8.611  20.168  0.00  0.00    +0.000 HD
BRANCH  18  20
ATOM     20  S   UNL     1       0.883  10.420  19.404  0.00  0.00    +0.000 S 
ATOM     21  O   UNL     1       1.738  10.185  18.259  0.00  0.00    +0.000 OA
ATOM     22  O   UNL     1       1.208  11.417  20.400  0.00  0.00    +0.000 OA
BRANCH  20  27
ATOM     23  C   UNL     1      -4.704  11.481  17.259  0.00  0.00    +0.000 C 
ATOM     24  C   UNL     1      -3.314  11.206  17.769  0.00  0.00    +0.000 A 
ATOM     25  C   UNL     1      -2.882  11.829  18.953  0.00  0.00    +0.000 A 
ATOM     26  C   UNL     1      -1.607  11.585  19.465  0.00  0.00    +0.000 A 
ATOM     27  C   UNL     1      -0.755  10.707  18.796  0.00  0.00    +0.000 A 
ATOM     28  C   UNL     1      -1.158  10.094  17.604  0.00  0.00    +0.000 A 
ATOM     29  C   UNL     1      -2.440  10.340  17.081  0.00  0.00    +0.000 A 
ATOM     30  C   UNL     1      -2.846   9.676  15.794  0.00  0.00    +0.000 C 
ENDBRANCH  20  27
ENDBRANCH  18  20
ENDBRANCH  17  18
ENDBRANCH   1  17
TORSDOF 6
ENDMDL
MODEL 7
REMARK VINA RESULT:      -7.8      5.183      8.150
REMARK  Name = 
REMARK  8 active torsions:
REMARK  status: ('A' for Active; 'I' for Inactive)
REMARK    1  A    between atoms: C_1  and  C_2
REMARK    2  A    between atoms: C_5  and  S_6
REMARK    3  A    between atoms: S_6  and  N_9
REMARK    4  A    between atoms: N_9  and  C_10
REMARK    5  A    between atoms: C_10  and  C_11
REMARK    6  A    between atoms: C_11  and  C_12
REMARK    7  A    between atoms: C_17  and  C_18
REMARK    8  A    between atoms: C_28  and  C_29
REMARK                            x       y       z     vdW  Elec       q    Type
REMARK                         _______ _______ _______ _____ _____    ______ ____
ROOT
ATOM      1  C   UNL     1       7.984   7.252  18.585  0.00  0.00    +0.000 C 
ENDROOT
BRANCH   1   2
ATOM      2  C   UNL     1       7.192   6.333  17.706  0.00  0.00    +0.000 A 
ATOM      3  C   UNL     1       7.447   6.135  16.394  0.00  0.00    +0.000 A 
ATOM      4  S   UNL     1       6.325   5.030  15.606  0.00  0.00    +0.000 S 
ATOM      5  C   UNL     1       5.506   4.865  17.118  0.00  0.00    +0.000 A 
ATOM      6  N   UNL     1       4.463   4.208  17.511  0.00  0.00    +0.000 NA
ATOM      7  C   UNL     1       4.373   4.583  18.846  0.00  0.00    +0.000 A 
ATOM      8  N   UNL     1       5.351   5.429  19.252  0.00  0.00    +0.000 NA
ATOM      9  N   UNL     1       6.071   5.606  18.114  0.00  0.00    +0.000 N 
BRANCH   7  10
ATOM     10  C   UNL     1       3.252   4.067  19.640  0.00  0.00    +0.000 A 
ATOM     11  C   UNL     1       3.535   3.179  20.703  0.00  0.00    +0.000 A 
ATOM     12  C   UNL     1       2.518   2.592  21.462  0.00  0.00    +0.000 A 
ATOM     13  C   UNL     1       1.190   2.885  21.176  0.00  0.00    +0.000 A 
ATOM     14  C   UNL     1       0.889   3.772  20.143  0.00  0.00    +0.000 A 
ATOM     15  C   UNL     1       1.914   4.359  19.385  0.00  0.00    +0.000 A 
ATOM     16  F   UNL     1       1.555   5.195  18.399  0.00  0.00    +0.000 F 
ENDBRANCH   7  10
ENDBRANCH   1   2
BRANCH   1  17
ATOM     17  C   UNL     1       8.175   8.667  18.023  0.00  0.00    +0.000 C 
BRANCH  17  18
ATOM     18  N   UNL     1       8.943   9.487  18.980  0.00  0.00    +0.000 NA
ATOM     19  H   UNL     1       8.625   9.524  19.949  0.00  0.00    +0.000 HD
BRANCH  18  20
ATOM     20  S   UNL     1       9.410  11.034  18.479  0.00  0.00    +0.000 S 
ATOM     21  O   UNL     1       8.368  11.482  17.578  0.00  0.00    +0.000 OA
ATOM     22  O   UNL     1      10.792  10.965  18.061  0.00  0.00    +0.000 OA
BRANCH  20  27
ATOM     23  C   UNL     1       8.895  14.370  23.533  0.00  0.00    +0.000 C 
ATOM     24  C   UNL     1       9.011  13.525  22.293  0.00  0.00    +0.000 A 
ATOM     25  C   UNL     1       9.433  14.122  21.092  0.00  0.00    +0.000 A 
ATOM     26  C   UNL     1       9.569  13.366  19.926  0.00  0.00    +0.000 A 
ATOM     27  C   UNL     1       9.288  12.001  19.957  0.00  0.00    +0.000 A 
ATOM     28  C   UNL     1       8.845  11.392  21.137  0.00  0.00    +0.000 A 
ATOM     29  C   UNL     1       8.703  12.149  22.313  0.00  0.00    +0.000 A 
ATOM     30  C   UNL     1       8.217  11.473  23.565  0.00  0.00    +0.000 C 
ENDBRANCH  20  27
ENDBRANCH  18  20
ENDBRANCH  17  18
ENDBRANCH   1  17
TORSDOF 6
ENDMDL
MODEL 8
REMARK VINA RESULT:      -7.8      5.561     10.221
REMARK  Name = 
REMARK  8 active torsions:
REMARK  status: ('A' for Active; 'I' for Inactive)
REMARK    1  A    between atoms: C_1  and  C_2
REMARK    2  A    between atoms: C_5  and  S_6
REMARK    3  A    between atoms: S_6  and  N_9
REMARK    4  A    between atoms: N_9  and  C_10
REMARK    5  A    between atoms: C_10  and  C_11
REMARK    6  A    between atoms: C_11  and  C_12
REMARK    7  A    between atoms: C_17  and  C_18
REMARK    8  A    between atoms: C_28  and  C_29
REMARK                            x       y       z     vdW  Elec       q    Type
REMARK                         _______ _______ _______ _____ _____    ______ ____
ROOT
ATOM      1  C   UNL     1       0.615  11.357  18.528  0.00  0.00    +0.000 C 
ENDROOT
BRANCH   1   2
ATOM      2  C   UNL     1       0.886  10.276  19.529  0.00  0.00    +0.000 A 
ATOM      3  C   UNL     1       0.643  10.392  20.853  0.00  0.00    +0.000 A 
ATOM      4  S   UNL     1       1.099   8.974  21.791  0.00  0.00    +0.000 S 
ATOM      5  C   UNL     1       1.635   8.238  20.323  0.00  0.00    +0.000 A 
ATOM      6  N   UNL     1       2.181   7.102  20.031  0.00  0.00    +0.000 NA
ATOM      7  C   UNL     1       2.370   7.218  18.660  0.00  0.00    +0.000 A 
ATOM      8  N   UNL     1       1.929   8.387  18.136  0.00  0.00    +0.000 NA
ATOM      9  N   UNL     1       1.463   9.038  19.232  0.00  0.00    +0.000 N 
BRANCH   7  10
ATOM     10  C   UNL     1       3.031   6.114  17.953  0.00  0.00    +0.000 A 
ATOM     11  C   UNL     1       2.383   4.859  17.912  0.00  0.00    +0.000 A 
ATOM     12  C   UNL     1       2.977   3.743  17.318  0.00  0.00    +0.000 A 
ATOM     13  C   UNL     1       4.237   3.859  16.744  0.00  0.00    +0.000 A 
ATOM     14  C   UNL     1       4.888   5.092  16.757  0.00  0.00    +0.000 A 
ATOM     15  C   UNL     1       4.286   6.210  17.355  0.00  0.00    +0.000 A 
ATOM     16  F   UNL     1       4.971   7.363  17.343  0.00  0.00    +0.000 F 
ENDBRANCH   7  10
ENDBRANCH   1   2
BRANCH   1  17
ATOM     17  C   UNL     1      -0.732  12.069  18.706  0.00  0.00    +0.000 C 
BRANCH  17  18
ATOM     18  N   UNL     1      -1.412  12.187  17.401  0.00  0.00    +0.000 NA
ATOM     19  H   UNL     1      -1.702  13.114  17.090  0.00  0.00    +0.000 HD
BRANCH  18  20
ATOM     20  S   UNL     1      -2.633  11.068  17.056  0.00  0.00    +0.000 S 
ATOM     21  O   UNL     1      -2.274   9.866  17.779  0.00  0.00    +0.000 OA
ATOM     22  O   UNL     1      -2.833  11.058  15.624  0.00  0.00    +0.000 OA
BRANCH  20  27
ATOM     23  C   UNL     1      -7.494  13.528  19.749  0.00  0.00    +0.000 C 
ATOM     24  C   UNL     1      -6.300  12.925  19.060  0.00  0.00    +0.000 A 
ATOM     25  C   UNL     1      -5.197  12.514  19.830  0.00  0.00    +0.000 A 
ATOM     26  C   UNL     1      -4.079  11.935  19.228  0.00  0.00    +0.000 A 
ATOM     27  C   UNL     1      -4.060  11.757  17.845  0.00  0.00    +0.000 A 
ATOM     28  C   UNL     1      -5.138  12.180  17.058  0.00  0.00    +0.000 A 
ATOM     29  C   UNL     1      -6.265  12.767  17.659  0.00  0.00    +0.000 A 
ATOM     30  C   UNL     1      -7.406  13.221  16.791  0.00  0.00    +0.000 C 
ENDBRANCH  20  27
ENDBRANCH  18  20
ENDBRANCH  17  18
ENDBRANCH   1  17
TORSDOF 6
ENDMDL
MODEL 9
REMARK VINA RESULT:      -7.7      6.510      7.997
REMARK  Name = 
REMARK  8 active torsions:
REMARK  status: ('A' for Active; 'I' for Inactive)
REMARK    1  A    between atoms: C_1  and  C_2
REMARK    2  A    between atoms: C_5  and  S_6
REMARK    3  A    between atoms: S_6  and  N_9
REMARK    4  A    between atoms: N_9  and  C_10
REMARK    5  A    between atoms: C_10  and  C_11
REMARK    6  A    between atoms: C_11  and  C_12
REMARK    7  A    between atoms: C_17  and  C_18
REMARK    8  A    between atoms: C_28  and  C_29
REMARK                            x       y       z     vdW  Elec       q    Type
REMARK                         _______ _______ _______ _____ _____    ______ ____
ROOT
ATOM      1  C   UNL     1       8.830   9.253  18.879  0.00  0.00    +0.000 C 
ENDROOT
BRANCH   1   2
ATOM      2  C   UNL     1       9.351  10.658  18.930  0.00  0.00    +0.000 A 
ATOM      3  C   UNL     1      10.023  11.253  17.921  0.00  0.00    +0.000 A 
ATOM      4  S   UNL     1      10.547  12.895  18.281  0.00  0.00    +0.000 S 
ATOM      5  C   UNL     1       9.828  12.728  19.842  0.00  0.00    +0.000 A 
ATOM      6  N   UNL     1       9.734  13.497  20.879  0.00  0.00    +0.000 NA
ATOM      7  C   UNL     1       9.056  12.685  21.779  0.00  0.00    +0.000 A 
ATOM      8  N   UNL     1       8.731  11.464  21.289  0.00  0.00    +0.000 NA
ATOM      9  N   UNL     1       9.248  11.508  20.034  0.00  0.00    +0.000 N 
BRANCH   7  10
ATOM     10  C   UNL     1       8.798  13.204  23.127  0.00  0.00    +0.000 A 
ATOM     11  C   UNL     1       8.988  14.585  23.362  0.00  0.00    +0.000 A 
ATOM     12  C   UNL     1       8.829  15.144  24.633  0.00  0.00    +0.000 A 
ATOM     13  C   UNL     1       8.470  14.331  25.701  0.00  0.00    +0.000 A 
ATOM     14  C   UNL     1       8.260  12.969  25.489  0.00  0.00    +0.000 A 
ATOM     15  C   UNL     1       8.421  12.414  24.210  0.00  0.00    +0.000 A 
ATOM     16  F   UNL     1       8.214  11.095  24.077  0.00  0.00    +0.000 F 
ENDBRANCH   7  10
ENDBRANCH   1   2
BRANCH   1  17
ATOM     17  C   UNL     1       8.161   8.868  17.553  0.00  0.00    +0.000 C 
BRANCH  17  18
ATOM     18  N   UNL     1       6.987   8.013  17.815  0.00  0.00    +0.000 NA
ATOM     19  H   UNL     1       6.485   8.138  18.694  0.00  0.00    +0.000 HD
BRANCH  18  20
ATOM     20  S   UNL     1       7.137   6.362  17.478  0.00  0.00    +0.000 S 
ATOM     21  O   UNL     1       7.905   5.810  18.574  0.00  0.00    +0.000 OA
ATOM     22  O   UNL     1       7.574   6.229  16.105  0.00  0.00    +0.000 OA
BRANCH  20  27
ATOM     23  C   UNL     1       1.444   4.276  17.898  0.00  0.00    +0.000 C 
ATOM     24  C   UNL     1       2.862   4.769  17.790  0.00  0.00    +0.000 A 
ATOM     25  C   UNL     1       3.105   6.152  17.721  0.00  0.00    +0.000 A 
ATOM     26  C   UNL     1       4.407   6.647  17.638  0.00  0.00    +0.000 A 
ATOM     27  C   UNL     1       5.480   5.757  17.630  0.00  0.00    +0.000 A 
ATOM     28  C   UNL     1       5.259   4.376  17.676  0.00  0.00    +0.000 A 
ATOM     29  C   UNL     1       3.949   3.872  17.756  0.00  0.00    +0.000 A 
ATOM     30  C   UNL     1       3.738   2.383  17.795  0.00  0.00    +0.000 C 
ENDBRANCH  20  27
ENDBRANCH  18  20
ENDBRANCH  17  18
ENDBRANCH   1  17
TORSDOF 6
ENDMDL
