MODEL 1
REMARK VINA RESULT:      -8.2      0.000      0.000
REMARK  Name = 
REMARK  7 active torsions:
REMARK  status: ('A' for Active; 'I' for Inactive)
REMARK    1  A    between atoms: C_1  and  C_2
REMARK    2  A    between atoms: C_5  and  N_6
REMARK    3  A    between atoms: C_7  and  C_9
REMARK    4  A    between atoms: C_9  and  N_10
REMARK    5  A    between atoms: C_18  and  S_19
REMARK    6  A    between atoms: S_19  and  N_22
REMARK    7  A    between atoms: C_32  and  C_33
REMARK                            x       y       z     vdW  Elec       q    Type
REMARK                         _______ _______ _______ _____ _____    ______ ____
ROOT
ATOM      1  N   UNL     1       2.578   4.634  19.695  0.00  0.00    +0.000 N 
ATOM      2  C   UNL     1       1.328   4.094  19.938  0.00  0.00    +0.000 C 
ATOM      3  O   UNL     1       0.474   4.681  20.607  0.00  0.00    +0.000 OA
ATOM      4  C   UNL     1       1.027   2.769  19.252  0.00  0.00    +0.000 C 
ATOM      5  O   UNL     1       2.063   2.036  18.634  0.00  0.00    +0.000 OA
ATOM      6  C   UNL     1       3.083   2.813  18.160  0.00  0.00    +0.000 A 
ATOM      7  C   UNL     1       3.851   2.232  17.146  0.00  0.00    +0.000 A 
ATOM      8  C   UNL     1       4.924   2.926  16.595  0.00  0.00    +0.000 A 
ATOM      9  C   UNL     1       5.239   4.194  17.085  0.00  0.00    +0.000 A 
ATOM     10  C   UNL     1       4.518   4.747  18.155  0.00  0.00    +0.000 A 
ATOM     11  C   UNL     1       3.405   4.075  18.682  0.00  0.00    +0.000 A 
ENDROOT
BRANCH   9  12
ATOM     12  S   UNL     1       6.621   5.082  16.377  0.00  0.00    +0.000 S 
ATOM     13  O   UNL     1       6.311   6.498  16.451  0.00  0.00    +0.000 OA
ATOM     14  O   UNL     1       7.822   4.555  16.990  0.00  0.00    +0.000 OA
BRANCH  12  15
ATOM     15  N   UNL     1       6.593   4.602  14.731  0.00  0.00    +0.000 NA
ATOM     16  C   UNL     1       5.268   4.583  14.073  0.00  0.00    +0.000 C 
ATOM     17  C   UNL     1       5.117   3.395  13.124  0.00  0.00    +0.000 C 
ATOM     18  C   UNL     1       5.708   3.624  11.738  0.00  0.00    +0.000 C 
ATOM     19  C   UNL     1       7.213   3.847  11.740  0.00  0.00    +0.000 C 
ATOM     20  C   UNL     1       7.611   5.139  12.444  0.00  0.00    +0.000 C 
ATOM     21  C   UNL     1       7.794   4.990  13.948  0.00  0.00    +0.000 C 
ENDBRANCH  12  15
ENDBRANCH   9  12
BRANCH   1  22
ATOM     22  C   UNL     1       2.963   5.833  20.432  0.00  0.00    +0.000 C 
BRANCH  22  24
ATOM     23  N   UNL     1       1.597   7.790  21.014  0.00  0.00    +0.000 N 
ATOM     24  C   UNL     1       2.204   7.079  19.992  0.00  0.00    +0.000 C 
ATOM     25  O   UNL     1       2.175   7.362  18.795  0.00  0.00    +0.000 OA
ATOM     26  H   UNL     1       1.642   7.392  21.950  0.00  0.00    +0.000 HD
BRANCH  23  31
ATOM     27  C   UNL     1      -1.611  12.503  20.313  0.00  0.00    +0.000 C 
ATOM     28  C   UNL     1      -0.769  11.278  20.536  0.00  0.00    +0.000 A 
ATOM     29  C   UNL     1      -0.105  10.716  19.443  0.00  0.00    +0.000 A 
ATOM     30  C   UNL     1       0.684   9.580  19.596  0.00  0.00    +0.000 A 
ATOM     31  C   UNL     1       0.835   8.969  20.840  0.00  0.00    +0.000 A 
ATOM     32  C   UNL     1       0.201   9.544  21.950  0.00  0.00    +0.000 A 
ATOM     33  C   UNL     1      -0.620  10.685  21.805  0.00  0.00    +0.000 A 
ATOM     34  C   UNL     1      -1.342  11.248  23.001  0.00  0.00    +0.000 C 
ENDBRANCH  23  31
ENDBRANCH  22  24
ENDBRANCH   1  22
TORSDOF 5
ENDMDL
MODEL 2
REMARK VINA RESULT:      -8.2      5.198      9.720
REMARK  Name = 
REMARK  7 active torsions:
REMARK  status: ('A' for Active; 'I' for Inactive)
REMARK    1  A    between atoms: C_1  and  C_2
REMARK    2  A    between atoms: C_5  and  N_6
REMARK    3  A    between atoms: C_7  and  C_9
REMARK    4  A    between atoms: C_9  and  N_10
REMARK    5  A    between atoms: C_18  and  S_19
REMARK    6  A    between atoms: S_19  and  N_22
REMARK    7  A    between atoms: C_32  and  C_33
REMARK                            x       y       z     vdW  Elec       q    Type
REMARK                         _______ _______ _______ _____ _____    ______ ____
ROOT
ATOM      1  N   UNL     1       0.323  11.140  19.216  0.00  0.00    +0.000 N 
ATOM      2  C   UNL     1      -0.905  10.775  18.694  0.00  0.00    +0.000 C 
ATOM      3  O   UNL     1      -1.388   9.653  18.861  0.00  0.00    +0.000 OA
ATOM      4  C   UNL     1      -1.680  11.874  17.977  0.00  0.00    +0.000 C 
ATOM      5  O   UNL     1      -1.047  13.093  17.651  0.00  0.00    +0.000 OA
ATOM      6  C   UNL     1      -0.042  13.441  18.508  0.00  0.00    +0.000 A 
ATOM      7  C   UNL     1       0.268  14.804  18.540  0.00  0.00    +0.000 A 
ATOM      8  C   UNL     1       1.284  15.272  19.368  0.00  0.00    +0.000 A 
ATOM      9  C   UNL     1       2.005  14.364  20.144  0.00  0.00    +0.000 A 
ATOM     10  C   UNL     1       1.747  12.987  20.056  0.00  0.00    +0.000 A 
ATOM     11  C   UNL     1       0.693  12.512  19.262  0.00  0.00    +0.000 A 
ENDROOT
BRANCH   9  12
ATOM     12  S   UNL     1       3.311  14.968  21.205  0.00  0.00    +0.000 S 
ATOM     13  O   UNL     1       3.054  16.375  21.454  0.00  0.00    +0.000 OA
ATOM     14  O   UNL     1       3.433  14.033  22.303  0.00  0.00    +0.000 OA
BRANCH  12  15
ATOM     15  N   UNL     1       4.709  14.836  20.218  0.00  0.00    +0.000 NA
ATOM     16  C   UNL     1       4.647  15.500  18.898  0.00  0.00    +0.000 C 
ATOM     17  C   UNL     1       5.331  14.673  17.810  0.00  0.00    +0.000 C 
ATOM     18  C   UNL     1       6.842  14.860  17.739  0.00  0.00    +0.000 C 
ATOM     19  C   UNL     1       7.576  14.411  18.994  0.00  0.00    +0.000 C 
ATOM     20  C   UNL     1       7.232  15.266  20.208  0.00  0.00    +0.000 C 
ATOM     21  C   UNL     1       5.994  14.799  20.961  0.00  0.00    +0.000 C 
ENDBRANCH  12  15
ENDBRANCH   9  12
BRANCH   1  22
ATOM     22  C   UNL     1       1.159  10.094  19.795  0.00  0.00    +0.000 C 
BRANCH  22  24
ATOM     23  N   UNL     1       2.203   7.961  19.166  0.00  0.00    +0.000 N 
ATOM     24  C   UNL     1       1.861   9.237  18.748  0.00  0.00    +0.000 C 
ATOM     25  O   UNL     1       2.077   9.719  17.637  0.00  0.00    +0.000 OA
ATOM     26  H   UNL     1       2.030   7.727  20.141  0.00  0.00    +0.000 HD
BRANCH  23  31
ATOM     27  C   UNL     1       4.954   4.002  16.043  0.00  0.00    +0.000 C 
ATOM     28  C   UNL     1       4.201   5.015  16.860  0.00  0.00    +0.000 A 
ATOM     29  C   UNL     1       4.667   6.331  16.885  0.00  0.00    +0.000 A 
ATOM     30  C   UNL     1       4.008   7.306  17.629  0.00  0.00    +0.000 A 
ATOM     31  C   UNL     1       2.867   6.999  18.370  0.00  0.00    +0.000 A 
ATOM     32  C   UNL     1       2.372   5.688  18.324  0.00  0.00    +0.000 A 
ATOM     33  C   UNL     1       3.043   4.685  17.591  0.00  0.00    +0.000 A 
ATOM     34  C   UNL     1       2.528   3.269  17.608  0.00  0.00    +0.000 C 
ENDBRANCH  23  31
ENDBRANCH  22  24
ENDBRANCH   1  22
TORSDOF 5
ENDMDL
MODEL 3
REMARK VINA RESULT:      -8.1      7.579     11.767
REMARK  Name = 
REMARK  7 active torsions:
REMARK  status: ('A' for Active; 'I' for Inactive)
REMARK    1  A    between atoms: C_1  and  C_2
REMARK    2  A    between atoms: C_5  and  N_6
REMARK    3  A    between atoms: C_7  and  C_9
REMARK    4  A    between atoms: C_9  and  N_10
REMARK    5  A    between atoms: C_18  and  S_19
REMARK    6  A    between atoms: S_19  and  N_22
REMARK    7  A    between atoms: C_32  and  C_33
REMARK                            x       y       z     vdW  Elec       q    Type
REMARK                         _______ _______ _______ _____ _____    ______ ____
ROOT
ATOM      1  N   UNL     1       2.365  15.599  18.973  0.00  0.00    +0.000 N 
ATOM      2  C   UNL     1       2.351  16.921  18.566  0.00  0.00    +0.000 C 
ATOM      3  O   UNL     1       2.851  17.290  17.501  0.00  0.00    +0.000 OA
ATOM      4  C   UNL     1       1.597  17.890  19.468  0.00  0.00    +0.000 C 
ATOM      5  O   UNL     1       1.181  17.486  20.755  0.00  0.00    +0.000 OA
ATOM      6  C   UNL     1       0.928  16.147  20.860  0.00  0.00    +0.000 A 
ATOM      7  C   UNL     1       0.074  15.784  21.906  0.00  0.00    +0.000 A 
ATOM      8  C   UNL     1      -0.246  14.446  22.116  0.00  0.00    +0.000 A 
ATOM      9  C   UNL     1       0.317  13.473  21.290  0.00  0.00    +0.000 A 
ATOM     10  C   UNL     1       1.235  13.828  20.290  0.00  0.00    +0.000 A 
ATOM     11  C   UNL     1       1.523  15.178  20.039  0.00  0.00    +0.000 A 
ENDROOT
BRANCH   9  12
ATOM     12  S   UNL     1      -0.092  11.754  21.566  0.00  0.00    +0.000 S 
ATOM     13  O   UNL     1       1.134  10.988  21.437  0.00  0.00    +0.000 OA
ATOM     14  O   UNL     1      -0.877  11.694  22.782  0.00  0.00    +0.000 OA
BRANCH  12  15
ATOM     15  N   UNL     1      -1.113  11.377  20.240  0.00  0.00    +0.000 NA
ATOM     16  C   UNL     1      -1.866  12.505  19.648  0.00  0.00    +0.000 C 
ATOM     17  C   UNL     1      -3.281  12.096  19.241  0.00  0.00    +0.000 C 
ATOM     18  C   UNL     1      -3.370  11.429  17.873  0.00  0.00    +0.000 C 
ATOM     19  C   UNL     1      -2.614  10.112  17.781  0.00  0.00    +0.000 C 
ATOM     20  C   UNL     1      -1.108  10.292  17.921  0.00  0.00    +0.000 C 
ATOM     21  C   UNL     1      -0.617  10.286  19.362  0.00  0.00    +0.000 C 
ENDBRANCH  12  15
ENDBRANCH   9  12
BRANCH   1  22
ATOM     22  C   UNL     1       3.183  14.657  18.216  0.00  0.00    +0.000 C 
BRANCH  22  24
ATOM     23  N   UNL     1       5.552  14.513  17.580  0.00  0.00    +0.000 N 
ATOM     24  C   UNL     1       4.653  14.678  18.621  0.00  0.00    +0.000 C 
ATOM     25  O   UNL     1       4.938  14.828  19.808  0.00  0.00    +0.000 OA
ATOM     26  H   UNL     1       5.168  14.321  16.657  0.00  0.00    +0.000 HD
BRANCH  23  31
ATOM     27  C   UNL     1      11.279  14.456  18.026  0.00  0.00    +0.000 C 
ATOM     28  C   UNL     1       9.779  14.508  17.926  0.00  0.00    +0.000 A 
ATOM     29  C   UNL     1       9.078  13.308  17.787  0.00  0.00    +0.000 A 
ATOM     30  C   UNL     1       7.690  13.302  17.687  0.00  0.00    +0.000 A 
ATOM     31  C   UNL     1       6.959  14.489  17.720  0.00  0.00    +0.000 A 
ATOM     32  C   UNL     1       7.651  15.696  17.893  0.00  0.00    +0.000 A 
ATOM     33  C   UNL     1       9.061  15.719  17.975  0.00  0.00    +0.000 A 
ATOM     34  C   UNL     1       9.786  17.033  18.096  0.00  0.00    +0.000 C 
ENDBRANCH  23  31
ENDBRANCH  22  24
ENDBRANCH   1  22
TORSDOF 5
ENDMDL
MODEL 4
REMARK VINA RESULT:      -8.1      5.856     10.894
REMARK  Name = 
REMARK  7 active torsions:
REMARK  status: ('A' for Active; 'I' for Inactive)
REMARK    1  A    between atoms: C_1  and  C_2
REMARK    2  A    between atoms: C_5  and  N_6
REMARK    3  A    between atoms: C_7  and  C_9
REMARK    4  A    between atoms: C_9  and  N_10
REMARK    5  A    between atoms: C_18  and  S_19
REMARK    6  A    between atoms: S_19  and  N_22
REMARK    7  A    between atoms: C_32  and  C_33
REMARK                            x       y       z     vdW  Elec       q    Type
REMARK                         _______ _______ _______ _____ _____    ______ ____
ROOT
ATOM      1  N   UNL     1      -0.972  13.905  20.781  0.00  0.00    +0.000 N 
ATOM      2  C   UNL     1      -0.313  14.846  21.551  0.00  0.00    +0.000 C 
ATOM      3  O   UNL     1       0.790  15.301  21.238  0.00  0.00    +0.000 OA
ATOM      4  C   UNL     1      -1.069  15.364  22.768  0.00  0.00    +0.000 C 
ATOM      5  O   UNL     1      -2.245  14.715  23.203  0.00  0.00    +0.000 OA
ATOM      6  C   UNL     1      -2.941  14.101  22.200  0.00  0.00    +0.000 A 
ATOM      7  C   UNL     1      -4.298  13.889  22.462  0.00  0.00    +0.000 A 
ATOM      8  C   UNL     1      -5.104  13.260  21.516  0.00  0.00    +0.000 A 
ATOM      9  C   UNL     1      -4.536  12.822  20.320  0.00  0.00    +0.000 A 
ATOM     10  C   UNL     1      -3.159  12.965  20.087  0.00  0.00    +0.000 A 
ATOM     11  C   UNL     1      -2.351  13.642  21.013  0.00  0.00    +0.000 A 
ENDROOT
BRANCH   9  12
ATOM     12  S   UNL     1      -5.573  12.012  19.109  0.00  0.00    +0.000 S 
ATOM     13  O   UNL     1      -6.235  10.905  19.774  0.00  0.00    +0.000 OA
ATOM     14  O   UNL     1      -6.344  13.046  18.450  0.00  0.00    +0.000 OA
BRANCH  12  15
ATOM     15  N   UNL     1      -4.442  11.377  17.987  0.00  0.00    +0.000 NA
ATOM     16  C   UNL     1      -3.898  10.035  18.289  0.00  0.00    +0.000 C 
ATOM     17  C   UNL     1      -2.414   9.928  17.941  0.00  0.00    +0.000 C 
ATOM     18  C   UNL     1      -2.137   9.618  16.475  0.00  0.00    +0.000 C 
ATOM     19  C   UNL     1      -2.616  10.698  15.517  0.00  0.00    +0.000 C 
ATOM     20  C   UNL     1      -4.133  10.837  15.504  0.00  0.00    +0.000 C 
ATOM     21  C   UNL     1      -4.676  11.773  16.574  0.00  0.00    +0.000 C 
ENDBRANCH  12  15
ENDBRANCH   9  12
BRANCH   1  22
ATOM     22  C   UNL     1      -0.241  13.282  19.684  0.00  0.00    +0.000 C 
BRANCH  22  24
ATOM     23  N   UNL     1       0.457  10.978  19.192  0.00  0.00    +0.000 N 
ATOM     24  C   UNL     1       0.511  12.023  20.100  0.00  0.00    +0.000 C 
ATOM     25  O   UNL     1       1.092  12.012  21.184  0.00  0.00    +0.000 OA
ATOM     26  H   UNL     1      -0.128  11.104  18.369  0.00  0.00    +0.000 HD
BRANCH  23  31
ATOM     27  C   UNL     1       2.855   5.799  19.840  0.00  0.00    +0.000 C 
ATOM     28  C   UNL     1       2.255   7.163  19.642  0.00  0.00    +0.000 A 
ATOM     29  C   UNL     1       1.464   7.698  20.661  0.00  0.00    +0.000 A 
ATOM     30  C   UNL     1       0.882   8.955  20.525  0.00  0.00    +0.000 A 
ATOM     31  C   UNL     1       1.070   9.716  19.371  0.00  0.00    +0.000 A 
ATOM     32  C   UNL     1       1.890   9.202  18.357  0.00  0.00    +0.000 A 
ATOM     33  C   UNL     1       2.469   7.919  18.472  0.00  0.00    +0.000 A 
ATOM     34  C   UNL     1       3.294   7.362  17.343  0.00  0.00    +0.000 C 
ENDBRANCH  23  31
ENDBRANCH  22  24
ENDBRANCH   1  22
TORSDOF 5
ENDMDL
MODEL 5
REMARK VINA RESULT:      -8.0      4.920     10.145
REMARK  Name = 
REMARK  7 active torsions:
REMARK  status: ('A' for Active; 'I' for Inactive)
REMARK    1  A    between atoms: C_1  and  C_2
REMARK    2  A    between atoms: C_5  and  N_6
REMARK    3  A    between atoms: C_7  and  C_9
REMARK    4  A    between atoms: C_9  and  N_10
REMARK    5  A    between atoms: C_18  and  S_19
REMARK    6  A    between atoms: S_19  and  N_22
REMARK    7  A    between atoms: C_32  and  C_33
REMARK                            x       y       z     vdW  Elec       q    Type
REMARK                         _______ _______ _______ _____ _____    ______ ____
ROOT
ATOM      1  N   UNL     1       0.059  11.335  21.684  0.00  0.00    +0.000 N 
ATOM      2  C   UNL     1      -1.039  11.123  22.497  0.00  0.00    +0.000 C 
ATOM      3  O   UNL     1      -1.044  10.274  23.392  0.00  0.00    +0.000 OA
ATOM      4  C   UNL     1      -2.218  12.065  22.289  0.00  0.00    +0.000 C 
ATOM      5  O   UNL     1      -2.262  12.911  21.160  0.00  0.00    +0.000 OA
ATOM      6  C   UNL     1      -1.030  13.276  20.695  0.00  0.00    +0.000 A 
ATOM      7  C   UNL     1      -1.004  14.451  19.938  0.00  0.00    +0.000 A 
ATOM      8  C   UNL     1       0.195  14.913  19.402  0.00  0.00    +0.000 A 
ATOM      9  C   UNL     1       1.362  14.177  19.606  0.00  0.00    +0.000 A 
ATOM     10  C   UNL     1       1.325  12.957  20.299  0.00  0.00    +0.000 A 
ATOM     11  C   UNL     1       0.131  12.510  20.885  0.00  0.00    +0.000 A 
ENDROOT
BRANCH   9  12
ATOM     12  S   UNL     1       2.899  14.772  18.914  0.00  0.00    +0.000 S 
ATOM     13  O   UNL     1       3.539  13.651  18.250  0.00  0.00    +0.000 OA
ATOM     14  O   UNL     1       2.596  15.987  18.186  0.00  0.00    +0.000 OA
BRANCH  12  15
ATOM     15  N   UNL     1       3.820  15.183  20.301  0.00  0.00    +0.000 NA
ATOM     16  C   UNL     1       5.287  15.254  20.120  0.00  0.00    +0.000 C 
ATOM     17  C   UNL     1       6.040  14.696  21.326  0.00  0.00    +0.000 C 
ATOM     18  C   UNL     1       6.218  15.690  22.467  0.00  0.00    +0.000 C 
ATOM     19  C   UNL     1       4.908  16.151  23.090  0.00  0.00    +0.000 C 
ATOM     20  C   UNL     1       4.057  16.965  22.123  0.00  0.00    +0.000 C 
ATOM     21  C   UNL     1       3.151  16.121  21.238  0.00  0.00    +0.000 C 
ENDBRANCH  12  15
ENDBRANCH   9  12
BRANCH   1  22
ATOM     22  C   UNL     1       1.159  10.379  21.752  0.00  0.00    +0.000 C 
BRANCH  22  24
ATOM     23  N   UNL     1       1.864   8.161  20.965  0.00  0.00    +0.000 N 
ATOM     24  C   UNL     1       1.037   9.249  20.737  0.00  0.00    +0.000 C 
ATOM     25  O   UNL     1       0.242   9.373  19.806  0.00  0.00    +0.000 OA
ATOM     26  H   UNL     1       2.527   8.233  21.734  0.00  0.00    +0.000 HD
BRANCH  23  31
ATOM     27  C   UNL     1       2.231   3.432  17.725  0.00  0.00    +0.000 C 
ATOM     28  C   UNL     1       2.108   4.652  18.596  0.00  0.00    +0.000 A 
ATOM     29  C   UNL     1       2.522   5.883  18.083  0.00  0.00    +0.000 A 
ATOM     30  C   UNL     1       2.431   7.041  18.851  0.00  0.00    +0.000 A 
ATOM     31  C   UNL     1       1.928   7.007  20.151  0.00  0.00    +0.000 A 
ATOM     32  C   UNL     1       1.479   5.782  20.663  0.00  0.00    +0.000 A 
ATOM     33  C   UNL     1       1.584   4.596  19.903  0.00  0.00    +0.000 A 
ATOM     34  C   UNL     1       1.154   3.281  20.498  0.00  0.00    +0.000 C 
ENDBRANCH  23  31
ENDBRANCH  22  24
ENDBRANCH   1  22
TORSDOF 5
ENDMDL
MODEL 6
REMARK VINA RESULT:      -8.0      5.099     12.042
REMARK  Name = 
REMARK  7 active torsions:
REMARK  status: ('A' for Active; 'I' for Inactive)
REMARK    1  A    between atoms: C_1  and  C_2
REMARK    2  A    between atoms: C_5  and  N_6
REMARK    3  A    between atoms: C_7  and  C_9
REMARK    4  A    between atoms: C_9  and  N_10
REMARK    5  A    between atoms: C_18  and  S_19
REMARK    6  A    between atoms: S_19  and  N_22
REMARK    7  A    between atoms: C_32  and  C_33
REMARK                            x       y       z     vdW  Elec       q    Type
REMARK                         _______ _______ _______ _____ _____    ______ ____
ROOT
ATOM      1  N   UNL     1       0.580  11.784  20.552  0.00  0.00    +0.000 N 
ATOM      2  C   UNL     1       1.206  11.886  19.323  0.00  0.00    +0.000 C 
ATOM      3  O   UNL     1       1.872  10.965  18.842  0.00  0.00    +0.000 OA
ATOM      4  C   UNL     1       0.950  13.171  18.546  0.00  0.00    +0.000 C 
ATOM      5  O   UNL     1       0.332  14.272  19.176  0.00  0.00    +0.000 OA
ATOM      6  C   UNL     1      -0.523  13.923  20.184  0.00  0.00    +0.000 A 
ATOM      7  C   UNL     1      -1.498  14.877  20.492  0.00  0.00    +0.000 A 
ATOM      8  C   UNL     1      -2.417  14.635  21.510  0.00  0.00    +0.000 A 
ATOM      9  C   UNL     1      -2.335  13.445  22.233  0.00  0.00    +0.000 A 
ATOM     10  C   UNL     1      -1.310  12.521  21.977  0.00  0.00    +0.000 A 
ATOM     11  C   UNL     1      -0.412  12.735  20.921  0.00  0.00    +0.000 A 
ENDROOT
BRANCH   9  12
ATOM     12  S   UNL     1      -3.514  13.140  23.543  0.00  0.00    +0.000 S 
ATOM     13  O   UNL     1      -3.448  11.727  23.867  0.00  0.00    +0.000 OA
ATOM     14  O   UNL     1      -3.288  14.144  24.561  0.00  0.00    +0.000 OA
BRANCH  12  15
ATOM     15  N   UNL     1      -5.024  13.456  22.792  0.00  0.00    +0.000 NA
ATOM     16  C   UNL     1      -5.408  12.556  21.682  0.00  0.00    +0.000 C 
ATOM     17  C   UNL     1      -6.103  13.310  20.549  0.00  0.00    +0.000 C 
ATOM     18  C   UNL     1      -7.594  13.536  20.770  0.00  0.00    +0.000 C 
ATOM     19  C   UNL     1      -7.911  14.405  21.978  0.00  0.00    +0.000 C 
ATOM     20  C   UNL     1      -7.518  13.743  23.293  0.00  0.00    +0.000 C 
ATOM     21  C   UNL     1      -6.072  13.990  23.700  0.00  0.00    +0.000 C 
ENDBRANCH  12  15
ENDBRANCH   9  12
BRANCH   1  22
ATOM     22  C   UNL     1       0.898  10.634  21.391  0.00  0.00    +0.000 C 
BRANCH  22  24
ATOM     23  N   UNL     1       1.859   8.523  20.581  0.00  0.00    +0.000 N 
ATOM     24  C   UNL     1       0.716   9.300  20.676  0.00  0.00    +0.000 C 
ATOM     25  O   UNL     1      -0.396   9.011  20.238  0.00  0.00    +0.000 OA
ATOM     26  H   UNL     1       2.728   8.927  20.923  0.00  0.00    +0.000 HD
BRANCH  23  31
ATOM     27  C   UNL     1       2.252   3.356  18.102  0.00  0.00    +0.000 C 
ATOM     28  C   UNL     1       2.124   4.693  18.778  0.00  0.00    +0.000 A 
ATOM     29  C   UNL     1       2.460   5.841  18.056  0.00  0.00    +0.000 A 
ATOM     30  C   UNL     1       2.362   7.101  18.638  0.00  0.00    +0.000 A 
ATOM     31  C   UNL     1       1.929   7.257  19.954  0.00  0.00    +0.000 A 
ATOM     32  C   UNL     1       1.556   6.114  20.676  0.00  0.00    +0.000 A 
ATOM     33  C   UNL     1       1.671   4.827  20.105  0.00  0.00    +0.000 A 
ATOM     34  C   UNL     1       1.325   3.609  20.921  0.00  0.00    +0.000 C 
ENDBRANCH  23  31
ENDBRANCH  22  24
ENDBRANCH   1  22
TORSDOF 5
ENDMDL
MODEL 7
REMARK VINA RESULT:      -8.0      4.970     11.955
REMARK  Name = 
REMARK  7 active torsions:
REMARK  status: ('A' for Active; 'I' for Inactive)
REMARK    1  A    between atoms: C_1  and  C_2
REMARK    2  A    between atoms: C_5  and  N_6
REMARK    3  A    between atoms: C_7  and  C_9
REMARK    4  A    between atoms: C_9  and  N_10
REMARK    5  A    between atoms: C_18  and  S_19
REMARK    6  A    between atoms: S_19  and  N_22
REMARK    7  A    between atoms: C_32  and  C_33
REMARK                            x       y       z     vdW  Elec       q    Type
REMARK                         _______ _______ _______ _____ _____    ______ ____
ROOT
ATOM      1  N   UNL     1       0.523  11.943  20.225  0.00  0.00    +0.000 N 
ATOM      2  C   UNL     1       1.538  12.382  19.395  0.00  0.00    +0.000 C 
ATOM      3  O   UNL     1       1.846  11.790  18.358  0.00  0.00    +0.000 OA
ATOM      4  C   UNL     1       2.198  13.698  19.784  0.00  0.00    +0.000 C 
ATOM      5  O   UNL     1       1.953  14.269  21.051  0.00  0.00    +0.000 OA
ATOM      6  C   UNL     1       0.725  13.964  21.567  0.00  0.00    +0.000 A 
ATOM      7  C   UNL     1       0.245  14.859  22.529  0.00  0.00    +0.000 A 
ATOM      8  C   UNL     1      -0.991  14.642  23.131  0.00  0.00    +0.000 A 
ATOM      9  C   UNL     1      -1.730  13.512  22.784  0.00  0.00    +0.000 A 
ATOM     10  C   UNL     1      -1.216  12.572  21.877  0.00  0.00    +0.000 A 
ATOM     11  C   UNL     1       0.005  12.808  21.228  0.00  0.00    +0.000 A 
ENDROOT
BRANCH   9  12
ATOM     12  S   UNL     1      -3.316  13.235  23.563  0.00  0.00    +0.000 S 
ATOM     13  O   UNL     1      -3.458  11.805  23.764  0.00  0.00    +0.000 OA
ATOM     14  O   UNL     1      -3.406  14.151  24.681  0.00  0.00    +0.000 OA
BRANCH  12  15
ATOM     15  N   UNL     1      -4.434  13.731  22.361  0.00  0.00    +0.000 NA
ATOM     16  C   UNL     1      -5.008  12.661  21.515  0.00  0.00    +0.000 C 
ATOM     17  C   UNL     1      -5.160  13.103  20.060  0.00  0.00    +0.000 C 
ATOM     18  C   UNL     1      -6.431  13.894  19.776  0.00  0.00    +0.000 C 
ATOM     19  C   UNL     1      -6.513  15.216  20.525  0.00  0.00    +0.000 C 
ATOM     20  C   UNL     1      -6.617  15.027  22.033  0.00  0.00    +0.000 C 
ATOM     21  C   UNL     1      -5.271  14.900  22.733  0.00  0.00    +0.000 C 
ENDBRANCH  12  15
ENDBRANCH   9  12
BRANCH   1  22
ATOM     22  C   UNL     1      -0.050  10.625  19.971  0.00  0.00    +0.000 C 
BRANCH  22  24
ATOM     23  N   UNL     1       1.334   8.866  18.958  0.00  0.00    +0.000 N 
ATOM     24  C   UNL     1       0.955   9.491  20.135  0.00  0.00    +0.000 C 
ATOM     25  O   UNL     1       1.348   9.208  21.265  0.00  0.00    +0.000 OA
ATOM     26  H   UNL     1       0.866   9.158  18.103  0.00  0.00    +0.000 HD
BRANCH  23  31
ATOM     27  C   UNL     1       4.953   4.429  18.506  0.00  0.00    +0.000 C 
ATOM     28  C   UNL     1       4.030   5.611  18.600  0.00  0.00    +0.000 A 
ATOM     29  C   UNL     1       3.140   5.680  19.674  0.00  0.00    +0.000 A 
ATOM     30  C   UNL     1       2.263   6.752  19.805  0.00  0.00    +0.000 A 
ATOM     31  C   UNL     1       2.244   7.787  18.870  0.00  0.00    +0.000 A 
ATOM     32  C   UNL     1       3.156   7.745  17.807  0.00  0.00    +0.000 A 
ATOM     33  C   UNL     1       4.038   6.652  17.650  0.00  0.00    +0.000 A 
ATOM     34  C   UNL     1       4.965   6.598  16.465  0.00  0.00    +0.000 C 
ENDBRANCH  23  31
ENDBRANCH  22  24
ENDBRANCH   1  22
TORSDOF 5
ENDMDL
MODEL 8
REMARK VINA RESULT:      -7.9      4.834     11.989
REMARK  Name = 
REMARK  7 active torsions:
REMARK  status: ('A' for Active; 'I' for Inactive)
REMARK    1  A    between atoms: C_1  and  C_2
REMARK    2  A    between atoms: C_5  and  N_6
REMARK    3  A    between atoms: C_7  and  C_9
REMARK    4  A    between atoms: C_9  and  N_10
REMARK    5  A    between atoms: C_18  and  S_19
REMARK    6  A    between atoms: S_19  and  N_22
REMARK    7  A    between atoms: C_32  and  C_33
REMARK                            x       y       z     vdW  Elec       q    Type
REMARK                         _______ _______ _______ _____ _____    ______ ____
ROOT
ATOM      1  N   UNL     1      -0.464  10.731  19.087  0.00  0.00    +0.000 N 
ATOM      2  C   UNL     1      -0.603  10.120  17.854  0.00  0.00    +0.000 C 
ATOM      3  O   UNL     1       0.200   9.282  17.437  0.00  0.00    +0.000 OA
ATOM      4  C   UNL     1      -1.864  10.469  17.073  0.00  0.00    +0.000 C 
ATOM      5  O   UNL     1      -2.679  11.546  17.483  0.00  0.00    +0.000 OA
ATOM      6  C   UNL     1      -2.644  11.784  18.829  0.00  0.00    +0.000 A 
ATOM      7  C   UNL     1      -3.753  12.465  19.341  0.00  0.00    +0.000 A 
ATOM      8  C   UNL     1      -3.820  12.773  20.696  0.00  0.00    +0.000 A 
ATOM      9  C   UNL     1      -2.759  12.419  21.530  0.00  0.00    +0.000 A 
ATOM     10  C   UNL     1      -1.612  11.805  21.004  0.00  0.00    +0.000 A 
ATOM     11  C   UNL     1      -1.557  11.446  19.649  0.00  0.00    +0.000 A 
ENDROOT
BRANCH   9  12
ATOM     12  S   UNL     1      -2.848  12.820  23.270  0.00  0.00    +0.000 S 
ATOM     13  O   UNL     1      -3.115  11.587  23.988  0.00  0.00    +0.000 OA
ATOM     14  O   UNL     1      -1.680  13.618  23.582  0.00  0.00    +0.000 OA
BRANCH  12  15
ATOM     15  N   UNL     1      -4.236  13.822  23.371  0.00  0.00    +0.000 NA
ATOM     16  C   UNL     1      -5.437  13.221  23.994  0.00  0.00    +0.000 C 
ATOM     17  C   UNL     1      -6.722  13.646  23.284  0.00  0.00    +0.000 C 
ATOM     18  C   UNL     1      -7.267  14.996  23.733  0.00  0.00    +0.000 C 
ATOM     19  C   UNL     1      -6.336  16.164  23.441  0.00  0.00    +0.000 C 
ATOM     20  C   UNL     1      -5.041  16.092  24.240  0.00  0.00    +0.000 C 
ATOM     21  C   UNL     1      -3.950  15.265  23.573  0.00  0.00    +0.000 C 
ENDBRANCH  12  15
ENDBRANCH   9  12
BRANCH   1  22
ATOM     22  C   UNL     1       0.785  10.532  19.814  0.00  0.00    +0.000 C 
BRANCH  22  24
ATOM     23  N   UNL     1       1.861   8.338  19.560  0.00  0.00    +0.000 N 
ATOM     24  C   UNL     1       0.975   9.101  20.303  0.00  0.00    +0.000 C 
ATOM     25  O   UNL     1       0.345   8.726  21.291  0.00  0.00    +0.000 OA
ATOM     26  H   UNL     1       2.250   8.760  18.720  0.00  0.00    +0.000 HD
BRANCH  23  31
ATOM     27  C   UNL     1       3.123   2.814  20.507  0.00  0.00    +0.000 C 
ATOM     28  C   UNL     1       2.831   4.266  20.248  0.00  0.00    +0.000 A 
ATOM     29  C   UNL     1       1.711   4.840  20.854  0.00  0.00    +0.000 A 
ATOM     30  C   UNL     1       1.395   6.179  20.644  0.00  0.00    +0.000 A 
ATOM     31  C   UNL     1       2.183   6.986  19.823  0.00  0.00    +0.000 A 
ATOM     32  C   UNL     1       3.327   6.429  19.237  0.00  0.00    +0.000 A 
ATOM     33  C   UNL     1       3.648   5.066  19.425  0.00  0.00    +0.000 A 
ATOM     34  C   UNL     1       4.848   4.473  18.734  0.00  0.00    +0.000 C 
ENDBRANCH  23  31
ENDBRANCH  22  24
ENDBRANCH   1  22
TORSDOF 5
ENDMDL
MODEL 9
REMARK VINA RESULT:      -7.9      5.064     11.567
REMARK  Name = 
REMARK  7 active torsions:
REMARK  status: ('A' for Active; 'I' for Inactive)
REMARK    1  A    between atoms: C_1  and  C_2
REMARK    2  A    between atoms: C_5  and  N_6
REMARK    3  A    between atoms: C_7  and  C_9
REMARK    4  A    between atoms: C_9  and  N_10
REMARK    5  A    between atoms: C_18  and  S_19
REMARK    6  A    between atoms: S_19  and  N_22
REMARK    7  A    between atoms: C_32  and  C_33
REMARK                            x       y       z     vdW  Elec       q    Type
REMARK                         _______ _______ _______ _____ _____    ______ ____
ROOT
ATOM      1  N   UNL     1       0.728  11.888  20.339  0.00  0.00    +0.000 N 
ATOM      2  C   UNL     1       1.473  12.053  19.185  0.00  0.00    +0.000 C 
ATOM      3  O   UNL     1       2.208  11.168  18.741  0.00  0.00    +0.000 OA
ATOM      4  C   UNL     1       1.262  13.362  18.435  0.00  0.00    +0.000 C 
ATOM      5  O   UNL     1       0.554  14.423  19.040  0.00  0.00    +0.000 OA
ATOM      6  C   UNL     1      -0.389  14.014  19.940  0.00  0.00    +0.000 A 
ATOM      7  C   UNL     1      -1.415  14.932  20.183  0.00  0.00    +0.000 A 
ATOM      8  C   UNL     1      -2.426  14.629  21.092  0.00  0.00    +0.000 A 
ATOM      9  C   UNL     1      -2.387  13.413  21.774  0.00  0.00    +0.000 A 
ATOM     10  C   UNL     1      -1.316  12.524  21.590  0.00  0.00    +0.000 A 
ATOM     11  C   UNL     1      -0.321  12.800  20.640  0.00  0.00    +0.000 A 
ENDROOT
BRANCH   9  12
ATOM     12  S   UNL     1      -3.684  13.029  22.943  0.00  0.00    +0.000 S 
ATOM     13  O   UNL     1      -3.239  11.892  23.728  0.00  0.00    +0.000 OA
ATOM     14  O   UNL     1      -4.058  14.271  23.586  0.00  0.00    +0.000 OA
BRANCH  12  15
ATOM     15  N   UNL     1      -4.979  12.524  21.938  0.00  0.00    +0.000 NA
ATOM     16  C   UNL     1      -6.310  13.093  22.244  0.00  0.00    +0.000 C 
ATOM     17  C   UNL     1      -7.426  12.063  22.072  0.00  0.00    +0.000 C 
ATOM     18  C   UNL     1      -7.916  11.907  20.638  0.00  0.00    +0.000 C 
ATOM     19  C   UNL     1      -6.853  11.394  19.677  0.00  0.00    +0.000 C 
ATOM     20  C   UNL     1      -5.711  12.385  19.489  0.00  0.00    +0.000 C 
ATOM     21  C   UNL     1      -4.604  12.255  20.526  0.00  0.00    +0.000 C 
ENDBRANCH  12  15
ENDBRANCH   9  12
BRANCH   1  22
ATOM     22  C   UNL     1       0.990  10.712  21.162  0.00  0.00    +0.000 C 
BRANCH  22  24
ATOM     23  N   UNL     1       1.884   8.516  20.520  0.00  0.00    +0.000 N 
ATOM     24  C   UNL     1       0.823   9.399  20.406  0.00  0.00    +0.000 C 
ATOM     25  O   UNL     1      -0.207   9.216  19.759  0.00  0.00    +0.000 OA
ATOM     26  H   UNL     1       2.706   8.837  21.027  0.00  0.00    +0.000 HD
BRANCH  23  31
ATOM     27  C   UNL     1       2.275   3.339  18.062  0.00  0.00    +0.000 C 
ATOM     28  C   UNL     1       2.148   4.679  18.732  0.00  0.00    +0.000 A 
ATOM     29  C   UNL     1       2.465   5.825  18.000  0.00  0.00    +0.000 A 
ATOM     30  C   UNL     1       2.367   7.088  18.576  0.00  0.00    +0.000 A 
ATOM     31  C   UNL     1       1.953   7.248  19.898  0.00  0.00    +0.000 A 
ATOM     32  C   UNL     1       1.599   6.106  20.631  0.00  0.00    +0.000 A 
ATOM     33  C   UNL     1       1.714   4.817  20.066  0.00  0.00    +0.000 A 
ATOM     34  C   UNL     1       1.389   3.601  20.893  0.00  0.00    +0.000 C 
ENDBRANCH  23  31
ENDBRANCH  22  24
ENDBRANCH   1  22
TORSDOF 5
ENDMDL
