MODEL 1
REMARK VINA RESULT:      -6.5      0.000      0.000
REMARK  Name = 
REMARK  3 active torsions:
REMARK  status: ('A' for Active; 'I' for Inactive)
REMARK    1  A    between atoms: C_2  and  C_3
REMARK    2  A    between atoms: C_6  and  N_7
REMARK    3  A    between atoms: C_13  and  C_14
REMARK                            x       y       z     vdW  Elec       q    Type
REMARK                         _______ _______ _______ _____ _____    ______ ____
ROOT
ATOM      1  N   UNL     1       1.270   9.913  19.114  0.00  0.00    +0.000 N 
ATOM      2  C   UNL     1       0.001  10.183  18.715  0.00  0.00    +0.000 A 
ATOM      3  N   UNL     1      -0.567   9.697  17.635  0.00  0.00    +0.000 NA
ATOM      4  C   UNL     1      -1.810  10.262  17.440  0.00  0.00    +0.000 A 
ATOM      5  C   UNL     1      -2.636  10.057  16.317  0.00  0.00    +0.000 A 
ATOM      6  C   UNL     1      -3.870  10.709  16.234  0.00  0.00    +0.000 A 
ATOM      7  C   UNL     1      -4.317  11.514  17.284  0.00  0.00    +0.000 A 
ATOM      8  C   UNL     1      -3.516  11.719  18.418  0.00  0.00    +0.000 A 
ATOM      9  C   UNL     1      -2.248  11.114  18.452  0.00  0.00    +0.000 A 
ATOM     10  S   UNL     1      -0.987  11.271  19.617  0.00  0.00    +0.000 S 
ATOM     11  H   UNL     1       1.594  10.402  19.941  0.00  0.00    +0.000 HD
ENDROOT
BRANCH   1  15
ATOM     12  C   UNL     1       3.185   6.150  18.812  0.00  0.00    +0.000 A 
ATOM     13  C   UNL     1       3.290   7.092  17.783  0.00  0.00    +0.000 A 
ATOM     14  C   UNL     1       2.642   8.330  17.893  0.00  0.00    +0.000 A 
ATOM     15  C   UNL     1       1.858   8.633  19.012  0.00  0.00    +0.000 A 
ATOM     16  C   UNL     1       1.765   7.681  20.040  0.00  0.00    +0.000 A 
ATOM     17  C   UNL     1       2.424   6.453  19.944  0.00  0.00    +0.000 A 
BRANCH  12  19
ATOM     18  N   UNL     1       4.406   3.867  18.627  0.00  0.00    +0.000 NA
ATOM     19  C   UNL     1       3.858   4.886  18.710  0.00  0.00    +0.000 C 
ENDBRANCH  12  19
ENDBRANCH   1  15
BRANCH   7  20
ATOM     20  C   UNL     1      -5.597  12.150  17.185  0.00  0.00    +0.000 C 
ATOM     21  N   UNL     1      -6.632  12.671  17.111  0.00  0.00    +0.000 NA
ENDBRANCH   7  20
TORSDOF 3
ENDMDL
MODEL 2
REMARK VINA RESULT:      -6.5      0.224      1.100
REMARK  Name = 
REMARK  3 active torsions:
REMARK  status: ('A' for Active; 'I' for Inactive)
REMARK    1  A    between atoms: C_2  and  C_3
REMARK    2  A    between atoms: C_6  and  N_7
REMARK    3  A    between atoms: C_13  and  C_14
REMARK                            x       y       z     vdW  Elec       q    Type
REMARK                         _______ _______ _______ _____ _____    ______ ____
ROOT
ATOM      1  N   UNL     1       1.281   9.941  19.188  0.00  0.00    +0.000 N 
ATOM      2  C   UNL     1       0.017  10.208  18.771  0.00  0.00    +0.000 A 
ATOM      3  N   UNL     1      -0.537   9.714  17.687  0.00  0.00    +0.000 NA
ATOM      4  C   UNL     1      -1.777  10.277  17.473  0.00  0.00    +0.000 A 
ATOM      5  C   UNL     1      -2.588  10.065  16.340  0.00  0.00    +0.000 A 
ATOM      6  C   UNL     1      -3.822  10.715  16.237  0.00  0.00    +0.000 A 
ATOM      7  C   UNL     1      -4.283  11.526  17.276  0.00  0.00    +0.000 A 
ATOM      8  C   UNL     1      -3.497  11.739  18.419  0.00  0.00    +0.000 A 
ATOM      9  C   UNL     1      -2.229  11.135  18.473  0.00  0.00    +0.000 A 
ATOM     10  S   UNL     1      -0.983  11.300  19.653  0.00  0.00    +0.000 S 
ATOM     11  H   UNL     1       1.594  10.435  20.017  0.00  0.00    +0.000 HD
ENDROOT
BRANCH   1  15
ATOM     12  C   UNL     1       2.897   6.036  18.934  0.00  0.00    +0.000 A 
ATOM     13  C   UNL     1       2.234   6.464  20.090  0.00  0.00    +0.000 A 
ATOM     14  C   UNL     1       1.713   7.763  20.163  0.00  0.00    +0.000 A 
ATOM     15  C   UNL     1       1.871   8.661  19.101  0.00  0.00    +0.000 A 
ATOM     16  C   UNL     1       2.533   8.218  17.944  0.00  0.00    +0.000 A 
ATOM     17  C   UNL     1       3.039   6.918  17.859  0.00  0.00    +0.000 A 
BRANCH  12  19
ATOM     18  N   UNL     1       3.841   3.624  18.775  0.00  0.00    +0.000 NA
ATOM     19  C   UNL     1       3.421   4.703  18.849  0.00  0.00    +0.000 C 
ENDBRANCH  12  19
ENDBRANCH   1  15
BRANCH   7  20
ATOM     20  C   UNL     1      -5.562  12.161  17.157  0.00  0.00    +0.000 C 
ATOM     21  N   UNL     1      -6.597  12.677  17.054  0.00  0.00    +0.000 NA
ENDBRANCH   7  20
TORSDOF 3
ENDMDL
MODEL 3
REMARK VINA RESULT:      -6.4      3.802      4.757
REMARK  Name = 
REMARK  3 active torsions:
REMARK  status: ('A' for Active; 'I' for Inactive)
REMARK    1  A    between atoms: C_2  and  C_3
REMARK    2  A    between atoms: C_6  and  N_7
REMARK    3  A    between atoms: C_13  and  C_14
REMARK                            x       y       z     vdW  Elec       q    Type
REMARK                         _______ _______ _______ _____ _____    ______ ____
ROOT
ATOM      1  N   UNL     1       2.340   7.511  17.682  0.00  0.00    +0.000 N 
ATOM      2  C   UNL     1       1.828   8.255  18.696  0.00  0.00    +0.000 A 
ATOM      3  N   UNL     1       1.921   7.954  19.971  0.00  0.00    +0.000 NA
ATOM      4  C   UNL     1       1.190   8.837  20.736  0.00  0.00    +0.000 A 
ATOM      5  C   UNL     1       0.973   8.734  22.125  0.00  0.00    +0.000 A 
ATOM      6  C   UNL     1       0.191   9.690  22.779  0.00  0.00    +0.000 A 
ATOM      7  C   UNL     1      -0.326  10.781  22.079  0.00  0.00    +0.000 A 
ATOM      8  C   UNL     1      -0.110  10.911  20.697  0.00  0.00    +0.000 A 
ATOM      9  C   UNL     1       0.617   9.902  20.043  0.00  0.00    +0.000 A 
ATOM     10  S   UNL     1       0.939   9.694  18.362  0.00  0.00    +0.000 S 
ATOM     11  H   UNL     1       2.146   7.839  16.742  0.00  0.00    +0.000 HD
ENDROOT
BRANCH   1  15
ATOM     12  C   UNL     1       6.040   5.456  17.794  0.00  0.00    +0.000 A 
ATOM     13  C   UNL     1       4.901   4.917  18.404  0.00  0.00    +0.000 A 
ATOM     14  C   UNL     1       3.685   5.614  18.367  0.00  0.00    +0.000 A 
ATOM     15  C   UNL     1       3.595   6.867  17.751  0.00  0.00    +0.000 A 
ATOM     16  C   UNL     1       4.743   7.396  17.139  0.00  0.00    +0.000 A 
ATOM     17  C   UNL     1       5.953   6.697  17.156  0.00  0.00    +0.000 A 
BRANCH  12  19
ATOM     18  N   UNL     1       8.291   4.167  17.840  0.00  0.00    +0.000 NA
ATOM     19  C   UNL     1       7.284   4.741  17.818  0.00  0.00    +0.000 C 
ENDBRANCH  12  19
ENDBRANCH   1  15
BRANCH   7  20
ATOM     20  C   UNL     1      -1.103  11.761  22.777  0.00  0.00    +0.000 C 
ATOM     21  N   UNL     1      -1.731  12.560  23.338  0.00  0.00    +0.000 NA
ENDBRANCH   7  20
TORSDOF 3
ENDMDL
MODEL 4
REMARK VINA RESULT:      -6.3      3.076      3.683
REMARK  Name = 
REMARK  3 active torsions:
REMARK  status: ('A' for Active; 'I' for Inactive)
REMARK    1  A    between atoms: C_2  and  C_3
REMARK    2  A    between atoms: C_6  and  N_7
REMARK    3  A    between atoms: C_13  and  C_14
REMARK                            x       y       z     vdW  Elec       q    Type
REMARK                         _______ _______ _______ _____ _____    ______ ____
ROOT
ATOM      1  N   UNL     1       1.869   8.024  21.429  0.00  0.00    +0.000 N 
ATOM      2  C   UNL     1       0.888   8.960  21.473  0.00  0.00    +0.000 A 
ATOM      3  N   UNL     1       0.333   9.518  20.421  0.00  0.00    +0.000 NA
ATOM      4  C   UNL     1      -0.535  10.520  20.800  0.00  0.00    +0.000 A 
ATOM      5  C   UNL     1      -1.203  11.400  19.925  0.00  0.00    +0.000 A 
ATOM      6  C   UNL     1      -2.045  12.389  20.443  0.00  0.00    +0.000 A 
ATOM      7  C   UNL     1      -2.276  12.473  21.818  0.00  0.00    +0.000 A 
ATOM      8  C   UNL     1      -1.632  11.597  22.706  0.00  0.00    +0.000 A 
ATOM      9  C   UNL     1      -0.733  10.656  22.173  0.00  0.00    +0.000 A 
ATOM     10  S   UNL     1       0.303   9.544  22.986  0.00  0.00    +0.000 S 
ATOM     11  H   UNL     1       2.240   7.720  22.322  0.00  0.00    +0.000 HD
ENDROOT
BRANCH   1  15
ATOM     12  C   UNL     1       2.133   4.903  18.580  0.00  0.00    +0.000 A 
ATOM     13  C   UNL     1       2.529   6.205  18.256  0.00  0.00    +0.000 A 
ATOM     14  C   UNL     1       2.427   7.230  19.206  0.00  0.00    +0.000 A 
ATOM     15  C   UNL     1       1.901   6.979  20.479  0.00  0.00    +0.000 A 
ATOM     16  C   UNL     1       1.512   5.667  20.794  0.00  0.00    +0.000 A 
ATOM     17  C   UNL     1       1.629   4.638  19.857  0.00  0.00    +0.000 A 
BRANCH  12  19
ATOM     18  N   UNL     1       2.340   2.998  16.831  0.00  0.00    +0.000 NA
ATOM     19  C   UNL     1       2.248   3.847  17.615  0.00  0.00    +0.000 C 
ENDBRANCH  12  19
ENDBRANCH   1  15
BRANCH   7  20
ATOM     20  C   UNL     1      -3.163  13.479  22.321  0.00  0.00    +0.000 C 
ATOM     21  N   UNL     1      -3.876  14.298  22.733  0.00  0.00    +0.000 NA
ENDBRANCH   7  20
TORSDOF 3
ENDMDL
MODEL 5
REMARK VINA RESULT:      -6.1      3.782      4.573
REMARK  Name = 
REMARK  3 active torsions:
REMARK  status: ('A' for Active; 'I' for Inactive)
REMARK    1  A    between atoms: C_2  and  C_3
REMARK    2  A    between atoms: C_6  and  N_7
REMARK    3  A    between atoms: C_13  and  C_14
REMARK                            x       y       z     vdW  Elec       q    Type
REMARK                         _______ _______ _______ _____ _____    ______ ____
ROOT
ATOM      1  N   UNL     1       2.203   7.627  17.774  0.00  0.00    +0.000 N 
ATOM      2  C   UNL     1       1.707   8.385  18.785  0.00  0.00    +0.000 A 
ATOM      3  N   UNL     1       1.757   8.065  20.058  0.00  0.00    +0.000 NA
ATOM      4  C   UNL     1       1.054   8.976  20.818  0.00  0.00    +0.000 A 
ATOM      5  C   UNL     1       0.803   8.868  22.201  0.00  0.00    +0.000 A 
ATOM      6  C   UNL     1       0.056   9.856  22.850  0.00  0.00    +0.000 A 
ATOM      7  C   UNL     1      -0.390  10.980  22.152  0.00  0.00    +0.000 A 
ATOM      8  C   UNL     1      -0.137  11.114  20.777  0.00  0.00    +0.000 A 
ATOM      9  C   UNL     1       0.552  10.076  20.126  0.00  0.00    +0.000 A 
ATOM     10  S   UNL     1       0.900   9.871  18.450  0.00  0.00    +0.000 S 
ATOM     11  H   UNL     1       2.046   7.975  16.834  0.00  0.00    +0.000 HD
ENDROOT
BRANCH   1  15
ATOM     12  C   UNL     1       5.933   5.648  18.084  0.00  0.00    +0.000 A 
ATOM     13  C   UNL     1       5.722   6.632  17.111  0.00  0.00    +0.000 A 
ATOM     14  C   UNL     1       4.478   7.272  17.014  0.00  0.00    +0.000 A 
ATOM     15  C   UNL     1       3.421   6.919  17.862  0.00  0.00    +0.000 A 
ATOM     16  C   UNL     1       3.647   5.935  18.838  0.00  0.00    +0.000 A 
ATOM     17  C   UNL     1       4.891   5.307  18.950  0.00  0.00    +0.000 A 
BRANCH  12  19
ATOM     18  N   UNL     1       8.241   4.479  18.282  0.00  0.00    +0.000 NA
ATOM     19  C   UNL     1       7.208   5.000  18.195  0.00  0.00    +0.000 C 
ENDBRANCH  12  19
ENDBRANCH   1  15
BRANCH   7  20
ATOM     20  C   UNL     1      -1.131  11.991  22.846  0.00  0.00    +0.000 C 
ATOM     21  N   UNL     1      -1.727  12.809  23.414  0.00  0.00    +0.000 NA
ENDBRANCH   7  20
TORSDOF 3
ENDMDL
MODEL 6
REMARK VINA RESULT:      -6.1      2.727      3.391
REMARK  Name = 
REMARK  3 active torsions:
REMARK  status: ('A' for Active; 'I' for Inactive)
REMARK    1  A    between atoms: C_2  and  C_3
REMARK    2  A    between atoms: C_6  and  N_7
REMARK    3  A    between atoms: C_13  and  C_14
REMARK                            x       y       z     vdW  Elec       q    Type
REMARK                         _______ _______ _______ _____ _____    ______ ____
ROOT
ATOM      1  N   UNL     1       1.935   7.892  21.219  0.00  0.00    +0.000 N 
ATOM      2  C   UNL     1       1.026   8.879  21.014  0.00  0.00    +0.000 A 
ATOM      3  N   UNL     1       0.696   9.364  19.838  0.00  0.00    +0.000 NA
ATOM      4  C   UNL     1      -0.155  10.441  19.976  0.00  0.00    +0.000 A 
ATOM      5  C   UNL     1      -0.605  11.268  18.927  0.00  0.00    +0.000 A 
ATOM      6  C   UNL     1      -1.453  12.344  19.207  0.00  0.00    +0.000 A 
ATOM      7  C   UNL     1      -1.907  12.568  20.508  0.00  0.00    +0.000 A 
ATOM      8  C   UNL     1      -1.482  11.747  21.565  0.00  0.00    +0.000 A 
ATOM      9  C   UNL     1      -0.572  10.714  21.276  0.00  0.00    +0.000 A 
ATOM     10  S   UNL     1       0.235   9.631  22.348  0.00  0.00    +0.000 S 
ATOM     11  H   UNL     1       2.129   7.655  22.186  0.00  0.00    +0.000 HD
ENDROOT
BRANCH   1  15
ATOM     12  C   UNL     1       2.130   4.503  18.691  0.00  0.00    +0.000 A 
ATOM     13  C   UNL     1       1.560   4.414  19.966  0.00  0.00    +0.000 A 
ATOM     14  C   UNL     1       1.512   5.543  20.796  0.00  0.00    +0.000 A 
ATOM     15  C   UNL     1       2.056   6.763  20.380  0.00  0.00    +0.000 A 
ATOM     16  C   UNL     1       2.620   6.841  19.096  0.00  0.00    +0.000 A 
ATOM     17  C   UNL     1       2.655   5.723  18.258  0.00  0.00    +0.000 A 
BRANCH  12  19
ATOM     18  N   UNL     1       2.206   2.422  17.142  0.00  0.00    +0.000 NA
ATOM     19  C   UNL     1       2.170   3.353  17.832  0.00  0.00    +0.000 C 
ENDBRANCH  12  19
ENDBRANCH   1  15
BRANCH   7  20
ATOM     20  C   UNL     1      -2.796  13.662  20.764  0.00  0.00    +0.000 C 
ATOM     21  N   UNL     1      -3.514  14.552  20.964  0.00  0.00    +0.000 NA
ENDBRANCH   7  20
TORSDOF 3
ENDMDL
MODEL 7
REMARK VINA RESULT:      -5.9      2.014      8.336
REMARK  Name = 
REMARK  3 active torsions:
REMARK  status: ('A' for Active; 'I' for Inactive)
REMARK    1  A    between atoms: C_2  and  C_3
REMARK    2  A    between atoms: C_6  and  N_7
REMARK    3  A    between atoms: C_13  and  C_14
REMARK                            x       y       z     vdW  Elec       q    Type
REMARK                         _______ _______ _______ _____ _____    ______ ____
ROOT
ATOM      1  N   UNL     1       1.832   9.661  18.281  0.00  0.00    +0.000 N 
ATOM      2  C   UNL     1       2.123   8.375  18.606  0.00  0.00    +0.000 A 
ATOM      3  N   UNL     1       1.601   7.720  19.618  0.00  0.00    +0.000 NA
ATOM      4  C   UNL     1       2.195   6.484  19.758  0.00  0.00    +0.000 A 
ATOM      5  C   UNL     1       1.961   5.576  20.810  0.00  0.00    +0.000 A 
ATOM      6  C   UNL     1       2.648   4.358  20.844  0.00  0.00    +0.000 A 
ATOM      7  C   UNL     1       3.518   4.008  19.810  0.00  0.00    +0.000 A 
ATOM      8  C   UNL     1       3.754   4.891  18.744  0.00  0.00    +0.000 A 
ATOM      9  C   UNL     1       3.111   6.141  18.765  0.00  0.00    +0.000 A 
ATOM     10  S   UNL     1       3.285   7.484  17.698  0.00  0.00    +0.000 S 
ATOM     11  H   UNL     1       2.351  10.055  17.504  0.00  0.00    +0.000 HD
ENDROOT
BRANCH   1  15
ATOM     12  C   UNL     1      -2.125  11.138  18.558  0.00  0.00    +0.000 A 
ATOM     13  C   UNL     1      -1.792  10.153  17.621  0.00  0.00    +0.000 A 
ATOM     14  C   UNL     1      -0.475   9.680  17.534  0.00  0.00    +0.000 A 
ATOM     15  C   UNL     1       0.531  10.203  18.356  0.00  0.00    +0.000 A 
ATOM     16  C   UNL     1       0.183  11.188  19.295  0.00  0.00    +0.000 A 
ATOM     17  C   UNL     1      -1.132  11.649  19.398  0.00  0.00    +0.000 A 
BRANCH  12  19
ATOM     18  N   UNL     1      -4.566  11.999  18.747  0.00  0.00    +0.000 NA
ATOM     19  C   UNL     1      -3.475  11.615  18.659  0.00  0.00    +0.000 C 
ENDBRANCH  12  19
ENDBRANCH   1  15
BRANCH   7  20
ATOM     20  C   UNL     1       4.190   2.744  19.855  0.00  0.00    +0.000 C 
ATOM     21  N   UNL     1       4.728   1.715  19.891  0.00  0.00    +0.000 NA
ENDBRANCH   7  20
TORSDOF 3
ENDMDL
MODEL 8
REMARK VINA RESULT:      -5.9      3.667      4.273
REMARK  Name = 
REMARK  3 active torsions:
REMARK  status: ('A' for Active; 'I' for Inactive)
REMARK    1  A    between atoms: C_2  and  C_3
REMARK    2  A    between atoms: C_6  and  N_7
REMARK    3  A    between atoms: C_13  and  C_14
REMARK                            x       y       z     vdW  Elec       q    Type
REMARK                         _______ _______ _______ _____ _____    ______ ____
ROOT
ATOM      1  N   UNL     1       1.546   8.996  18.336  0.00  0.00    +0.000 N 
ATOM      2  C   UNL     1       1.052   9.751  19.350  0.00  0.00    +0.000 A 
ATOM      3  N   UNL     1       0.615   9.278  20.495  0.00  0.00    +0.000 NA
ATOM      4  C   UNL     1       0.060  10.283  21.258  0.00  0.00    +0.000 A 
ATOM      5  C   UNL     1      -0.609  10.105  22.486  0.00  0.00    +0.000 A 
ATOM      6  C   UNL     1      -1.147  11.211  23.151  0.00  0.00    +0.000 A 
ATOM      7  C   UNL     1      -0.973  12.498  22.639  0.00  0.00    +0.000 A 
ATOM      8  C   UNL     1      -0.296  12.699  21.425  0.00  0.00    +0.000 A 
ATOM      9  C   UNL     1       0.174  11.569  20.734  0.00  0.00    +0.000 A 
ATOM     10  S   UNL     1       0.913  11.461  19.181  0.00  0.00    +0.000 S 
ATOM     11  H   UNL     1       1.797   9.493  17.488  0.00  0.00    +0.000 HD
ENDROOT
BRANCH   1  15
ATOM     12  C   UNL     1       3.917   5.539  18.927  0.00  0.00    +0.000 A 
ATOM     13  C   UNL     1       2.918   5.888  19.843  0.00  0.00    +0.000 A 
ATOM     14  C   UNL     1       2.147   7.042  19.639  0.00  0.00    +0.000 A 
ATOM     15  C   UNL     1       2.382   7.876  18.540  0.00  0.00    +0.000 A 
ATOM     16  C   UNL     1       3.383   7.512  17.625  0.00  0.00    +0.000 A 
ATOM     17  C   UNL     1       4.142   6.354  17.814  0.00  0.00    +0.000 A 
BRANCH  12  19
ATOM     18  N   UNL     1       5.329   3.392  19.289  0.00  0.00    +0.000 NA
ATOM     19  C   UNL     1       4.699   4.352  19.125  0.00  0.00    +0.000 C 
ENDBRANCH  12  19
ENDBRANCH   1  15
BRANCH   7  20
ATOM     20  C   UNL     1      -1.511  13.617  23.354  0.00  0.00    +0.000 C 
ATOM     21  N   UNL     1      -1.947  14.528  23.926  0.00  0.00    +0.000 NA
ENDBRANCH   7  20
TORSDOF 3
ENDMDL
MODEL 9
REMARK VINA RESULT:      -5.8      3.320      8.076
REMARK  Name = 
REMARK  3 active torsions:
REMARK  status: ('A' for Active; 'I' for Inactive)
REMARK    1  A    between atoms: C_2  and  C_3
REMARK    2  A    between atoms: C_6  and  N_7
REMARK    3  A    between atoms: C_13  and  C_14
REMARK                            x       y       z     vdW  Elec       q    Type
REMARK                         _______ _______ _______ _____ _____    ______ ____
ROOT
ATOM      1  N   UNL     1       0.550  11.425  20.216  0.00  0.00    +0.000 N 
ATOM      2  C   UNL     1       0.996  10.207  19.815  0.00  0.00    +0.000 A 
ATOM      3  N   UNL     1       1.049   9.138  20.577  0.00  0.00    +0.000 NA
ATOM      4  C   UNL     1       1.669   8.099  19.915  0.00  0.00    +0.000 A 
ATOM      5  C   UNL     1       1.999   6.851  20.480  0.00  0.00    +0.000 A 
ATOM      6  C   UNL     1       2.648   5.886  19.702  0.00  0.00    +0.000 A 
ATOM      7  C   UNL     1       2.915   6.128  18.353  0.00  0.00    +0.000 A 
ATOM      8  C   UNL     1       2.580   7.359  17.767  0.00  0.00    +0.000 A 
ATOM      9  C   UNL     1       1.995   8.343  18.583  0.00  0.00    +0.000 A 
ATOM     10  S   UNL     1       1.593   9.979  18.215  0.00  0.00    +0.000 S 
ATOM     11  H   UNL     1       0.615  12.174  19.535  0.00  0.00    +0.000 HD
ENDROOT
BRANCH   1  15
ATOM     12  C   UNL     1      -2.695  12.044  22.864  0.00  0.00    +0.000 A 
ATOM     13  C   UNL     1      -1.577  11.302  23.261  0.00  0.00    +0.000 A 
ATOM     14  C   UNL     1      -0.515  11.097  22.370  0.00  0.00    +0.000 A 
ATOM     15  C   UNL     1      -0.565  11.601  21.065  0.00  0.00    +0.000 A 
ATOM     16  C   UNL     1      -1.690  12.348  20.680  0.00  0.00    +0.000 A 
ATOM     17  C   UNL     1      -2.744  12.571  21.570  0.00  0.00    +0.000 A 
BRANCH  12  19
ATOM     18  N   UNL     1      -4.653  12.448  24.519  0.00  0.00    +0.000 NA
ATOM     19  C   UNL     1      -3.780  12.267  23.777  0.00  0.00    +0.000 C 
ENDBRANCH  12  19
ENDBRANCH   1  15
BRANCH   7  20
ATOM     20  C   UNL     1       3.556   5.113  17.571  0.00  0.00    +0.000 C 
ATOM     21  N   UNL     1       4.071   4.287  16.938  0.00  0.00    +0.000 NA
ENDBRANCH   7  20
TORSDOF 3
ENDMDL
