MODEL 1
REMARK VINA RESULT:      -8.0      0.000      0.000
REMARK  Name = 
REMARK  5 active torsions:
REMARK  status: ('A' for Active; 'I' for Inactive)
REMARK    1  A    between atoms: N_2  and  C_3
REMARK    2  A    between atoms: N_7  and  C_8
REMARK    3  A    between atoms: C_16  and  O_17
REMARK    4  A    between atoms: O_17  and  C_18
REMARK    5  A    between atoms: C_18  and  C_19
REMARK                            x       y       z     vdW  Elec       q    Type
REMARK                         _______ _______ _______ _____ _____    ______ ____
ROOT
ATOM      1  C   UNL     1       6.923   5.194  18.972  0.00  0.00    +0.000 A 
ATOM      2  C   UNL     1       7.748   4.731  17.970  0.00  0.00    +0.000 A 
ATOM      3  N   UNL     1       7.328   4.373  16.737  0.00  0.00    +0.000 NA
ATOM      4  C   UNL     1       6.014   4.451  16.478  0.00  0.00    +0.000 A 
ATOM      5  N   UNL     1       5.540   4.093  15.221  0.00  0.00    +0.000 N 
ATOM      6  N   UNL     1       5.111   4.833  17.389  0.00  0.00    +0.000 NA
ATOM      7  C   UNL     1       5.583   5.208  18.608  0.00  0.00    +0.000 A 
ATOM      8  H   UNL     1       4.532   4.107  15.176  0.00  0.00    +0.000 HD
ENDROOT
BRANCH   5   9
ATOM      9  C   UNL     1       6.226   4.060  13.998  0.00  0.00    +0.000 A 
ATOM     10  C   UNL     1       6.987   5.169  13.607  0.00  0.00    +0.000 A 
ATOM     11  C   UNL     1       7.609   5.207  12.353  0.00  0.00    +0.000 A 
ATOM     12  C   UNL     1       7.492   4.125  11.482  0.00  0.00    +0.000 A 
ATOM     13  C   UNL     1       6.752   3.013  11.867  0.00  0.00    +0.000 A 
ATOM     14 BR   UNL     1       6.593   1.534  10.699  0.00  0.00    +0.000 Br
ATOM     15  C   UNL     1       6.116   2.982  13.108  0.00  0.00    +0.000 A 
ENDBRANCH   5   9
BRANCH   1  17
ATOM     16  O   UNL     1       8.490   5.177  20.514  0.00  0.00    +0.000 OA
ATOM     17  N   UNL     1       7.356   5.580  20.225  0.00  0.00    +0.000 NA
ENDBRANCH   1  17
BRANCH   7  18
ATOM     18  O   UNL     1       4.668   5.687  19.535  0.00  0.00    +0.000 OA
BRANCH  18  19
ATOM     19  C   UNL     1       3.746   4.698  20.007  0.00  0.00    +0.000 C 
BRANCH  19  20
ATOM     20  C   UNL     1       2.318   5.114  19.603  0.00  0.00    +0.000 C 
ATOM     21  C   UNL     1       1.988   4.744  18.145  0.00  0.00    +0.000 C 
ATOM     22  C   UNL     1       1.792   3.242  17.937  0.00  0.00    +0.000 C 
ATOM     23  C   UNL     1       0.772   2.654  18.907  0.00  0.00    +0.000 C 
ATOM     24  C   UNL     1       1.072   3.013  20.359  0.00  0.00    +0.000 C 
ATOM     25  C   UNL     1       1.266   4.516  20.549  0.00  0.00    +0.000 C 
ENDBRANCH  19  20
ENDBRANCH  18  19
ENDBRANCH   7  18
TORSDOF 5
ENDMDL
MODEL 2
REMARK VINA RESULT:      -8.0      4.629      8.380
REMARK  Name = 
REMARK  5 active torsions:
REMARK  status: ('A' for Active; 'I' for Inactive)
REMARK    1  A    between atoms: N_2  and  C_3
REMARK    2  A    between atoms: N_7  and  C_8
REMARK    3  A    between atoms: C_16  and  O_17
REMARK    4  A    between atoms: O_17  and  C_18
REMARK    5  A    between atoms: C_18  and  C_19
REMARK                            x       y       z     vdW  Elec       q    Type
REMARK                         _______ _______ _______ _____ _____    ______ ____
ROOT
ATOM      1  C   UNL     1       1.872   3.521  19.616  0.00  0.00    +0.000 A 
ATOM      2  C   UNL     1       0.986   4.243  20.385  0.00  0.00    +0.000 A 
ATOM      3  N   UNL     1       1.122   5.553  20.684  0.00  0.00    +0.000 NA
ATOM      4  C   UNL     1       2.207   6.190  20.220  0.00  0.00    +0.000 A 
ATOM      5  N   UNL     1       2.386   7.539  20.505  0.00  0.00    +0.000 N 
ATOM      6  N   UNL     1       3.163   5.581  19.510  0.00  0.00    +0.000 NA
ATOM      7  C   UNL     1       2.971   4.268  19.211  0.00  0.00    +0.000 A 
ATOM      8  H   UNL     1       3.278   7.882  20.181  0.00  0.00    +0.000 HD
ENDROOT
BRANCH   5   9
ATOM      9  C   UNL     1       1.424   8.503  20.840  0.00  0.00    +0.000 A 
ATOM     10  C   UNL     1       1.156   8.768  22.189  0.00  0.00    +0.000 A 
ATOM     11  C   UNL     1       0.139   9.655  22.559  0.00  0.00    +0.000 A 
ATOM     12  C   UNL     1      -0.612  10.304  21.580  0.00  0.00    +0.000 A 
ATOM     13  C   UNL     1      -0.344  10.061  20.238  0.00  0.00    +0.000 A 
ATOM     14 BR   UNL     1      -1.349  10.942  18.900  0.00  0.00    +0.000 Br
ATOM     15  C   UNL     1       0.656   9.163  19.869  0.00  0.00    +0.000 A 
ENDBRANCH   5   9
BRANCH   1  17
ATOM     16  O   UNL     1       0.960   1.983  18.337  0.00  0.00    +0.000 OA
ATOM     17  N   UNL     1       1.720   2.188  19.292  0.00  0.00    +0.000 NA
ENDBRANCH   1  17
BRANCH   7  18
ATOM     18  O   UNL     1       3.911   3.645  18.403  0.00  0.00    +0.000 OA
BRANCH  18  19
ATOM     19  C   UNL     1       5.257   4.074  18.641  0.00  0.00    +0.000 C 
BRANCH  19  20
ATOM     20  C   UNL     1       5.927   4.384  17.288  0.00  0.00    +0.000 C 
ATOM     21  C   UNL     1       5.218   5.519  16.527  0.00  0.00    +0.000 C 
ATOM     22  C   UNL     1       5.450   6.896  17.149  0.00  0.00    +0.000 C 
ATOM     23  C   UNL     1       6.933   7.197  17.347  0.00  0.00    +0.000 C 
ATOM     24  C   UNL     1       7.661   6.082  18.093  0.00  0.00    +0.000 C 
ATOM     25  C   UNL     1       7.418   4.715  17.457  0.00  0.00    +0.000 C 
ENDBRANCH  19  20
ENDBRANCH  18  19
ENDBRANCH   7  18
TORSDOF 5
ENDMDL
MODEL 3
REMARK VINA RESULT:      -7.9      4.958      8.364
REMARK  Name = 
REMARK  5 active torsions:
REMARK  status: ('A' for Active; 'I' for Inactive)
REMARK    1  A    between atoms: N_2  and  C_3
REMARK    2  A    between atoms: N_7  and  C_8
REMARK    3  A    between atoms: C_16  and  O_17
REMARK    4  A    between atoms: O_17  and  C_18
REMARK    5  A    between atoms: C_18  and  C_19
REMARK                            x       y       z     vdW  Elec       q    Type
REMARK                         _______ _______ _______ _____ _____    ______ ____
ROOT
ATOM      1  C   UNL     1       2.025   3.533  19.829  0.00  0.00    +0.000 A 
ATOM      2  C   UNL     1       1.018   4.318  20.346  0.00  0.00    +0.000 A 
ATOM      3  N   UNL     1       1.085   5.661  20.478  0.00  0.00    +0.000 NA
ATOM      4  C   UNL     1       2.219   6.269  20.102  0.00  0.00    +0.000 A 
ATOM      5  N   UNL     1       2.330   7.650  20.222  0.00  0.00    +0.000 N 
ATOM      6  N   UNL     1       3.285   5.605  19.638  0.00  0.00    +0.000 NA
ATOM      7  C   UNL     1       3.162   4.258  19.498  0.00  0.00    +0.000 A 
ATOM      8  H   UNL     1       3.256   7.978  19.994  0.00  0.00    +0.000 HD
ENDROOT
BRANCH   5   9
ATOM      9  C   UNL     1       1.312   8.614  20.269  0.00  0.00    +0.000 A 
ATOM     10  C   UNL     1       0.909   9.246  19.086  0.00  0.00    +0.000 A 
ATOM     11  C   UNL     1      -0.038  10.276  19.110  0.00  0.00    +0.000 A 
ATOM     12  C   UNL     1      -0.609  10.674  20.318  0.00  0.00    +0.000 A 
ATOM     13  C   UNL     1      -0.227  10.042  21.496  0.00  0.00    +0.000 A 
ATOM     14 BR   UNL     1      -1.000  10.564  23.141  0.00  0.00    +0.000 Br
ATOM     15  C   UNL     1       0.730   9.028  21.475  0.00  0.00    +0.000 A 
ENDBRANCH   5   9
BRANCH   1  17
ATOM     16  O   UNL     1       1.271   1.803  18.701  0.00  0.00    +0.000 OA
ATOM     17  N   UNL     1       1.946   2.163  19.673  0.00  0.00    +0.000 NA
ENDBRANCH   1  17
BRANCH   7  18
ATOM     18  O   UNL     1       4.227   3.567  18.938  0.00  0.00    +0.000 OA
BRANCH  18  19
ATOM     19  C   UNL     1       5.493   4.217  19.105  0.00  0.00    +0.000 C 
BRANCH  19  20
ATOM     20  C   UNL     1       6.170   4.352  17.727  0.00  0.00    +0.000 C 
ATOM     21  C   UNL     1       5.397   5.290  16.782  0.00  0.00    +0.000 C 
ATOM     22  C   UNL     1       5.513   6.764  17.172  0.00  0.00    +0.000 C 
ATOM     23  C   UNL     1       6.965   7.205  17.333  0.00  0.00    +0.000 C 
ATOM     24  C   UNL     1       7.755   6.285  18.260  0.00  0.00    +0.000 C 
ATOM     25  C   UNL     1       7.627   4.818  17.856  0.00  0.00    +0.000 C 
ENDBRANCH  19  20
ENDBRANCH  18  19
ENDBRANCH   7  18
TORSDOF 5
ENDMDL
MODEL 4
REMARK VINA RESULT:      -7.7      0.614      1.176
REMARK  Name = 
REMARK  5 active torsions:
REMARK  status: ('A' for Active; 'I' for Inactive)
REMARK    1  A    between atoms: N_2  and  C_3
REMARK    2  A    between atoms: N_7  and  C_8
REMARK    3  A    between atoms: C_16  and  O_17
REMARK    4  A    between atoms: O_17  and  C_18
REMARK    5  A    between atoms: C_18  and  C_19
REMARK                            x       y       z     vdW  Elec       q    Type
REMARK                         _______ _______ _______ _____ _____    ______ ____
ROOT
ATOM      1  C   UNL     1       6.963   5.219  19.025  0.00  0.00    +0.000 A 
ATOM      2  C   UNL     1       7.775   4.742  18.019  0.00  0.00    +0.000 A 
ATOM      3  N   UNL     1       7.343   4.388  16.789  0.00  0.00    +0.000 NA
ATOM      4  C   UNL     1       6.029   4.486  16.536  0.00  0.00    +0.000 A 
ATOM      5  N   UNL     1       5.542   4.132  15.282  0.00  0.00    +0.000 N 
ATOM      6  N   UNL     1       5.137   4.883  17.451  0.00  0.00    +0.000 NA
ATOM      7  C   UNL     1       5.621   5.253  18.667  0.00  0.00    +0.000 A 
ATOM      8  H   UNL     1       4.535   4.161  15.243  0.00  0.00    +0.000 HD
ENDROOT
BRANCH   5   9
ATOM      9  C   UNL     1       6.221   4.087  14.056  0.00  0.00    +0.000 A 
ATOM     10  C   UNL     1       6.997   5.183  13.658  0.00  0.00    +0.000 A 
ATOM     11  C   UNL     1       7.612   5.209  12.401  0.00  0.00    +0.000 A 
ATOM     12  C   UNL     1       7.474   4.127  11.533  0.00  0.00    +0.000 A 
ATOM     13  C   UNL     1       6.720   3.027  11.924  0.00  0.00    +0.000 A 
ATOM     14 BR   UNL     1       6.532   1.549  10.760  0.00  0.00    +0.000 Br
ATOM     15  C   UNL     1       6.091   3.009  13.169  0.00  0.00    +0.000 A 
ENDBRANCH   5   9
BRANCH   1  17
ATOM     16  O   UNL     1       8.500   5.112  20.592  0.00  0.00    +0.000 OA
ATOM     17  N   UNL     1       7.408   5.601  20.274  0.00  0.00    +0.000 NA
ENDBRANCH   1  17
BRANCH   7  18
ATOM     18  O   UNL     1       4.719   5.748  19.598  0.00  0.00    +0.000 OA
BRANCH  18  19
ATOM     19  C   UNL     1       3.384   5.256  19.431  0.00  0.00    +0.000 C 
BRANCH  19  20
ATOM     20  C   UNL     1       3.226   3.956  20.244  0.00  0.00    +0.000 C 
ATOM     21  C   UNL     1       1.941   3.945  21.091  0.00  0.00    +0.000 C 
ATOM     22  C   UNL     1       0.672   3.776  20.255  0.00  0.00    +0.000 C 
ATOM     23  C   UNL     1       0.745   2.560  19.335  0.00  0.00    +0.000 C 
ATOM     24  C   UNL     1       2.016   2.544  18.490  0.00  0.00    +0.000 C 
ATOM     25  C   UNL     1       3.272   2.714  19.341  0.00  0.00    +0.000 C 
ENDBRANCH  19  20
ENDBRANCH  18  19
ENDBRANCH   7  18
TORSDOF 5
ENDMDL
MODEL 5
REMARK VINA RESULT:      -7.6      4.951      8.640
REMARK  Name = 
REMARK  5 active torsions:
REMARK  status: ('A' for Active; 'I' for Inactive)
REMARK    1  A    between atoms: N_2  and  C_3
REMARK    2  A    between atoms: N_7  and  C_8
REMARK    3  A    between atoms: C_16  and  O_17
REMARK    4  A    between atoms: O_17  and  C_18
REMARK    5  A    between atoms: C_18  and  C_19
REMARK                            x       y       z     vdW  Elec       q    Type
REMARK                         _______ _______ _______ _____ _____    ______ ____
ROOT
ATOM      1  C   UNL     1       1.915   4.116  19.435  0.00  0.00    +0.000 A 
ATOM      2  C   UNL     1       1.412   4.733  20.559  0.00  0.00    +0.000 A 
ATOM      3  N   UNL     1       1.414   6.069  20.765  0.00  0.00    +0.000 NA
ATOM      4  C   UNL     1       1.966   6.845  19.822  0.00  0.00    +0.000 A 
ATOM      5  N   UNL     1       1.990   8.225  19.995  0.00  0.00    +0.000 N 
ATOM      6  N   UNL     1       2.536   6.356  18.714  0.00  0.00    +0.000 NA
ATOM      7  C   UNL     1       2.487   5.008  18.537  0.00  0.00    +0.000 A 
ATOM      8  H   UNL     1       2.508   8.691  19.266  0.00  0.00    +0.000 HD
ENDROOT
BRANCH   5   9
ATOM      9  C   UNL     1       1.155   9.026  20.787  0.00  0.00    +0.000 A 
ATOM     10  C   UNL     1       1.092   8.798  22.168  0.00  0.00    +0.000 A 
ATOM     11  C   UNL     1       0.202   9.518  22.974  0.00  0.00    +0.000 A 
ATOM     12  C   UNL     1      -0.623  10.490  22.410  0.00  0.00    +0.000 A 
ATOM     13  C   UNL     1      -0.556  10.736  21.044  0.00  0.00    +0.000 A 
ATOM     14 BR   UNL     1      -1.663  12.058  20.268  0.00  0.00    +0.000 Br
ATOM     15  C   UNL     1       0.316  10.006  20.237  0.00  0.00    +0.000 A 
ENDBRANCH   5   9
BRANCH   1  17
ATOM     16  O   UNL     1       2.506   2.095  20.063  0.00  0.00    +0.000 OA
ATOM     17  N   UNL     1       1.892   2.753  19.215  0.00  0.00    +0.000 NA
ENDBRANCH   1  17
BRANCH   7  18
ATOM     18  O   UNL     1       2.997   4.494  17.353  0.00  0.00    +0.000 OA
BRANCH  18  19
ATOM     19  C   UNL     1       4.371   4.098  17.436  0.00  0.00    +0.000 C 
BRANCH  19  20
ATOM     20  C   UNL     1       5.131   4.679  16.228  0.00  0.00    +0.000 C 
ATOM     21  C   UNL     1       5.020   6.212  16.145  0.00  0.00    +0.000 C 
ATOM     22  C   UNL     1       5.836   6.932  17.218  0.00  0.00    +0.000 C 
ATOM     23  C   UNL     1       7.293   6.478  17.237  0.00  0.00    +0.000 C 
ATOM     24  C   UNL     1       7.430   4.960  17.311  0.00  0.00    +0.000 C 
ATOM     25  C   UNL     1       6.608   4.258  16.232  0.00  0.00    +0.000 C 
ENDBRANCH  19  20
ENDBRANCH  18  19
ENDBRANCH   7  18
TORSDOF 5
ENDMDL
MODEL 6
REMARK VINA RESULT:      -7.5      5.713      8.710
REMARK  Name = 
REMARK  5 active torsions:
REMARK  status: ('A' for Active; 'I' for Inactive)
REMARK    1  A    between atoms: N_2  and  C_3
REMARK    2  A    between atoms: N_7  and  C_8
REMARK    3  A    between atoms: C_16  and  O_17
REMARK    4  A    between atoms: O_17  and  C_18
REMARK    5  A    between atoms: C_18  and  C_19
REMARK                            x       y       z     vdW  Elec       q    Type
REMARK                         _______ _______ _______ _____ _____    ______ ____
ROOT
ATOM      1  C   UNL     1       2.437   6.591  19.736  0.00  0.00    +0.000 A 
ATOM      2  C   UNL     1       1.712   7.515  20.456  0.00  0.00    +0.000 A 
ATOM      3  N   UNL     1       1.265   8.691  19.963  0.00  0.00    +0.000 NA
ATOM      4  C   UNL     1       1.569   8.991  18.692  0.00  0.00    +0.000 A 
ATOM      5  N   UNL     1       1.128  10.191  18.146  0.00  0.00    +0.000 N 
ATOM      6  N   UNL     1       2.313   8.198  17.912  0.00  0.00    +0.000 NA
ATOM      7  C   UNL     1       2.719   7.013  18.443  0.00  0.00    +0.000 A 
ATOM      8  H   UNL     1       1.494  10.344  17.218  0.00  0.00    +0.000 HD
ENDROOT
BRANCH   5   9
ATOM      9  C   UNL     1       0.045  10.990  18.537  0.00  0.00    +0.000 A 
ATOM     10  C   UNL     1       0.250  12.023  19.460  0.00  0.00    +0.000 A 
ATOM     11  C   UNL     1      -0.825  12.780  19.941  0.00  0.00    +0.000 A 
ATOM     12  C   UNL     1      -2.119  12.524  19.488  0.00  0.00    +0.000 A 
ATOM     13  C   UNL     1      -2.331  11.513  18.558  0.00  0.00    +0.000 A 
ATOM     14 BR   UNL     1      -4.079  11.162  17.928  0.00  0.00    +0.000 Br
ATOM     15  C   UNL     1      -1.263  10.746  18.093  0.00  0.00    +0.000 A 
ENDBRANCH   5   9
BRANCH   1  17
ATOM     16  O   UNL     1       2.077   4.834  21.007  0.00  0.00    +0.000 OA
ATOM     17  N   UNL     1       2.874   5.380  20.233  0.00  0.00    +0.000 NA
ENDBRANCH   1  17
BRANCH   7  18
ATOM     18  O   UNL     1       3.419   6.143  17.619  0.00  0.00    +0.000 OA
BRANCH  18  19
ATOM     19  C   UNL     1       4.595   6.714  17.036  0.00  0.00    +0.000 C 
BRANCH  19  20
ATOM     20  C   UNL     1       5.657   5.609  16.868  0.00  0.00    +0.000 C 
ATOM     21  C   UNL     1       7.059   6.179  16.586  0.00  0.00    +0.000 C 
ATOM     22  C   UNL     1       7.696   6.839  17.810  0.00  0.00    +0.000 C 
ATOM     23  C   UNL     1       7.701   5.916  19.026  0.00  0.00    +0.000 C 
ATOM     24  C   UNL     1       6.322   5.332  19.321  0.00  0.00    +0.000 C 
ATOM     25  C   UNL     1       5.702   4.677  18.088  0.00  0.00    +0.000 C 
ENDBRANCH  19  20
ENDBRANCH  18  19
ENDBRANCH   7  18
TORSDOF 5
ENDMDL
MODEL 7
REMARK VINA RESULT:      -7.4      1.732      2.552
REMARK  Name = 
REMARK  5 active torsions:
REMARK  status: ('A' for Active; 'I' for Inactive)
REMARK    1  A    between atoms: N_2  and  C_3
REMARK    2  A    between atoms: N_7  and  C_8
REMARK    3  A    between atoms: C_16  and  O_17
REMARK    4  A    between atoms: O_17  and  C_18
REMARK    5  A    between atoms: C_18  and  C_19
REMARK                            x       y       z     vdW  Elec       q    Type
REMARK                         _______ _______ _______ _____ _____    ______ ____
ROOT
ATOM      1  C   UNL     1       3.851   6.987  17.806  0.00  0.00    +0.000 A 
ATOM      2  C   UNL     1       4.222   7.242  16.504  0.00  0.00    +0.000 A 
ATOM      3  N   UNL     1       5.168   6.553  15.828  0.00  0.00    +0.000 NA
ATOM      4  C   UNL     1       5.807   5.569  16.477  0.00  0.00    +0.000 A 
ATOM      5  N   UNL     1       6.787   4.835  15.818  0.00  0.00    +0.000 N 
ATOM      6  N   UNL     1       5.571   5.266  17.759  0.00  0.00    +0.000 NA
ATOM      7  C   UNL     1       4.593   5.969  18.391  0.00  0.00    +0.000 A 
ATOM      8  H   UNL     1       7.256   4.188  16.434  0.00  0.00    +0.000 HD
ENDROOT
BRANCH   5   9
ATOM      9  C   UNL     1       6.959   4.634  14.441  0.00  0.00    +0.000 A 
ATOM     10  C   UNL     1       7.836   5.463  13.730  0.00  0.00    +0.000 A 
ATOM     11  C   UNL     1       7.962   5.350  12.340  0.00  0.00    +0.000 A 
ATOM     12  C   UNL     1       7.225   4.391  11.647  0.00  0.00    +0.000 A 
ATOM     13  C   UNL     1       6.364   3.552  12.345  0.00  0.00    +0.000 A 
ATOM     14 BR   UNL     1       5.365   2.241  11.419  0.00  0.00    +0.000 Br
ATOM     15  C   UNL     1       6.224   3.677  13.727  0.00  0.00    +0.000 A 
ENDBRANCH   5   9
BRANCH   1  17
ATOM     16  O   UNL     1       1.977   8.135  17.763  0.00  0.00    +0.000 OA
ATOM     17  N   UNL     1       2.869   7.677  18.488  0.00  0.00    +0.000 NA
ENDBRANCH   1  17
BRANCH   7  18
ATOM     18  O   UNL     1       4.279   5.609  19.694  0.00  0.00    +0.000 OA
BRANCH  18  19
ATOM     19  C   UNL     1       3.950   4.224  19.851  0.00  0.00    +0.000 C 
BRANCH  19  20
ATOM     20  C   UNL     1       2.537   4.112  20.456  0.00  0.00    +0.000 C 
ATOM     21  C   UNL     1       1.454   4.698  19.533  0.00  0.00    +0.000 C 
ATOM     22  C   UNL     1       1.179   3.831  18.304  0.00  0.00    +0.000 C 
ATOM     23  C   UNL     1       0.873   2.383  18.677  0.00  0.00    +0.000 C 
ATOM     24  C   UNL     1       1.929   1.782  19.600  0.00  0.00    +0.000 C 
ATOM     25  C   UNL     1       2.190   2.661  20.821  0.00  0.00    +0.000 C 
ENDBRANCH  19  20
ENDBRANCH  18  19
ENDBRANCH   7  18
TORSDOF 5
ENDMDL
MODEL 8
REMARK VINA RESULT:      -7.4      4.637      8.371
REMARK  Name = 
REMARK  5 active torsions:
REMARK  status: ('A' for Active; 'I' for Inactive)
REMARK    1  A    between atoms: N_2  and  C_3
REMARK    2  A    between atoms: N_7  and  C_8
REMARK    3  A    between atoms: C_16  and  O_17
REMARK    4  A    between atoms: O_17  and  C_18
REMARK    5  A    between atoms: C_18  and  C_19
REMARK                            x       y       z     vdW  Elec       q    Type
REMARK                         _______ _______ _______ _____ _____    ______ ____
ROOT
ATOM      1  C   UNL     1       1.700   3.505  19.599  0.00  0.00    +0.000 A 
ATOM      2  C   UNL     1       0.769   4.265  20.272  0.00  0.00    +0.000 A 
ATOM      3  N   UNL     1       0.942   5.561  20.613  0.00  0.00    +0.000 NA
ATOM      4  C   UNL     1       2.109   6.140  20.297  0.00  0.00    +0.000 A 
ATOM      5  N   UNL     1       2.328   7.473  20.630  0.00  0.00    +0.000 N 
ATOM      6  N   UNL     1       3.109   5.486  19.693  0.00  0.00    +0.000 NA
ATOM      7  C   UNL     1       2.880   4.191  19.346  0.00  0.00    +0.000 A 
ATOM      8  H   UNL     1       3.270   7.767  20.422  0.00  0.00    +0.000 HD
ENDROOT
BRANCH   5   9
ATOM      9  C   UNL     1       1.388   8.486  20.867  0.00  0.00    +0.000 A 
ATOM     10  C   UNL     1       1.024   8.791  22.185  0.00  0.00    +0.000 A 
ATOM     11  C   UNL     1       0.023   9.732  22.453  0.00  0.00    +0.000 A 
ATOM     12  C   UNL     1      -0.615  10.393  21.405  0.00  0.00    +0.000 A 
ATOM     13  C   UNL     1      -0.250  10.109  20.094  0.00  0.00    +0.000 A 
ATOM     14 BR   UNL     1      -1.100  11.006  18.662  0.00  0.00    +0.000 Br
ATOM     15  C   UNL     1       0.734   9.159  19.824  0.00  0.00    +0.000 A 
ENDBRANCH   5   9
BRANCH   1  17
ATOM     16  O   UNL     1       0.391   1.945  18.772  0.00  0.00    +0.000 OA
ATOM     17  N   UNL     1       1.514   2.187  19.232  0.00  0.00    +0.000 NA
ENDBRANCH   1  17
BRANCH   7  18
ATOM     18  O   UNL     1       3.875   3.526  18.644  0.00  0.00    +0.000 OA
BRANCH  18  19
ATOM     19  C   UNL     1       5.019   4.336  18.349  0.00  0.00    +0.000 C 
BRANCH  19  20
ATOM     20  C   UNL     1       4.757   5.113  17.044  0.00  0.00    +0.000 C 
ATOM     21  C   UNL     1       5.713   6.306  16.867  0.00  0.00    +0.000 C 
ATOM     22  C   UNL     1       7.143   5.883  16.527  0.00  0.00    +0.000 C 
ATOM     23  C   UNL     1       7.196   4.942  15.327  0.00  0.00    +0.000 C 
ATOM     24  C   UNL     1       6.249   3.754  15.474  0.00  0.00    +0.000 C 
ATOM     25  C   UNL     1       4.827   4.195  15.814  0.00  0.00    +0.000 C 
ENDBRANCH  19  20
ENDBRANCH  18  19
ENDBRANCH   7  18
TORSDOF 5
ENDMDL
MODEL 9
REMARK VINA RESULT:      -7.4      4.956      8.638
REMARK  Name = 
REMARK  5 active torsions:
REMARK  status: ('A' for Active; 'I' for Inactive)
REMARK    1  A    between atoms: N_2  and  C_3
REMARK    2  A    between atoms: N_7  and  C_8
REMARK    3  A    between atoms: C_16  and  O_17
REMARK    4  A    between atoms: O_17  and  C_18
REMARK    5  A    between atoms: C_18  and  C_19
REMARK                            x       y       z     vdW  Elec       q    Type
REMARK                         _______ _______ _______ _____ _____    ______ ____
ROOT
ATOM      1  C   UNL     1       1.999   4.173  19.440  0.00  0.00    +0.000 A 
ATOM      2  C   UNL     1       1.472   4.777  20.560  0.00  0.00    +0.000 A 
ATOM      3  N   UNL     1       1.456   6.111  20.775  0.00  0.00    +0.000 NA
ATOM      4  C   UNL     1       2.013   6.900  19.845  0.00  0.00    +0.000 A 
ATOM      5  N   UNL     1       2.018   8.279  20.027  0.00  0.00    +0.000 N 
ATOM      6  N   UNL     1       2.605   6.424  18.743  0.00  0.00    +0.000 NA
ATOM      7  C   UNL     1       2.575   5.077  18.557  0.00  0.00    +0.000 A 
ATOM      8  H   UNL     1       2.543   8.756  19.309  0.00  0.00    +0.000 HD
ENDROOT
BRANCH   5   9
ATOM      9  C   UNL     1       1.163   9.066  20.812  0.00  0.00    +0.000 A 
ATOM     10  C   UNL     1       1.103   8.848  22.193  0.00  0.00    +0.000 A 
ATOM     11  C   UNL     1       0.194   9.551  22.993  0.00  0.00    +0.000 A 
ATOM     12  C   UNL     1      -0.654  10.497  22.420  0.00  0.00    +0.000 A 
ATOM     13  C   UNL     1      -0.592  10.734  21.051  0.00  0.00    +0.000 A 
ATOM     14 BR   UNL     1      -1.730  12.021  20.262  0.00  0.00    +0.000 Br
ATOM     15  C   UNL     1       0.300  10.020  20.251  0.00  0.00    +0.000 A 
ENDBRANCH   5   9
BRANCH   1  17
ATOM     16  O   UNL     1       0.977   2.399  18.643  0.00  0.00    +0.000 OA
ATOM     17  N   UNL     1       1.995   2.812  19.211  0.00  0.00    +0.000 NA
ENDBRANCH   1  17
BRANCH   7  18
ATOM     18  O   UNL     1       3.109   4.576  17.378  0.00  0.00    +0.000 OA
BRANCH  18  19
ATOM     19  C   UNL     1       4.265   5.284  16.917  0.00  0.00    +0.000 C 
BRANCH  19  20
ATOM     20  C   UNL     1       5.512   4.408  17.148  0.00  0.00    +0.000 C 
ATOM     21  C   UNL     1       6.756   4.953  16.425  0.00  0.00    +0.000 C 
ATOM     22  C   UNL     1       7.319   6.220  17.071  0.00  0.00    +0.000 C 
ATOM     23  C   UNL     1       7.575   6.040  18.564  0.00  0.00    +0.000 C 
ATOM     24  C   UNL     1       6.358   5.492  19.303  0.00  0.00    +0.000 C 
ATOM     25  C   UNL     1       5.809   4.229  18.644  0.00  0.00    +0.000 C 
ENDBRANCH  19  20
ENDBRANCH  18  19
ENDBRANCH   7  18
TORSDOF 5
ENDMDL
