MODEL 1
REMARK VINA RESULT:      -9.0      0.000      0.000
REMARK  Name = 
REMARK  10 active torsions:
REMARK  status: ('A' for Active; 'I' for Inactive)
REMARK    1  A    between atoms: C_1  and  C_2
REMARK    2  A    between atoms: C_7  and  O_8
REMARK    3  A    between atoms: O_8  and  C_9
REMARK    4  A    between atoms: C_9  and  C_10
REMARK    5  A    between atoms: N_12  and  C_13
REMARK    6  A    between atoms: C_17  and  C_18
REMARK    7  A    between atoms: C_18  and  O_20
REMARK    8  A    between atoms: O_20  and  C_21
REMARK    9  A    between atoms: C_21  and  C_22
REMARK   10  A    between atoms: C_27  and  C_28
REMARK                            x       y       z     vdW  Elec       q    Type
REMARK                         _______ _______ _______ _____ _____    ______ ____
ROOT
ATOM      1  C   UNL     1       6.464   6.415  16.881  0.00  0.00    +0.000 A 
ATOM      2  C   UNL     1       6.891   5.633  15.805  0.00  0.00    +0.000 A 
ATOM      3  C   UNL     1       6.393   4.341  15.631  0.00  0.00    +0.000 A 
ATOM      4  C   UNL     1       5.431   3.837  16.510  0.00  0.00    +0.000 A 
ATOM      5  C   UNL     1       4.996   4.615  17.593  0.00  0.00    +0.000 A 
ATOM      6  C   UNL     1       5.555   5.895  17.800  0.00  0.00    +0.000 A 
ENDROOT
BRANCH   1   9
ATOM      7  C   UNL     1       7.935   8.017  17.990  0.00  0.00    +0.000 C 
ATOM      8  O   UNL     1       8.453   7.190  18.738  0.00  0.00    +0.000 OA
ATOM      9  N   UNL     1       6.942   7.732  17.053  0.00  0.00    +0.000 N 
ATOM     10  H   UNL     1       6.933   8.340  16.243  0.00  0.00    +0.000 HD
BRANCH   7  11
ATOM     11  C   UNL     1       8.342   9.495  18.022  0.00  0.00    +0.000 C 
BRANCH  11  12
ATOM     12  O   UNL     1       9.095   9.826  19.173  0.00  0.00    +0.000 OA
BRANCH  12  19
ATOM     13  C   UNL     1       9.264  11.937  21.543  0.00  0.00    +0.000 C 
ATOM     14  C   UNL     1       9.962  11.953  20.212  0.00  0.00    +0.000 A 
ATOM     15  C   UNL     1      10.802  13.068  19.977  0.00  0.00    +0.000 A 
ATOM     16  C   UNL     1      11.513  13.221  18.789  0.00  0.00    +0.000 A 
ATOM     17  C   UNL     1      11.404  12.254  17.805  0.00  0.00    +0.000 A 
ATOM     18  C   UNL     1      10.580  11.144  18.016  0.00  0.00    +0.000 A 
ATOM     19  C   UNL     1       9.848  10.974  19.207  0.00  0.00    +0.000 A 
ENDBRANCH  12  19
ENDBRANCH  11  12
ENDBRANCH   7  11
ENDBRANCH   1   9
BRANCH   5  20
ATOM     20  C   UNL     1       3.920   4.148  18.516  0.00  0.00    +0.000 C 
ATOM     21  O   UNL     1       3.324   3.096  18.353  0.00  0.00    +0.000 OA
BRANCH  20  22
ATOM     22  O   UNL     1       3.738   5.025  19.529  0.00  0.00    +0.000 OA
BRANCH  22  23
ATOM     23  C   UNL     1       2.382   5.232  19.956  0.00  0.00    +0.000 C 
BRANCH  23  24
ATOM     24  C   UNL     1       2.013   6.696  19.805  0.00  0.00    +0.000 A 
ATOM     25  C   UNL     1       2.236   7.333  18.646  0.00  0.00    +0.000 A 
ATOM     26  C   UNL     1       1.893   8.765  18.511  0.00  0.00    +0.000 A 
ATOM     27  O   UNL     1       2.128   9.305  17.440  0.00  0.00    +0.000 OA
ATOM     28  N   UNL     1       1.344   9.340  19.634  0.00  0.00    +0.000 N 
ATOM     29  C   UNL     1       0.924  10.662  19.791  0.00  0.00    +0.000 A 
ATOM     30  C   UNL     1       0.960  11.707  18.722  0.00  0.00    +0.000 C 
ATOM     31  C   UNL     1       0.456  10.926  21.023  0.00  0.00    +0.000 A 
ATOM     32  S   UNL     1       0.509   9.540  22.064  0.00  0.00    +0.000 S 
ATOM     33  C   UNL     1       1.188   8.567  20.771  0.00  0.00    +0.000 A 
ATOM     34  N   UNL     1       1.487   7.320  20.914  0.00  0.00    +0.000 NA
ENDBRANCH  23  24
ENDBRANCH  22  23
ENDBRANCH  20  22
ENDBRANCH   5  20
TORSDOF 8
ENDMDL
MODEL 2
REMARK VINA RESULT:      -8.3      4.525      6.532
REMARK  Name = 
REMARK  10 active torsions:
REMARK  status: ('A' for Active; 'I' for Inactive)
REMARK    1  A    between atoms: C_1  and  C_2
REMARK    2  A    between atoms: C_7  and  O_8
REMARK    3  A    between atoms: O_8  and  C_9
REMARK    4  A    between atoms: C_9  and  C_10
REMARK    5  A    between atoms: N_12  and  C_13
REMARK    6  A    between atoms: C_17  and  C_18
REMARK    7  A    between atoms: C_18  and  O_20
REMARK    8  A    between atoms: O_20  and  C_21
REMARK    9  A    between atoms: C_21  and  C_22
REMARK   10  A    between atoms: C_27  and  C_28
REMARK                            x       y       z     vdW  Elec       q    Type
REMARK                         _______ _______ _______ _____ _____    ______ ____
ROOT
ATOM      1  C   UNL     1       3.915   5.109  18.620  0.00  0.00    +0.000 A 
ATOM      2  C   UNL     1       3.446   4.058  19.413  0.00  0.00    +0.000 A 
ATOM      3  C   UNL     1       2.466   4.288  20.380  0.00  0.00    +0.000 A 
ATOM      4  C   UNL     1       1.917   5.564  20.531  0.00  0.00    +0.000 A 
ATOM      5  C   UNL     1       2.381   6.624  19.739  0.00  0.00    +0.000 A 
ATOM      6  C   UNL     1       3.420   6.398  18.811  0.00  0.00    +0.000 A 
ENDROOT
BRANCH   1   9
ATOM      7  C   UNL     1       6.235   5.149  17.863  0.00  0.00    +0.000 C 
ATOM      8  O   UNL     1       6.685   5.603  18.914  0.00  0.00    +0.000 OA
ATOM      9  N   UNL     1       4.888   4.884  17.623  0.00  0.00    +0.000 N 
ATOM     10  H   UNL     1       4.711   4.137  16.960  0.00  0.00    +0.000 HD
BRANCH   7  11
ATOM     11  C   UNL     1       7.147   4.825  16.673  0.00  0.00    +0.000 C 
BRANCH  11  12
ATOM     12  O   UNL     1       6.805   5.556  15.512  0.00  0.00    +0.000 OA
BRANCH  12  19
ATOM     13  C   UNL     1       8.777   5.886  13.042  0.00  0.00    +0.000 C 
ATOM     14  C   UNL     1       7.544   5.034  13.159  0.00  0.00    +0.000 A 
ATOM     15  C   UNL     1       7.210   4.285  12.006  0.00  0.00    +0.000 A 
ATOM     16  C   UNL     1       6.094   3.451  11.965  0.00  0.00    +0.000 A 
ATOM     17  C   UNL     1       5.287   3.343  13.084  0.00  0.00    +0.000 A 
ATOM     18  C   UNL     1       5.600   4.075  14.234  0.00  0.00    +0.000 A 
ATOM     19  C   UNL     1       6.718   4.928  14.293  0.00  0.00    +0.000 A 
ENDBRANCH  12  19
ENDBRANCH  11  12
ENDBRANCH   7  11
ENDBRANCH   1   9
BRANCH   5  20
ATOM     20  C   UNL     1       1.777   7.987  19.816  0.00  0.00    +0.000 C 
ATOM     21  O   UNL     1       1.460   8.508  20.873  0.00  0.00    +0.000 OA
BRANCH  20  22
ATOM     22  O   UNL     1       1.667   8.536  18.586  0.00  0.00    +0.000 OA
BRANCH  22  23
ATOM     23  C   UNL     1       1.517   9.965  18.538  0.00  0.00    +0.000 C 
BRANCH  23  24
ATOM     24  C   UNL     1       0.044  10.325  18.460  0.00  0.00    +0.000 A 
ATOM     25  C   UNL     1      -0.726   9.811  17.491  0.00  0.00    +0.000 A 
ATOM     26  C   UNL     1      -2.156  10.181  17.407  0.00  0.00    +0.000 A 
ATOM     27  O   UNL     1      -2.813   9.698  16.498  0.00  0.00    +0.000 OA
ATOM     28  N   UNL     1      -2.588  11.051  18.382  0.00  0.00    +0.000 N 
ATOM     29  C   UNL     1      -3.876  11.563  18.550  0.00  0.00    +0.000 A 
ATOM     30  C   UNL     1      -5.057  11.213  17.702  0.00  0.00    +0.000 C 
ATOM     31  C   UNL     1      -3.976  12.417  19.583  0.00  0.00    +0.000 A 
ATOM     32  S   UNL     1      -2.467  12.635  20.410  0.00  0.00    +0.000 S 
ATOM     33  C   UNL     1      -1.677  11.518  19.312  0.00  0.00    +0.000 A 
ATOM     34  N   UNL     1      -0.426  11.216  19.398  0.00  0.00    +0.000 NA
ENDBRANCH  23  24
ENDBRANCH  22  23
ENDBRANCH  20  22
ENDBRANCH   5  20
TORSDOF 8
ENDMDL
MODEL 3
REMARK VINA RESULT:      -8.2      1.766      2.127
REMARK  Name = 
REMARK  10 active torsions:
REMARK  status: ('A' for Active; 'I' for Inactive)
REMARK    1  A    between atoms: C_1  and  C_2
REMARK    2  A    between atoms: C_7  and  O_8
REMARK    3  A    between atoms: O_8  and  C_9
REMARK    4  A    between atoms: C_9  and  C_10
REMARK    5  A    between atoms: N_12  and  C_13
REMARK    6  A    between atoms: C_17  and  C_18
REMARK    7  A    between atoms: C_18  and  O_20
REMARK    8  A    between atoms: O_20  and  C_21
REMARK    9  A    between atoms: C_21  and  C_22
REMARK   10  A    between atoms: C_27  and  C_28
REMARK                            x       y       z     vdW  Elec       q    Type
REMARK                         _______ _______ _______ _____ _____    ______ ____
ROOT
ATOM      1  C   UNL     1       6.600   5.989  17.675  0.00  0.00    +0.000 A 
ATOM      2  C   UNL     1       6.898   5.068  16.669  0.00  0.00    +0.000 A 
ATOM      3  C   UNL     1       5.890   4.275  16.117  0.00  0.00    +0.000 A 
ATOM      4  C   UNL     1       4.567   4.431  16.540  0.00  0.00    +0.000 A 
ATOM      5  C   UNL     1       4.258   5.354  17.549  0.00  0.00    +0.000 A 
ATOM      6  C   UNL     1       5.294   6.102  18.149  0.00  0.00    +0.000 A 
ENDROOT
BRANCH   1   9
ATOM      7  C   UNL     1       7.707   8.157  17.864  0.00  0.00    +0.000 C 
ATOM      8  O   UNL     1       6.973   8.724  17.055  0.00  0.00    +0.000 OA
ATOM      9  N   UNL     1       7.606   6.813  18.223  0.00  0.00    +0.000 N 
ATOM     10  H   UNL     1       7.926   6.598  19.160  0.00  0.00    +0.000 HD
BRANCH   7  11
ATOM     11  C   UNL     1       8.845   8.899  18.573  0.00  0.00    +0.000 C 
BRANCH  11  12
ATOM     12  O   UNL     1       8.868  10.279  18.267  0.00  0.00    +0.000 OA
BRANCH  12  19
ATOM     13  C   UNL     1       9.112  11.291  21.270  0.00  0.00    +0.000 C 
ATOM     14  C   UNL     1      10.005  11.587  20.098  0.00  0.00    +0.000 A 
ATOM     15  C   UNL     1      11.100  12.443  20.367  0.00  0.00    +0.000 A 
ATOM     16  C   UNL     1      12.013  12.807  19.380  0.00  0.00    +0.000 A 
ATOM     17  C   UNL     1      11.855  12.316  18.095  0.00  0.00    +0.000 A 
ATOM     18  C   UNL     1      10.780  11.468  17.809  0.00  0.00    +0.000 A 
ATOM     19  C   UNL     1       9.842  11.094  18.790  0.00  0.00    +0.000 A 
ENDBRANCH  12  19
ENDBRANCH  11  12
ENDBRANCH   7  11
ENDBRANCH   1   9
BRANCH   5  20
ATOM     20  C   UNL     1       2.853   5.604  17.984  0.00  0.00    +0.000 C 
ATOM     21  O   UNL     1       1.945   4.821  17.759  0.00  0.00    +0.000 OA
BRANCH  20  22
ATOM     22  O   UNL     1       2.756   6.771  18.659  0.00  0.00    +0.000 OA
BRANCH  22  23
ATOM     23  C   UNL     1       2.253   6.690  20.003  0.00  0.00    +0.000 C 
BRANCH  23  24
ATOM     24  C   UNL     1       1.615   8.011  20.393  0.00  0.00    +0.000 A 
ATOM     25  C   UNL     1       1.409   8.306  21.685  0.00  0.00    +0.000 A 
ATOM     26  C   UNL     1       0.768   9.585  22.059  0.00  0.00    +0.000 A 
ATOM     27  O   UNL     1       0.589   9.802  23.248  0.00  0.00    +0.000 OA
ATOM     28  N   UNL     1       0.433  10.398  21.001  0.00  0.00    +0.000 N 
ATOM     29  C   UNL     1      -0.173  11.655  21.056  0.00  0.00    +0.000 A 
ATOM     30  C   UNL     1      -0.539  12.378  22.312  0.00  0.00    +0.000 C 
ATOM     31  C   UNL     1      -0.398  12.188  19.843  0.00  0.00    +0.000 A 
ATOM     32  S   UNL     1       0.134  11.154  18.555  0.00  0.00    +0.000 S 
ATOM     33  C   UNL     1       0.687   9.958  19.714  0.00  0.00    +0.000 A 
ATOM     34  N   UNL     1       1.236   8.844  19.365  0.00  0.00    +0.000 NA
ENDBRANCH  23  24
ENDBRANCH  22  23
ENDBRANCH  20  22
ENDBRANCH   5  20
TORSDOF 8
ENDMDL
MODEL 4
REMARK VINA RESULT:      -8.2      3.085      4.529
REMARK  Name = 
REMARK  10 active torsions:
REMARK  status: ('A' for Active; 'I' for Inactive)
REMARK    1  A    between atoms: C_1  and  C_2
REMARK    2  A    between atoms: C_7  and  O_8
REMARK    3  A    between atoms: O_8  and  C_9
REMARK    4  A    between atoms: C_9  and  C_10
REMARK    5  A    between atoms: N_12  and  C_13
REMARK    6  A    between atoms: C_17  and  C_18
REMARK    7  A    between atoms: C_18  and  O_20
REMARK    8  A    between atoms: O_20  and  C_21
REMARK    9  A    between atoms: C_21  and  C_22
REMARK   10  A    between atoms: C_27  and  C_28
REMARK                            x       y       z     vdW  Elec       q    Type
REMARK                         _______ _______ _______ _____ _____    ______ ____
ROOT
ATOM      1  C   UNL     1       7.700   7.763  17.728  0.00  0.00    +0.000 A 
ATOM      2  C   UNL     1       8.011   7.145  18.942  0.00  0.00    +0.000 A 
ATOM      3  C   UNL     1       7.966   5.755  19.057  0.00  0.00    +0.000 A 
ATOM      4  C   UNL     1       7.648   4.970  17.945  0.00  0.00    +0.000 A 
ATOM      5  C   UNL     1       7.335   5.582  16.723  0.00  0.00    +0.000 A 
ATOM      6  C   UNL     1       7.317   6.991  16.633  0.00  0.00    +0.000 A 
ENDROOT
BRANCH   1   9
ATOM      7  C   UNL     1       8.646   9.920  18.370  0.00  0.00    +0.000 C 
ATOM      8  O   UNL     1       9.399   9.458  19.225  0.00  0.00    +0.000 OA
ATOM      9  N   UNL     1       7.767   9.166  17.593  0.00  0.00    +0.000 N 
ATOM     10  H   UNL     1       7.563   9.557  16.680  0.00  0.00    +0.000 HD
BRANCH   7  11
ATOM     11  C   UNL     1       8.595  11.423  18.072  0.00  0.00    +0.000 C 
BRANCH  11  12
ATOM     12  O   UNL     1       9.448  12.173  18.914  0.00  0.00    +0.000 OA
BRANCH  12  19
ATOM     13  C   UNL     1      11.450  13.287  16.710  0.00  0.00    +0.000 C 
ATOM     14  C   UNL     1      10.600  14.051  17.687  0.00  0.00    +0.000 A 
ATOM     15  C   UNL     1      10.715  15.460  17.623  0.00  0.00    +0.000 A 
ATOM     16  C   UNL     1       9.990  16.300  18.466  0.00  0.00    +0.000 A 
ATOM     17  C   UNL     1       9.124  15.746  19.393  0.00  0.00    +0.000 A 
ATOM     18  C   UNL     1       8.994  14.356  19.472  0.00  0.00    +0.000 A 
ATOM     19  C   UNL     1       9.723  13.490  18.634  0.00  0.00    +0.000 A 
ENDBRANCH  12  19
ENDBRANCH  11  12
ENDBRANCH   7  11
ENDBRANCH   1   9
BRANCH   5  20
ATOM     20  C   UNL     1       7.059   4.785  15.492  0.00  0.00    +0.000 C 
ATOM     21  O   UNL     1       7.626   4.994  14.432  0.00  0.00    +0.000 OA
BRANCH  20  22
ATOM     22  O   UNL     1       6.141   3.823  15.734  0.00  0.00    +0.000 OA
BRANCH  22  23
ATOM     23  C   UNL     1       4.763   4.205  15.586  0.00  0.00    +0.000 C 
BRANCH  23  24
ATOM     24  C   UNL     1       4.053   4.094  16.923  0.00  0.00    +0.000 A 
ATOM     25  C   UNL     1       3.812   2.890  17.462  0.00  0.00    +0.000 A 
ATOM     26  C   UNL     1       3.101   2.786  18.755  0.00  0.00    +0.000 A 
ATOM     27  O   UNL     1       2.893   1.667  19.198  0.00  0.00    +0.000 OA
ATOM     28  N   UNL     1       2.741   3.989  19.317  0.00  0.00    +0.000 N 
ATOM     29  C   UNL     1       2.071   4.194  20.525  0.00  0.00    +0.000 A 
ATOM     30  C   UNL     1       1.649   3.112  21.467  0.00  0.00    +0.000 C 
ATOM     31  C   UNL     1       1.837   5.491  20.788  0.00  0.00    +0.000 A 
ATOM     32  S   UNL     1       2.441   6.539  19.545  0.00  0.00    +0.000 S 
ATOM     33  C   UNL     1       3.037   5.158  18.639  0.00  0.00    +0.000 A 
ATOM     34  N   UNL     1       3.648   5.271  17.509  0.00  0.00    +0.000 NA
ENDBRANCH  23  24
ENDBRANCH  22  23
ENDBRANCH  20  22
ENDBRANCH   5  20
TORSDOF 8
ENDMDL
MODEL 5
REMARK VINA RESULT:      -8.1      4.376      7.863
REMARK  Name = 
REMARK  10 active torsions:
REMARK  status: ('A' for Active; 'I' for Inactive)
REMARK    1  A    between atoms: C_1  and  C_2
REMARK    2  A    between atoms: C_7  and  O_8
REMARK    3  A    between atoms: O_8  and  C_9
REMARK    4  A    between atoms: C_9  and  C_10
REMARK    5  A    between atoms: N_12  and  C_13
REMARK    6  A    between atoms: C_17  and  C_18
REMARK    7  A    between atoms: C_18  and  O_20
REMARK    8  A    between atoms: O_20  and  C_21
REMARK    9  A    between atoms: C_21  and  C_22
REMARK   10  A    between atoms: C_27  and  C_28
REMARK                            x       y       z     vdW  Elec       q    Type
REMARK                         _______ _______ _______ _____ _____    ______ ____
ROOT
ATOM      1  C   UNL     1       2.197   7.573  19.526  0.00  0.00    +0.000 A 
ATOM      2  C   UNL     1       2.199   8.192  18.273  0.00  0.00    +0.000 A 
ATOM      3  C   UNL     1       1.432   9.336  18.050  0.00  0.00    +0.000 A 
ATOM      4  C   UNL     1       0.689   9.895  19.094  0.00  0.00    +0.000 A 
ATOM      5  C   UNL     1       0.681   9.282  20.354  0.00  0.00    +0.000 A 
ATOM      6  C   UNL     1       1.406   8.087  20.552  0.00  0.00    +0.000 A 
ENDROOT
BRANCH   1   9
ATOM      7  C   UNL     1       2.726   5.226  19.118  0.00  0.00    +0.000 C 
ATOM      8  O   UNL     1       1.810   5.045  18.318  0.00  0.00    +0.000 OA
ATOM      9  N   UNL     1       2.987   6.431  19.770  0.00  0.00    +0.000 N 
ATOM     10  H   UNL     1       3.959   6.580  20.016  0.00  0.00    +0.000 HD
BRANCH   7  11
ATOM     11  C   UNL     1       3.699   4.101  19.492  0.00  0.00    +0.000 C 
BRANCH  11  12
ATOM     12  O   UNL     1       5.052   4.507  19.420  0.00  0.00    +0.000 OA
BRANCH  12  19
ATOM     13  C   UNL     1       7.756   6.048  18.773  0.00  0.00    +0.000 C 
ATOM     14  C   UNL     1       6.879   5.250  17.849  0.00  0.00    +0.000 A 
ATOM     15  C   UNL     1       7.312   5.185  16.503  0.00  0.00    +0.000 A 
ATOM     16  C   UNL     1       6.602   4.482  15.531  0.00  0.00    +0.000 A 
ATOM     17  C   UNL     1       5.439   3.821  15.887  0.00  0.00    +0.000 A 
ATOM     18  C   UNL     1       4.995   3.872  17.212  0.00  0.00    +0.000 A 
ATOM     19  C   UNL     1       5.694   4.582  18.207  0.00  0.00    +0.000 A 
ENDBRANCH  12  19
ENDBRANCH  11  12
ENDBRANCH   7  11
ENDBRANCH   1   9
BRANCH   5  20
ATOM     20  C   UNL     1      -0.040   9.880  21.516  0.00  0.00    +0.000 C 
ATOM     21  O   UNL     1       0.116   9.486  22.661  0.00  0.00    +0.000 OA
BRANCH  20  22
ATOM     22  O   UNL     1      -0.836  10.898  21.120  0.00  0.00    +0.000 OA
BRANCH  22  23
ATOM     23  C   UNL     1      -0.832  12.070  21.951  0.00  0.00    +0.000 C 
BRANCH  23  24
ATOM     24  C   UNL     1      -2.257  12.458  22.300  0.00  0.00    +0.000 A 
ATOM     25  C   UNL     1      -2.800  12.060  23.460  0.00  0.00    +0.000 A 
ATOM     26  C   UNL     1      -4.197  12.423  23.787  0.00  0.00    +0.000 A 
ATOM     27  O   UNL     1      -4.651  12.026  24.848  0.00  0.00    +0.000 OA
ATOM     28  N   UNL     1      -4.839  13.177  22.831  0.00  0.00    +0.000 N 
ATOM     29  C   UNL     1      -6.147  13.663  22.873  0.00  0.00    +0.000 A 
ATOM     30  C   UNL     1      -7.095  13.480  24.015  0.00  0.00    +0.000 C 
ATOM     31  C   UNL     1      -6.494  14.346  21.769  0.00  0.00    +0.000 A 
ATOM     32  S   UNL     1      -5.209  14.426  20.608  0.00  0.00    +0.000 S 
ATOM     33  C   UNL     1      -4.162  13.500  21.669  0.00  0.00    +0.000 A 
ATOM     34  N   UNL     1      -2.949  13.188  21.360  0.00  0.00    +0.000 NA
ENDBRANCH  23  24
ENDBRANCH  22  23
ENDBRANCH  20  22
ENDBRANCH   5  20
TORSDOF 8
ENDMDL
MODEL 6
REMARK VINA RESULT:      -8.1      1.539      1.948
REMARK  Name = 
REMARK  10 active torsions:
REMARK  status: ('A' for Active; 'I' for Inactive)
REMARK    1  A    between atoms: C_1  and  C_2
REMARK    2  A    between atoms: C_7  and  O_8
REMARK    3  A    between atoms: O_8  and  C_9
REMARK    4  A    between atoms: C_9  and  C_10
REMARK    5  A    between atoms: N_12  and  C_13
REMARK    6  A    between atoms: C_17  and  C_18
REMARK    7  A    between atoms: C_18  and  O_20
REMARK    8  A    between atoms: O_20  and  C_21
REMARK    9  A    between atoms: C_21  and  C_22
REMARK   10  A    between atoms: C_27  and  C_28
REMARK                            x       y       z     vdW  Elec       q    Type
REMARK                         _______ _______ _______ _____ _____    ______ ____
ROOT
ATOM      1  C   UNL     1       6.287   6.221  16.779  0.00  0.00    +0.000 A 
ATOM      2  C   UNL     1       6.596   5.354  15.728  0.00  0.00    +0.000 A 
ATOM      3  C   UNL     1       6.044   4.073  15.685  0.00  0.00    +0.000 A 
ATOM      4  C   UNL     1       5.143   3.665  16.673  0.00  0.00    +0.000 A 
ATOM      5  C   UNL     1       4.827   4.529  17.731  0.00  0.00    +0.000 A 
ATOM      6  C   UNL     1       5.443   5.797  17.803  0.00  0.00    +0.000 A 
ENDROOT
BRANCH   1   9
ATOM      7  C   UNL     1       7.771   7.884  17.776  0.00  0.00    +0.000 C 
ATOM      8  O   UNL     1       8.202   7.134  18.650  0.00  0.00    +0.000 OA
ATOM      9  N   UNL     1       6.820   7.527  16.819  0.00  0.00    +0.000 N 
ATOM     10  H   UNL     1       6.889   8.030  15.942  0.00  0.00    +0.000 HD
BRANCH   7  11
ATOM     11  C   UNL     1       8.250   9.335  17.654  0.00  0.00    +0.000 C 
BRANCH  11  12
ATOM     12  O   UNL     1       8.609   9.895  18.902  0.00  0.00    +0.000 OA
BRANCH  12  19
ATOM     13  C   UNL     1       8.043  12.586  17.308  0.00  0.00    +0.000 C 
ATOM     14  C   UNL     1       9.148  12.278  18.280  0.00  0.00    +0.000 A 
ATOM     15  C   UNL     1      10.070  13.328  18.508  0.00  0.00    +0.000 A 
ATOM     16  C   UNL     1      11.146  13.189  19.381  0.00  0.00    +0.000 A 
ATOM     17  C   UNL     1      11.323  11.993  20.055  0.00  0.00    +0.000 A 
ATOM     18  C   UNL     1      10.424  10.943  19.844  0.00  0.00    +0.000 A 
ATOM     19  C   UNL     1       9.333  11.061  18.961  0.00  0.00    +0.000 A 
ENDBRANCH  12  19
ENDBRANCH  11  12
ENDBRANCH   7  11
ENDBRANCH   1   9
BRANCH   5  20
ATOM     20  C   UNL     1       3.819   4.165  18.770  0.00  0.00    +0.000 C 
ATOM     21  O   UNL     1       3.928   3.175  19.474  0.00  0.00    +0.000 OA
BRANCH  20  22
ATOM     22  O   UNL     1       2.826   5.081  18.821  0.00  0.00    +0.000 OA
BRANCH  22  23
ATOM     23  C   UNL     1       2.272   5.348  20.121  0.00  0.00    +0.000 C 
BRANCH  23  24
ATOM     24  C   UNL     1       1.864   6.806  20.216  0.00  0.00    +0.000 A 
ATOM     25  C   UNL     1       1.298   7.278  21.336  0.00  0.00    +0.000 A 
ATOM     26  C   UNL     1       0.884   8.695  21.417  0.00  0.00    +0.000 A 
ATOM     27  O   UNL     1       0.360   9.074  22.453  0.00  0.00    +0.000 OA
ATOM     28  N   UNL     1       1.135   9.439  20.286  0.00  0.00    +0.000 N 
ATOM     29  C   UNL     1       0.857  10.792  20.082  0.00  0.00    +0.000 A 
ATOM     30  C   UNL     1       0.257  11.708  21.100  0.00  0.00    +0.000 C 
ATOM     31  C   UNL     1       1.196  11.223  18.855  0.00  0.00    +0.000 A 
ATOM     32  S   UNL     1       1.886   9.966  17.878  0.00  0.00    +0.000 S 
ATOM     33  C   UNL     1       1.709   8.816  19.192  0.00  0.00    +0.000 A 
ATOM     34  N   UNL     1       2.070   7.581  19.097  0.00  0.00    +0.000 NA
ENDBRANCH  23  24
ENDBRANCH  22  23
ENDBRANCH  20  22
ENDBRANCH   5  20
TORSDOF 8
ENDMDL
MODEL 7
REMARK VINA RESULT:      -8.1      4.735      6.238
REMARK  Name = 
REMARK  10 active torsions:
REMARK  status: ('A' for Active; 'I' for Inactive)
REMARK    1  A    between atoms: C_1  and  C_2
REMARK    2  A    between atoms: C_7  and  O_8
REMARK    3  A    between atoms: O_8  and  C_9
REMARK    4  A    between atoms: C_9  and  C_10
REMARK    5  A    between atoms: N_12  and  C_13
REMARK    6  A    between atoms: C_17  and  C_18
REMARK    7  A    between atoms: C_18  and  O_20
REMARK    8  A    between atoms: O_20  and  C_21
REMARK    9  A    between atoms: C_21  and  C_22
REMARK   10  A    between atoms: C_27  and  C_28
REMARK                            x       y       z     vdW  Elec       q    Type
REMARK                         _______ _______ _______ _____ _____    ______ ____
ROOT
ATOM      1  C   UNL     1       3.772   3.221  18.062  0.00  0.00    +0.000 A 
ATOM      2  C   UNL     1       2.772   2.435  17.484  0.00  0.00    +0.000 A 
ATOM      3  C   UNL     1       1.530   2.304  18.107  0.00  0.00    +0.000 A 
ATOM      4  C   UNL     1       1.265   2.995  19.293  0.00  0.00    +0.000 A 
ATOM      5  C   UNL     1       2.263   3.786  19.879  0.00  0.00    +0.000 A 
ATOM      6  C   UNL     1       3.538   3.859  19.279  0.00  0.00    +0.000 A 
ENDROOT
BRANCH   1   9
ATOM      7  C   UNL     1       5.487   4.645  17.066  0.00  0.00    +0.000 C 
ATOM      8  O   UNL     1       4.869   5.695  17.238  0.00  0.00    +0.000 OA
ATOM      9  N   UNL     1       5.023   3.381  17.428  0.00  0.00    +0.000 N 
ATOM     10  H   UNL     1       5.748   2.709  17.652  0.00  0.00    +0.000 HD
BRANCH   7  11
ATOM     11  C   UNL     1       6.872   4.626  16.409  0.00  0.00    +0.000 C 
BRANCH  11  12
ATOM     12  O   UNL     1       6.932   5.427  15.245  0.00  0.00    +0.000 OA
BRANCH  12  19
ATOM     13  C   UNL     1       8.854   5.988  12.777  0.00  0.00    +0.000 C 
ATOM     14  C   UNL     1       7.676   5.059  12.864  0.00  0.00    +0.000 A 
ATOM     15  C   UNL     1       7.374   4.344  11.680  0.00  0.00    +0.000 A 
ATOM     16  C   UNL     1       6.310   3.447  11.609  0.00  0.00    +0.000 A 
ATOM     17  C   UNL     1       5.522   3.240  12.728  0.00  0.00    +0.000 A 
ATOM     18  C   UNL     1       5.804   3.936  13.908  0.00  0.00    +0.000 A 
ATOM     19  C   UNL     1       6.870   4.851  13.999  0.00  0.00    +0.000 A 
ENDBRANCH  12  19
ENDBRANCH  11  12
ENDBRANCH   7  11
ENDBRANCH   1   9
BRANCH   5  20
ATOM     20  C   UNL     1       2.005   4.597  21.106  0.00  0.00    +0.000 C 
ATOM     21  O   UNL     1       2.377   4.249  22.215  0.00  0.00    +0.000 OA
BRANCH  20  22
ATOM     22  O   UNL     1       1.346   5.738  20.802  0.00  0.00    +0.000 OA
BRANCH  22  23
ATOM     23  C   UNL     1       2.156   6.845  20.374  0.00  0.00    +0.000 C 
BRANCH  23  24
ATOM     24  C   UNL     1       1.470   8.151  20.731  0.00  0.00    +0.000 A 
ATOM     25  C   UNL     1       1.124   8.407  22.001  0.00  0.00    +0.000 A 
ATOM     26  C   UNL     1       0.438   9.672  22.341  0.00  0.00    +0.000 A 
ATOM     27  O   UNL     1       0.130   9.853  23.509  0.00  0.00    +0.000 OA
ATOM     28  N   UNL     1       0.214  10.516  21.277  0.00  0.00    +0.000 N 
ATOM     29  C   UNL     1      -0.403  11.768  21.303  0.00  0.00    +0.000 A 
ATOM     30  C   UNL     1      -0.907  12.451  22.534  0.00  0.00    +0.000 C 
ATOM     31  C   UNL     1      -0.499  12.336  20.089  0.00  0.00    +0.000 A 
ATOM     32  S   UNL     1       0.177  11.343  18.837  0.00  0.00    +0.000 S 
ATOM     33  C   UNL     1       0.609  10.115  20.013  0.00  0.00    +0.000 A 
ATOM     34  N   UNL     1       1.200   9.014  19.693  0.00  0.00    +0.000 NA
ENDBRANCH  23  24
ENDBRANCH  22  23
ENDBRANCH  20  22
ENDBRANCH   5  20
TORSDOF 8
ENDMDL
MODEL 8
REMARK VINA RESULT:      -8.1      4.010      6.994
REMARK  Name = 
REMARK  10 active torsions:
REMARK  status: ('A' for Active; 'I' for Inactive)
REMARK    1  A    between atoms: C_1  and  C_2
REMARK    2  A    between atoms: C_7  and  O_8
REMARK    3  A    between atoms: O_8  and  C_9
REMARK    4  A    between atoms: C_9  and  C_10
REMARK    5  A    between atoms: N_12  and  C_13
REMARK    6  A    between atoms: C_17  and  C_18
REMARK    7  A    between atoms: C_18  and  O_20
REMARK    8  A    between atoms: O_20  and  C_21
REMARK    9  A    between atoms: C_21  and  C_22
REMARK   10  A    between atoms: C_27  and  C_28
REMARK                            x       y       z     vdW  Elec       q    Type
REMARK                         _______ _______ _______ _____ _____    ______ ____
ROOT
ATOM      1  C   UNL     1       2.453   7.304  19.511  0.00  0.00    +0.000 A 
ATOM      2  C   UNL     1       2.452   8.001  18.301  0.00  0.00    +0.000 A 
ATOM      3  C   UNL     1       1.687   9.159  18.153  0.00  0.00    +0.000 A 
ATOM      4  C   UNL     1       0.949   9.651  19.233  0.00  0.00    +0.000 A 
ATOM      5  C   UNL     1       0.944   8.959  20.452  0.00  0.00    +0.000 A 
ATOM      6  C   UNL     1       1.666   7.752  20.571  0.00  0.00    +0.000 A 
ENDROOT
BRANCH   1   9
ATOM      7  C   UNL     1       2.888   4.942  19.070  0.00  0.00    +0.000 C 
ATOM      8  O   UNL     1       1.887   4.776  18.375  0.00  0.00    +0.000 OA
ATOM      9  N   UNL     1       3.242   6.146  19.679  0.00  0.00    +0.000 N 
ATOM     10  H   UNL     1       4.237   6.277  19.818  0.00  0.00    +0.000 HD
BRANCH   7  11
ATOM     11  C   UNL     1       3.872   3.800  19.347  0.00  0.00    +0.000 C 
BRANCH  11  12
ATOM     12  O   UNL     1       5.221   4.209  19.240  0.00  0.00    +0.000 OA
BRANCH  12  19
ATOM     13  C   UNL     1       7.662   6.162  18.667  0.00  0.00    +0.000 C 
ATOM     14  C   UNL     1       6.825   5.384  17.690  0.00  0.00    +0.000 A 
ATOM     15  C   UNL     1       7.164   5.554  16.327  0.00  0.00    +0.000 A 
ATOM     16  C   UNL     1       6.477   4.898  15.307  0.00  0.00    +0.000 A 
ATOM     17  C   UNL     1       5.433   4.048  15.631  0.00  0.00    +0.000 A 
ATOM     18  C   UNL     1       5.083   3.866  16.972  0.00  0.00    +0.000 A 
ATOM     19  C   UNL     1       5.760   4.525  18.017  0.00  0.00    +0.000 A 
ENDBRANCH  12  19
ENDBRANCH  11  12
ENDBRANCH   7  11
ENDBRANCH   1   9
BRANCH   5  20
ATOM     20  C   UNL     1       0.228   9.483  21.652  0.00  0.00    +0.000 C 
ATOM     21  O   UNL     1      -0.630   8.843  22.238  0.00  0.00    +0.000 OA
BRANCH  20  22
ATOM     22  O   UNL     1       0.680  10.712  21.986  0.00  0.00    +0.000 OA
BRANCH  22  23
ATOM     23  C   UNL     1      -0.248  11.798  21.824  0.00  0.00    +0.000 C 
BRANCH  23  24
ATOM     24  C   UNL     1       0.411  12.927  21.055  0.00  0.00    +0.000 A 
ATOM     25  C   UNL     1      -0.285  13.618  20.141  0.00  0.00    +0.000 A 
ATOM     26  C   UNL     1       0.368  14.705  19.379  0.00  0.00    +0.000 A 
ATOM     27  O   UNL     1      -0.304  15.296  18.547  0.00  0.00    +0.000 OA
ATOM     28  N   UNL     1       1.688  14.924  19.696  0.00  0.00    +0.000 N 
ATOM     29  C   UNL     1       2.546  15.879  19.146  0.00  0.00    +0.000 A 
ATOM     30  C   UNL     1       2.157  16.889  18.113  0.00  0.00    +0.000 C 
ATOM     31  C   UNL     1       3.791  15.824  19.647  0.00  0.00    +0.000 A 
ATOM     32  S   UNL     1       3.972  14.577  20.838  0.00  0.00    +0.000 S 
ATOM     33  C   UNL     1       2.289  14.120  20.649  0.00  0.00    +0.000 A 
ATOM     34  N   UNL     1       1.741  13.163  21.319  0.00  0.00    +0.000 NA
ENDBRANCH  23  24
ENDBRANCH  22  23
ENDBRANCH  20  22
ENDBRANCH   5  20
TORSDOF 8
ENDMDL
MODEL 9
REMARK VINA RESULT:      -8.0      1.690      2.477
REMARK  Name = 
REMARK  10 active torsions:
REMARK  status: ('A' for Active; 'I' for Inactive)
REMARK    1  A    between atoms: C_1  and  C_2
REMARK    2  A    between atoms: C_7  and  O_8
REMARK    3  A    between atoms: O_8  and  C_9
REMARK    4  A    between atoms: C_9  and  C_10
REMARK    5  A    between atoms: N_12  and  C_13
REMARK    6  A    between atoms: C_17  and  C_18
REMARK    7  A    between atoms: C_18  and  O_20
REMARK    8  A    between atoms: O_20  and  C_21
REMARK    9  A    between atoms: C_21  and  C_22
REMARK   10  A    between atoms: C_27  and  C_28
REMARK                            x       y       z     vdW  Elec       q    Type
REMARK                         _______ _______ _______ _____ _____    ______ ____
ROOT
ATOM      1  C   UNL     1       6.715   5.859  17.781  0.00  0.00    +0.000 A 
ATOM      2  C   UNL     1       7.055   4.937  16.788  0.00  0.00    +0.000 A 
ATOM      3  C   UNL     1       6.077   4.122  16.217  0.00  0.00    +0.000 A 
ATOM      4  C   UNL     1       4.741   4.253  16.606  0.00  0.00    +0.000 A 
ATOM      5  C   UNL     1       4.390   5.176  17.601  0.00  0.00    +0.000 A 
ATOM      6  C   UNL     1       5.395   5.949  18.222  0.00  0.00    +0.000 A 
ENDROOT
BRANCH   1   9
ATOM      7  C   UNL     1       7.808   8.036  17.944  0.00  0.00    +0.000 C 
ATOM      8  O   UNL     1       7.115   8.570  17.080  0.00  0.00    +0.000 OA
ATOM      9  N   UNL     1       7.691   6.706  18.347  0.00  0.00    +0.000 N 
ATOM     10  H   UNL     1       7.964   6.525  19.306  0.00  0.00    +0.000 HD
BRANCH   7  11
ATOM     11  C   UNL     1       8.908   8.807  18.682  0.00  0.00    +0.000 C 
BRANCH  11  12
ATOM     12  O   UNL     1       9.011  10.150  18.252  0.00  0.00    +0.000 OA
BRANCH  12  19
ATOM     13  C   UNL     1      11.235  12.223  17.324  0.00  0.00    +0.000 C 
ATOM     14  C   UNL     1      10.644  12.021  18.691  0.00  0.00    +0.000 A 
ATOM     15  C   UNL     1      11.156  12.861  19.708  0.00  0.00    +0.000 A 
ATOM     16  C   UNL     1      10.706  12.789  21.024  0.00  0.00    +0.000 A 
ATOM     17  C   UNL     1       9.722  11.872  21.354  0.00  0.00    +0.000 A 
ATOM     18  C   UNL     1       9.202  11.032  20.365  0.00  0.00    +0.000 A 
ATOM     19  C   UNL     1       9.649  11.085  19.031  0.00  0.00    +0.000 A 
ENDBRANCH  12  19
ENDBRANCH  11  12
ENDBRANCH   7  11
ENDBRANCH   1   9
BRANCH   5  20
ATOM     20  C   UNL     1       2.969   5.402  18.000  0.00  0.00    +0.000 C 
ATOM     21  O   UNL     1       2.071   4.634  17.697  0.00  0.00    +0.000 OA
BRANCH  20  22
ATOM     22  O   UNL     1       2.847   6.527  18.738  0.00  0.00    +0.000 OA
BRANCH  22  23
ATOM     23  C   UNL     1       2.366   7.693  18.048  0.00  0.00    +0.000 C 
BRANCH  23  24
ATOM     24  C   UNL     1       1.598   8.579  19.011  0.00  0.00    +0.000 A 
ATOM     25  C   UNL     1       1.600   8.312  20.325  0.00  0.00    +0.000 A 
ATOM     26  C   UNL     1       0.833   9.167  21.256  0.00  0.00    +0.000 A 
ATOM     27  O   UNL     1       0.854   8.874  22.442  0.00  0.00    +0.000 OA
ATOM     28  N   UNL     1       0.162  10.213  20.665  0.00  0.00    +0.000 N 
ATOM     29  C   UNL     1      -0.630  11.176  21.294  0.00  0.00    +0.000 A 
ATOM     30  C   UNL     1      -0.863  11.266  22.768  0.00  0.00    +0.000 C 
ATOM     31  C   UNL     1      -1.176  12.054  20.436  0.00  0.00    +0.000 A 
ATOM     32  S   UNL     1      -0.734  11.736  18.790  0.00  0.00    +0.000 S 
ATOM     33  C   UNL     1       0.233  10.360  19.291  0.00  0.00    +0.000 A 
ATOM     34  N   UNL     1       0.888   9.622  18.460  0.00  0.00    +0.000 NA
ENDBRANCH  23  24
ENDBRANCH  22  23
ENDBRANCH  20  22
ENDBRANCH   5  20
TORSDOF 8
ENDMDL
