MODEL 1
REMARK VINA RESULT:      -6.3      0.000      0.000
REMARK  Name = 
REMARK  2 active torsions:
REMARK  status: ('A' for Active; 'I' for Inactive)
REMARK    1  A    between atoms: C_4  and  N_5
REMARK    2  A    between atoms: C_6  and  C_7
REMARK                            x       y       z     vdW  Elec       q    Type
REMARK                         _______ _______ _______ _____ _____    ______ ____
ROOT
ATOM      1  N   UNL     1       2.925   6.725  18.279  0.00  0.00    +0.000 N 
ATOM      2  C   UNL     1       2.532   8.045  18.516  0.00  0.00    +0.000 A 
ATOM      3  N   UNL     1       3.260   8.842  17.749  0.00  0.00    +0.000 NA
ATOM      4  N   UNL     1       4.079   8.081  16.961  0.00  0.00    +0.000 NA
ATOM      5  C   UNL     1       3.931   6.815  17.301  0.00  0.00    +0.000 A 
ATOM      6  N   UNL     1       4.591   5.737  16.790  0.00  0.00    +0.000 N 
ATOM      7  C   UNL     1       5.205   5.846  15.459  0.00  0.00    +0.000 C 
ATOM      8  C   UNL     1       5.265   4.425  14.862  0.00  0.00    +0.000 C 
ATOM      9  O   UNL     1       6.012   3.522  15.702  0.00  0.00    +0.000 OA
ATOM     10  C   UNL     1       5.448   3.465  17.026  0.00  0.00    +0.000 C 
ATOM     11  C   UNL     1       5.395   4.865  17.669  0.00  0.00    +0.000 C 
ENDROOT
BRANCH   1  15
ATOM     12  C   UNL     1       1.334   3.261  20.098  0.00  0.00    +0.000 A 
ATOM     13  C   UNL     1       2.128   4.134  20.834  0.00  0.00    +0.000 A 
ATOM     14  C   UNL     1       2.698   5.244  20.214  0.00  0.00    +0.000 A 
ATOM     15  C   UNL     1       2.424   5.525  18.867  0.00  0.00    +0.000 A 
ATOM     16  C   UNL     1       1.618   4.648  18.134  0.00  0.00    +0.000 A 
ATOM     17  C   UNL     1       1.096   3.506  18.746  0.00  0.00    +0.000 A 
ENDBRANCH   1  15
BRANCH   2  18
ATOM     18  C   UNL     1       1.466   8.537  19.403  0.00  0.00    +0.000 A 
ATOM     19  C   UNL     1       0.532   9.450  18.902  0.00  0.00    +0.000 A 
ATOM     20  C   UNL     1      -0.430   9.962  19.756  0.00  0.00    +0.000 A 
ATOM     21  N   UNL     1      -0.522   9.637  21.062  0.00  0.00    +0.000 NA
ATOM     22  C   UNL     1       0.349   8.716  21.518  0.00  0.00    +0.000 A 
ATOM     23  C   UNL     1       1.321   8.119  20.730  0.00  0.00    +0.000 A 
ENDBRANCH   2  18
TORSDOF 2
ENDMDL
MODEL 2
REMARK VINA RESULT:      -6.3      4.295      8.650
REMARK  Name = 
REMARK  2 active torsions:
REMARK  status: ('A' for Active; 'I' for Inactive)
REMARK    1  A    between atoms: C_4  and  N_5
REMARK    2  A    between atoms: C_6  and  C_7
REMARK                            x       y       z     vdW  Elec       q    Type
REMARK                         _______ _______ _______ _____ _____    ______ ____
ROOT
ATOM      1  N   UNL     1      -0.501  10.600  20.568  0.00  0.00    +0.000 N 
ATOM      2  C   UNL     1       0.611   9.796  20.830  0.00  0.00    +0.000 A 
ATOM      3  N   UNL     1       0.916   9.911  22.113  0.00  0.00    +0.000 NA
ATOM      4  N   UNL     1      -0.003  10.717  22.723  0.00  0.00    +0.000 NA
ATOM      5  C   UNL     1      -0.829  11.182  21.805  0.00  0.00    +0.000 A 
ATOM      6  N   UNL     1      -1.864  12.051  21.984  0.00  0.00    +0.000 N 
ATOM      7  C   UNL     1      -2.454  12.186  23.323  0.00  0.00    +0.000 C 
ATOM      8  C   UNL     1      -3.916  12.641  23.139  0.00  0.00    +0.000 C 
ATOM      9  O   UNL     1      -4.003  13.882  22.409  0.00  0.00    +0.000 OA
ATOM     10  C   UNL     1      -3.368  13.768  21.122  0.00  0.00    +0.000 C 
ATOM     11  C   UNL     1      -1.894  13.340  21.265  0.00  0.00    +0.000 C 
ENDROOT
BRANCH   1  15
ATOM     12  C   UNL     1      -2.407  11.135  16.837  0.00  0.00    +0.000 A 
ATOM     13  C   UNL     1      -1.468  12.060  17.280  0.00  0.00    +0.000 A 
ATOM     14  C   UNL     1      -0.885  11.910  18.537  0.00  0.00    +0.000 A 
ATOM     15  C   UNL     1      -1.190  10.796  19.333  0.00  0.00    +0.000 A 
ATOM     16  C   UNL     1      -2.129   9.864  18.879  0.00  0.00    +0.000 A 
ATOM     17  C   UNL     1      -2.752  10.050  17.642  0.00  0.00    +0.000 A 
ENDBRANCH   1  15
BRANCH   2  18
ATOM     18  C   UNL     1       1.334   8.905  19.908  0.00  0.00    +0.000 A 
ATOM     19  C   UNL     1       1.746   7.647  20.361  0.00  0.00    +0.000 A 
ATOM     20  C   UNL     1       2.484   6.838  19.514  0.00  0.00    +0.000 A 
ATOM     21  N   UNL     1       2.842   7.193  18.262  0.00  0.00    +0.000 NA
ATOM     22  C   UNL     1       2.392   8.383  17.821  0.00  0.00    +0.000 A 
ATOM     23  C   UNL     1       1.616   9.243  18.581  0.00  0.00    +0.000 A 
ENDBRANCH   2  18
TORSDOF 2
ENDMDL
MODEL 3
REMARK VINA RESULT:      -6.3      0.131      1.015
REMARK  Name = 
REMARK  2 active torsions:
REMARK  status: ('A' for Active; 'I' for Inactive)
REMARK    1  A    between atoms: C_4  and  N_5
REMARK    2  A    between atoms: C_6  and  C_7
REMARK                            x       y       z     vdW  Elec       q    Type
REMARK                         _______ _______ _______ _____ _____    ______ ____
ROOT
ATOM      1  N   UNL     1       2.899   6.694  18.334  0.00  0.00    +0.000 N 
ATOM      2  C   UNL     1       2.542   8.020  18.593  0.00  0.00    +0.000 A 
ATOM      3  N   UNL     1       3.317   8.810  17.866  0.00  0.00    +0.000 NA
ATOM      4  N   UNL     1       4.132   8.042  17.083  0.00  0.00    +0.000 NA
ATOM      5  C   UNL     1       3.934   6.773  17.386  0.00  0.00    +0.000 A 
ATOM      6  N   UNL     1       4.573   5.686  16.868  0.00  0.00    +0.000 N 
ATOM      7  C   UNL     1       5.227   5.806  15.557  0.00  0.00    +0.000 C 
ATOM      8  C   UNL     1       5.258   4.398  14.928  0.00  0.00    +0.000 C 
ATOM      9  O   UNL     1       5.951   3.451  15.766  0.00  0.00    +0.000 OA
ATOM     10  C   UNL     1       5.349   3.382  17.072  0.00  0.00    +0.000 C 
ATOM     11  C   UNL     1       5.323   4.767  17.747  0.00  0.00    +0.000 C 
ENDROOT
BRANCH   1  15
ATOM     12  C   UNL     1       1.364   3.069  19.867  0.00  0.00    +0.000 A 
ATOM     13  C   UNL     1       1.135   3.419  18.540  0.00  0.00    +0.000 A 
ATOM     14  C   UNL     1       1.594   4.642  18.056  0.00  0.00    +0.000 A 
ATOM     15  C   UNL     1       2.342   5.497  18.879  0.00  0.00    +0.000 A 
ATOM     16  C   UNL     1       2.577   5.136  20.210  0.00  0.00    +0.000 A 
ATOM     17  C   UNL     1       2.066   3.934  20.705  0.00  0.00    +0.000 A 
ENDBRANCH   1  15
BRANCH   2  18
ATOM     18  C   UNL     1       1.468   8.526  19.462  0.00  0.00    +0.000 A 
ATOM     19  C   UNL     1       0.556   9.452  18.946  0.00  0.00    +0.000 A 
ATOM     20  C   UNL     1      -0.414   9.977  19.784  0.00  0.00    +0.000 A 
ATOM     21  N   UNL     1      -0.533   9.652  21.088  0.00  0.00    +0.000 NA
ATOM     22  C   UNL     1       0.317   8.718  21.557  0.00  0.00    +0.000 A 
ATOM     23  C   UNL     1       1.294   8.108  20.786  0.00  0.00    +0.000 A 
ENDBRANCH   2  18
TORSDOF 2
ENDMDL
MODEL 4
REMARK VINA RESULT:      -6.3      4.239      8.632
REMARK  Name = 
REMARK  2 active torsions:
REMARK  status: ('A' for Active; 'I' for Inactive)
REMARK    1  A    between atoms: C_4  and  N_5
REMARK    2  A    between atoms: C_6  and  C_7
REMARK                            x       y       z     vdW  Elec       q    Type
REMARK                         _______ _______ _______ _____ _____    ______ ____
ROOT
ATOM      1  N   UNL     1      -0.406  10.521  20.607  0.00  0.00    +0.000 N 
ATOM      2  C   UNL     1       0.664   9.668  20.893  0.00  0.00    +0.000 A 
ATOM      3  N   UNL     1       0.923   9.743  22.189  0.00  0.00    +0.000 NA
ATOM      4  N   UNL     1       0.012  10.571  22.782  0.00  0.00    +0.000 NA
ATOM      5  C   UNL     1      -0.759  11.088  21.844  0.00  0.00    +0.000 A 
ATOM      6  N   UNL     1      -1.766  11.993  22.004  0.00  0.00    +0.000 N 
ATOM      7  C   UNL     1      -2.402  12.122  23.322  0.00  0.00    +0.000 C 
ATOM      8  C   UNL     1      -3.837  12.638  23.093  0.00  0.00    +0.000 C 
ATOM      9  O   UNL     1      -3.848  13.897  22.390  0.00  0.00    +0.000 OA
ATOM     10  C   UNL     1      -3.168  13.787  21.125  0.00  0.00    +0.000 C 
ATOM     11  C   UNL     1      -1.719  13.297  21.314  0.00  0.00    +0.000 C 
ENDROOT
BRANCH   1  15
ATOM     12  C   UNL     1      -2.410  11.303  16.972  0.00  0.00    +0.000 A 
ATOM     13  C   UNL     1      -2.722  10.167  17.711  0.00  0.00    +0.000 A 
ATOM     14  C   UNL     1      -2.018   9.884  18.879  0.00  0.00    +0.000 A 
ATOM     15  C   UNL     1      -1.038  10.770  19.352  0.00  0.00    +0.000 A 
ATOM     16  C   UNL     1      -0.734  11.916  18.609  0.00  0.00    +0.000 A 
ATOM     17  C   UNL     1      -1.404  12.165  17.409  0.00  0.00    +0.000 A 
ENDBRANCH   1  15
BRANCH   2  18
ATOM     18  C   UNL     1       1.387   8.769  19.978  0.00  0.00    +0.000 A 
ATOM     19  C   UNL     1       1.756   7.497  20.426  0.00  0.00    +0.000 A 
ATOM     20  C   UNL     1       2.494   6.678  19.588  0.00  0.00    +0.000 A 
ATOM     21  N   UNL     1       2.892   7.038  18.350  0.00  0.00    +0.000 NA
ATOM     22  C   UNL     1       2.483   8.244  17.912  0.00  0.00    +0.000 A 
ATOM     23  C   UNL     1       1.710   9.115  18.662  0.00  0.00    +0.000 A 
ENDBRANCH   2  18
TORSDOF 2
ENDMDL
MODEL 5
REMARK VINA RESULT:      -6.2      4.278      8.579
REMARK  Name = 
REMARK  2 active torsions:
REMARK  status: ('A' for Active; 'I' for Inactive)
REMARK    1  A    between atoms: C_4  and  N_5
REMARK    2  A    between atoms: C_6  and  C_7
REMARK                            x       y       z     vdW  Elec       q    Type
REMARK                         _______ _______ _______ _____ _____    ______ ____
ROOT
ATOM      1  N   UNL     1      -0.466  10.588  20.509  0.00  0.00    +0.000 N 
ATOM      2  C   UNL     1       0.642   9.798  20.826  0.00  0.00    +0.000 A 
ATOM      3  N   UNL     1       0.911   9.952  22.113  0.00  0.00    +0.000 NA
ATOM      4  N   UNL     1      -0.029  10.772  22.673  0.00  0.00    +0.000 NA
ATOM      5  C   UNL     1      -0.831  11.205  21.719  0.00  0.00    +0.000 A 
ATOM      6  N   UNL     1      -1.874  12.073  21.843  0.00  0.00    +0.000 N 
ATOM      7  C   UNL     1      -2.502  12.244  23.161  0.00  0.00    +0.000 C 
ATOM      8  C   UNL     1      -3.960  12.686  22.923  0.00  0.00    +0.000 C 
ATOM      9  O   UNL     1      -4.033  13.904  22.155  0.00  0.00    +0.000 OA
ATOM     10  C   UNL     1      -3.362  13.756  20.890  0.00  0.00    +0.000 C 
ATOM     11  C   UNL     1      -1.891  13.340  21.086  0.00  0.00    +0.000 C 
ENDROOT
BRANCH   1  15
ATOM     12  C   UNL     1      -2.539  11.091  16.863  0.00  0.00    +0.000 A 
ATOM     13  C   UNL     1      -2.797   9.986  17.666  0.00  0.00    +0.000 A 
ATOM     14  C   UNL     1      -2.070   9.795  18.839  0.00  0.00    +0.000 A 
ATOM     15  C   UNL     1      -1.122  10.744  19.250  0.00  0.00    +0.000 A 
ATOM     16  C   UNL     1      -0.872  11.858  18.443  0.00  0.00    +0.000 A 
ATOM     17  C   UNL     1      -1.565  12.015  17.240  0.00  0.00    +0.000 A 
ENDBRANCH   1  15
BRANCH   2  18
ATOM     18  C   UNL     1       1.394   8.884  19.951  0.00  0.00    +0.000 A 
ATOM     19  C   UNL     1       1.729   9.302  18.658  0.00  0.00    +0.000 A 
ATOM     20  C   UNL     1       2.377   8.416  17.814  0.00  0.00    +0.000 A 
ATOM     21  N   UNL     1       2.707   7.155  18.162  0.00  0.00    +0.000 NA
ATOM     22  C   UNL     1       2.428   6.785  19.426  0.00  0.00    +0.000 A 
ATOM     23  C   UNL     1       1.817   7.613  20.354  0.00  0.00    +0.000 A 
ENDBRANCH   2  18
TORSDOF 2
ENDMDL
MODEL 6
REMARK VINA RESULT:      -6.1      9.602     10.832
REMARK  Name = 
REMARK  2 active torsions:
REMARK  status: ('A' for Active; 'I' for Inactive)
REMARK    1  A    between atoms: C_4  and  N_5
REMARK    2  A    between atoms: C_6  and  C_7
REMARK                            x       y       z     vdW  Elec       q    Type
REMARK                         _______ _______ _______ _____ _____    ______ ____
ROOT
ATOM      1  N   UNL     1       9.569  14.008  20.838  0.00  0.00    +0.000 N 
ATOM      2  C   UNL     1       9.076  14.167  22.136  0.00  0.00    +0.000 A 
ATOM      3  N   UNL     1       9.486  15.338  22.598  0.00  0.00    +0.000 NA
ATOM      4  N   UNL     1      10.182  15.989  21.618  0.00  0.00    +0.000 NA
ATOM      5  C   UNL     1      10.288  15.188  20.575  0.00  0.00    +0.000 A 
ATOM      6  N   UNL     1      10.940  15.432  19.403  0.00  0.00    +0.000 N 
ATOM      7  C   UNL     1      11.194  16.825  19.010  0.00  0.00    +0.000 C 
ATOM      8  C   UNL     1      11.293  16.859  17.471  0.00  0.00    +0.000 C 
ATOM      9  O   UNL     1      12.333  15.987  16.982  0.00  0.00    +0.000 OA
ATOM     10  C   UNL     1      12.118  14.633  17.421  0.00  0.00    +0.000 C 
ATOM     11  C   UNL     1      12.039  14.553  18.959  0.00  0.00    +0.000 C 
ENDROOT
BRANCH   1  15
ATOM     12  C   UNL     1       9.138  10.830  18.090  0.00  0.00    +0.000 A 
ATOM     13  C   UNL     1       8.612  12.084  17.795  0.00  0.00    +0.000 A 
ATOM     14  C   UNL     1       8.707  13.112  18.730  0.00  0.00    +0.000 A 
ATOM     15  C   UNL     1       9.385  12.913  19.942  0.00  0.00    +0.000 A 
ATOM     16  C   UNL     1       9.919  11.652  20.229  0.00  0.00    +0.000 A 
ATOM     17  C   UNL     1       9.772  10.608  19.312  0.00  0.00    +0.000 A 
ENDBRANCH   1  15
BRANCH   2  18
ATOM     18  C   UNL     1       8.200  13.264  22.900  0.00  0.00    +0.000 A 
ATOM     19  C   UNL     1       8.758  12.461  23.900  0.00  0.00    +0.000 A 
ATOM     20  C   UNL     1       7.945  11.564  24.572  0.00  0.00    +0.000 A 
ATOM     21  N   UNL     1       6.630  11.407  24.314  0.00  0.00    +0.000 NA
ATOM     22  C   UNL     1       6.095  12.224  23.387  0.00  0.00    +0.000 A 
ATOM     23  C   UNL     1       6.820  13.179  22.692  0.00  0.00    +0.000 A 
ENDBRANCH   2  18
TORSDOF 2
ENDMDL
MODEL 7
REMARK VINA RESULT:      -6.0      9.883     11.113
REMARK  Name = 
REMARK  2 active torsions:
REMARK  status: ('A' for Active; 'I' for Inactive)
REMARK    1  A    between atoms: C_4  and  N_5
REMARK    2  A    between atoms: C_6  and  C_7
REMARK                            x       y       z     vdW  Elec       q    Type
REMARK                         _______ _______ _______ _____ _____    ______ ____
ROOT
ATOM      1  N   UNL     1       9.514  14.487  20.689  0.00  0.00    +0.000 N 
ATOM      2  C   UNL     1       8.888  14.558  21.936  0.00  0.00    +0.000 A 
ATOM      3  N   UNL     1       9.065  15.777  22.422  0.00  0.00    +0.000 NA
ATOM      4  N   UNL     1       9.733  16.535  21.502  0.00  0.00    +0.000 NA
ATOM      5  C   UNL     1      10.057  15.767  20.480  0.00  0.00    +0.000 A 
ATOM      6  N   UNL     1      10.763  16.119  19.369  0.00  0.00    +0.000 N 
ATOM      7  C   UNL     1      10.826  17.537  18.988  0.00  0.00    +0.000 C 
ATOM      8  C   UNL     1      11.055  17.596  17.464  0.00  0.00    +0.000 C 
ATOM      9  O   UNL     1      12.259  16.903  17.076  0.00  0.00    +0.000 OA
ATOM     10  C   UNL     1      12.224  15.529  17.506  0.00  0.00    +0.000 C 
ATOM     11  C   UNL     1      12.023  15.429  19.030  0.00  0.00    +0.000 C 
ENDROOT
BRANCH   1  15
ATOM     12  C   UNL     1       9.651  11.128  18.131  0.00  0.00    +0.000 A 
ATOM     13  C   UNL     1      10.465  11.181  19.258  0.00  0.00    +0.000 A 
ATOM     14  C   UNL     1      10.457  12.316  20.066  0.00  0.00    +0.000 A 
ATOM     15  C   UNL     1       9.587  13.381  19.788  0.00  0.00    +0.000 A 
ATOM     16  C   UNL     1       8.765  13.319  18.659  0.00  0.00    +0.000 A 
ATOM     17  C   UNL     1       8.818  12.202  17.821  0.00  0.00    +0.000 A 
ENDBRANCH   1  15
BRANCH   2  18
ATOM     18  C   UNL     1       8.103  13.522  22.627  0.00  0.00    +0.000 A 
ATOM     19  C   UNL     1       6.707  13.575  22.567  0.00  0.00    +0.000 A 
ATOM     20  C   UNL     1       5.969  12.639  23.273  0.00  0.00    +0.000 A 
ATOM     21  N   UNL     1       6.521  11.667  24.030  0.00  0.00    +0.000 NA
ATOM     22  C   UNL     1       7.865  11.595  24.034  0.00  0.00    +0.000 A 
ATOM     23  C   UNL     1       8.685  12.462  23.329  0.00  0.00    +0.000 A 
ENDBRANCH   2  18
TORSDOF 2
ENDMDL
MODEL 8
REMARK VINA RESULT:      -6.0      9.831     11.117
REMARK  Name = 
REMARK  2 active torsions:
REMARK  status: ('A' for Active; 'I' for Inactive)
REMARK    1  A    between atoms: C_4  and  N_5
REMARK    2  A    between atoms: C_6  and  C_7
REMARK                            x       y       z     vdW  Elec       q    Type
REMARK                         _______ _______ _______ _____ _____    ______ ____
ROOT
ATOM      1  N   UNL     1       9.396  14.466  20.740  0.00  0.00    +0.000 N 
ATOM      2  C   UNL     1       8.776  14.540  21.990  0.00  0.00    +0.000 A 
ATOM      3  N   UNL     1       8.889  15.780  22.439  0.00  0.00    +0.000 NA
ATOM      4  N   UNL     1       9.509  16.546  21.492  0.00  0.00    +0.000 NA
ATOM      5  C   UNL     1       9.868  15.767  20.490  0.00  0.00    +0.000 A 
ATOM      6  N   UNL     1      10.547  16.124  19.363  0.00  0.00    +0.000 N 
ATOM      7  C   UNL     1      10.530  17.531  18.941  0.00  0.00    +0.000 C 
ATOM      8  C   UNL     1      10.746  17.557  17.414  0.00  0.00    +0.000 C 
ATOM      9  O   UNL     1      11.983  16.919  17.037  0.00  0.00    +0.000 OA
ATOM     10  C   UNL     1      12.026  15.559  17.507  0.00  0.00    +0.000 C 
ATOM     11  C   UNL     1      11.840  15.492  19.035  0.00  0.00    +0.000 C 
ENDROOT
BRANCH   1  15
ATOM     12  C   UNL     1       9.855  11.226  18.069  0.00  0.00    +0.000 A 
ATOM     13  C   UNL     1       8.945  12.240  17.787  0.00  0.00    +0.000 A 
ATOM     14  C   UNL     1       8.756  13.276  18.700  0.00  0.00    +0.000 A 
ATOM     15  C   UNL     1       9.524  13.340  19.872  0.00  0.00    +0.000 A 
ATOM     16  C   UNL     1      10.443  12.322  20.146  0.00  0.00    +0.000 A 
ATOM     17  C   UNL     1      10.588  11.256  19.254  0.00  0.00    +0.000 A 
ENDBRANCH   1  15
BRANCH   2  18
ATOM     18  C   UNL     1       8.053  13.484  22.717  0.00  0.00    +0.000 A 
ATOM     19  C   UNL     1       6.657  13.439  22.639  0.00  0.00    +0.000 A 
ATOM     20  C   UNL     1       5.974  12.487  23.377  0.00  0.00    +0.000 A 
ATOM     21  N   UNL     1       6.579  11.589  24.183  0.00  0.00    +0.000 NA
ATOM     22  C   UNL     1       7.925  11.608  24.205  0.00  0.00    +0.000 A 
ATOM     23  C   UNL     1       8.695  12.497  23.472  0.00  0.00    +0.000 A 
ENDBRANCH   2  18
TORSDOF 2
ENDMDL
MODEL 9
REMARK VINA RESULT:      -5.9      4.730      9.231
REMARK  Name = 
REMARK  2 active torsions:
REMARK  status: ('A' for Active; 'I' for Inactive)
REMARK    1  A    between atoms: C_4  and  N_5
REMARK    2  A    between atoms: C_6  and  C_7
REMARK                            x       y       z     vdW  Elec       q    Type
REMARK                         _______ _______ _______ _____ _____    ______ ____
ROOT
ATOM      1  N   UNL     1      -0.261  11.161  21.350  0.00  0.00    +0.000 N 
ATOM      2  C   UNL     1       0.112   9.815  21.385  0.00  0.00    +0.000 A 
ATOM      3  N   UNL     1      -0.420   9.263  22.464  0.00  0.00    +0.000 NA
ATOM      4  N   UNL     1      -1.189  10.190  23.111  0.00  0.00    +0.000 NA
ATOM      5  C   UNL     1      -1.065  11.346  22.489  0.00  0.00    +0.000 A 
ATOM      6  N   UNL     1      -1.632  12.538  22.831  0.00  0.00    +0.000 N 
ATOM      7  C   UNL     1      -2.834  12.534  23.677  0.00  0.00    +0.000 C 
ATOM      8  C   UNL     1      -3.620  13.824  23.366  0.00  0.00    +0.000 C 
ATOM      9  O   UNL     1      -2.827  15.005  23.601  0.00  0.00    +0.000 OA
ATOM     10  C   UNL     1      -1.618  14.978  22.820  0.00  0.00    +0.000 C 
ATOM     11  C   UNL     1      -0.789  13.714  23.122  0.00  0.00    +0.000 C 
ENDROOT
BRANCH   1  15
ATOM     12  C   UNL     1       0.806  13.992  18.402  0.00  0.00    +0.000 A 
ATOM     13  C   UNL     1       1.703  13.666  19.414  0.00  0.00    +0.000 A 
ATOM     14  C   UNL     1       1.324  12.775  20.416  0.00  0.00    +0.000 A 
ATOM     15  C   UNL     1       0.067  12.154  20.377  0.00  0.00    +0.000 A 
ATOM     16  C   UNL     1      -0.827  12.479  19.353  0.00  0.00    +0.000 A 
ATOM     17  C   UNL     1      -0.463  13.416  18.382  0.00  0.00    +0.000 A 
ENDBRANCH   1  15
BRANCH   2  18
ATOM     18  C   UNL     1       0.904   9.059  20.402  0.00  0.00    +0.000 A 
ATOM     19  C   UNL     1       1.486   7.846  20.786  0.00  0.00    +0.000 A 
ATOM     20  C   UNL     1       2.285   7.170  19.880  0.00  0.00    +0.000 A 
ATOM     21  N   UNL     1       2.549   7.616  18.634  0.00  0.00    +0.000 NA
ATOM     22  C   UNL     1       1.938   8.756  18.260  0.00  0.00    +0.000 A 
ATOM     23  C   UNL     1       1.091   9.482  19.082  0.00  0.00    +0.000 A 
ENDBRANCH   2  18
TORSDOF 2
ENDMDL
