MODEL 1
REMARK VINA RESULT:      -8.0      0.000      0.000
REMARK  Name = 
REMARK  8 active torsions:
REMARK  status: ('A' for Active; 'I' for Inactive)
REMARK    1  A    between atoms: C_1  and  C_2
REMARK    2  A    between atoms: C_2  and  C_3
REMARK    3  A    between atoms: N_6  and  C_7
REMARK    4  A    between atoms: C_11  and  C_12
REMARK    5  A    between atoms: N_14  and  C_15
REMARK    6  A    between atoms: C_18  and  C_19
REMARK    7  A    between atoms: C_21  and  C_22
REMARK    8  A    between atoms: N_25  and  C_26
REMARK                            x       y       z     vdW  Elec       q    Type
REMARK                         _______ _______ _______ _____ _____    ______ ____
ROOT
ATOM      1  C   UNL     1       3.713   4.172  18.370  0.00  0.00    +0.000 C 
ATOM      2  C   UNL     1       4.872   4.816  17.583  0.00  0.00    +0.000 C 
ATOM      3  O   UNL     1       5.877   4.177  17.256  0.00  0.00    +0.000 OA
ATOM      4  N   UNL     1       4.655   6.107  17.130  0.00  0.00    +0.000 N 
ATOM      5  C   UNL     1       5.522   6.622  16.083  0.00  0.00    +0.000 C 
ATOM      6  C   UNL     1       3.634   6.919  17.701  0.00  0.00    +0.000 A 
ATOM      7  C   UNL     1       3.476   8.255  17.252  0.00  0.00    +0.000 A 
ATOM      8  C   UNL     1       2.534   9.121  17.807  0.00  0.00    +0.000 A 
ATOM      9  C   UNL     1       1.710   8.644  18.810  0.00  0.00    +0.000 A 
ATOM     10  C   UNL     1       1.857   7.318  19.251  0.00  0.00    +0.000 A 
ATOM     11  C   UNL     1       2.816   6.414  18.747  0.00  0.00    +0.000 A 
ATOM     12  N   UNL     1       2.999   5.120  19.291  0.00  0.00    +0.000 N 
ENDROOT
BRANCH  12  13
ATOM     13  C   UNL     1       2.053   4.538  20.288  0.00  0.00    +0.000 C 
ATOM     14  C   UNL     1       0.968   3.640  19.687  0.00  0.00    +0.000 C 
ATOM     15  C   UNL     1       0.546   2.705  20.817  0.00  0.00    +0.000 C 
ATOM     16  C   UNL     1       1.629   2.754  21.891  0.00  0.00    +0.000 C 
ATOM     17  C   UNL     1       2.695   3.747  21.431  0.00  0.00    +0.000 C 
ENDBRANCH  12  13
BRANCH   9  18
ATOM     18  C   UNL     1       0.720   9.499  19.531  0.00  0.00    +0.000 C 
ATOM     19  O   UNL     1      -0.299   9.799  18.914  0.00  0.00    +0.000 OA
ATOM     20  N   UNL     1       1.065   9.933  20.801  0.00  0.00    +0.000 N 
ATOM     21  H   UNL     1       2.015   9.781  21.102  0.00  0.00    +0.000 HD
BRANCH  20  22
ATOM     22  C   UNL     1       0.268  10.816  21.594  0.00  0.00    +0.000 A 
ATOM     23  C   UNL     1      -0.644  10.329  22.530  0.00  0.00    +0.000 A 
ATOM     24  C   UNL     1      -1.516  11.181  23.211  0.00  0.00    +0.000 A 
ATOM     25  C   UNL     1      -1.479  12.550  22.980  0.00  0.00    +0.000 A 
ATOM     26  C   UNL     1      -2.474  13.462  23.635  0.00  0.00    +0.000 C 
ATOM     27  C   UNL     1      -0.506  13.059  22.111  0.00  0.00    +0.000 A 
ATOM     28  C   UNL     1       0.379  12.209  21.414  0.00  0.00    +0.000 A 
ATOM     29  C   UNL     1       1.367  12.834  20.469  0.00  0.00    +0.000 C 
ENDBRANCH  20  22
ENDBRANCH   9  18
BRANCH   1  31
ATOM     30  C   UNL     1       3.653   1.572  18.437  0.00  0.00    +0.000 C 
ATOM     31  C   UNL     1       4.236   2.861  19.010  0.00  0.00    +0.000 C 
ENDBRANCH   1  31
TORSDOF 4
ENDMDL
MODEL 2
REMARK VINA RESULT:      -7.9      0.383      1.268
REMARK  Name = 
REMARK  8 active torsions:
REMARK  status: ('A' for Active; 'I' for Inactive)
REMARK    1  A    between atoms: C_1  and  C_2
REMARK    2  A    between atoms: C_2  and  C_3
REMARK    3  A    between atoms: N_6  and  C_7
REMARK    4  A    between atoms: C_11  and  C_12
REMARK    5  A    between atoms: N_14  and  C_15
REMARK    6  A    between atoms: C_18  and  C_19
REMARK    7  A    between atoms: C_21  and  C_22
REMARK    8  A    between atoms: N_25  and  C_26
REMARK                            x       y       z     vdW  Elec       q    Type
REMARK                         _______ _______ _______ _____ _____    ______ ____
ROOT
ATOM      1  C   UNL     1       3.807   4.165  18.379  0.00  0.00    +0.000 C 
ATOM      2  C   UNL     1       5.020   4.783  17.655  0.00  0.00    +0.000 C 
ATOM      3  O   UNL     1       6.037   4.128  17.402  0.00  0.00    +0.000 OA
ATOM      4  N   UNL     1       4.846   6.068  17.166  0.00  0.00    +0.000 N 
ATOM      5  C   UNL     1       5.782   6.553  16.165  0.00  0.00    +0.000 C 
ATOM      6  C   UNL     1       3.801   6.900  17.657  0.00  0.00    +0.000 A 
ATOM      7  C   UNL     1       3.685   8.229  17.174  0.00  0.00    +0.000 A 
ATOM      8  C   UNL     1       2.721   9.114  17.655  0.00  0.00    +0.000 A 
ATOM      9  C   UNL     1       1.831   8.665  18.613  0.00  0.00    +0.000 A 
ATOM     10  C   UNL     1       1.936   7.347  19.086  0.00  0.00    +0.000 A 
ATOM     11  C   UNL     1       2.914   6.424  18.660  0.00  0.00    +0.000 A 
ATOM     12  N   UNL     1       3.049   5.138  19.238  0.00  0.00    +0.000 N 
ENDROOT
BRANCH  12  13
ATOM     13  C   UNL     1       2.037   4.584  20.185  0.00  0.00    +0.000 C 
ATOM     14  C   UNL     1       0.988   3.676  19.536  0.00  0.00    +0.000 C 
ATOM     15  C   UNL     1       0.488   2.771  20.658  0.00  0.00    +0.000 C 
ATOM     16  C   UNL     1       1.499   2.843  21.799  0.00  0.00    +0.000 C 
ATOM     17  C   UNL     1       2.598   3.820  21.386  0.00  0.00    +0.000 C 
ENDBRANCH  12  13
BRANCH   9  18
ATOM     18  C   UNL     1       0.807   9.543  19.256  0.00  0.00    +0.000 C 
ATOM     19  O   UNL     1      -0.205   9.778  18.600  0.00  0.00    +0.000 OA
ATOM     20  N   UNL     1       1.117  10.069  20.499  0.00  0.00    +0.000 N 
ATOM     21  H   UNL     1       2.064   9.960  20.828  0.00  0.00    +0.000 HD
BRANCH  20  22
ATOM     22  C   UNL     1       0.284  10.984  21.216  0.00  0.00    +0.000 A 
ATOM     23  C   UNL     1       0.230  12.336  20.878  0.00  0.00    +0.000 A 
ATOM     24  C   UNL     1      -0.478  13.255  21.655  0.00  0.00    +0.000 A 
ATOM     25  C   UNL     1      -1.166  12.833  22.785  0.00  0.00    +0.000 A 
ATOM     26  C   UNL     1      -1.850  13.825  23.679  0.00  0.00    +0.000 C 
ATOM     27  C   UNL     1      -1.194  11.464  23.082  0.00  0.00    +0.000 A 
ATOM     28  C   UNL     1      -0.480  10.525  22.307  0.00  0.00    +0.000 A 
ATOM     29  C   UNL     1      -0.531   9.081  22.718  0.00  0.00    +0.000 C 
ENDBRANCH  20  22
ENDBRANCH   9  18
BRANCH   1  31
ATOM     30  C   UNL     1       3.704   1.569  18.500  0.00  0.00    +0.000 C 
ATOM     31  C   UNL     1       4.275   2.862  19.075  0.00  0.00    +0.000 C 
ENDBRANCH   1  31
TORSDOF 4
ENDMDL
MODEL 3
REMARK VINA RESULT:      -7.8      1.192      1.364
REMARK  Name = 
REMARK  8 active torsions:
REMARK  status: ('A' for Active; 'I' for Inactive)
REMARK    1  A    between atoms: C_1  and  C_2
REMARK    2  A    between atoms: C_2  and  C_3
REMARK    3  A    between atoms: N_6  and  C_7
REMARK    4  A    between atoms: C_11  and  C_12
REMARK    5  A    between atoms: N_14  and  C_15
REMARK    6  A    between atoms: C_18  and  C_19
REMARK    7  A    between atoms: C_21  and  C_22
REMARK    8  A    between atoms: N_25  and  C_26
REMARK                            x       y       z     vdW  Elec       q    Type
REMARK                         _______ _______ _______ _____ _____    ______ ____
ROOT
ATOM      1  C   UNL     1       3.583   4.186  18.296  0.00  0.00    +0.000 C 
ATOM      2  C   UNL     1       4.628   4.886  17.403  0.00  0.00    +0.000 C 
ATOM      3  O   UNL     1       5.584   4.277  16.913  0.00  0.00    +0.000 OA
ATOM      4  N   UNL     1       4.349   6.198  17.057  0.00  0.00    +0.000 N 
ATOM      5  C   UNL     1       5.070   6.779  15.936  0.00  0.00    +0.000 C 
ATOM      6  C   UNL     1       3.408   6.966  17.800  0.00  0.00    +0.000 A 
ATOM      7  C   UNL     1       3.188   8.323  17.451  0.00  0.00    +0.000 A 
ATOM      8  C   UNL     1       2.324   9.146  18.173  0.00  0.00    +0.000 A 
ATOM      9  C   UNL     1       1.639   8.605  19.246  0.00  0.00    +0.000 A 
ATOM     10  C   UNL     1       1.847   7.259  19.588  0.00  0.00    +0.000 A 
ATOM     11  C   UNL     1       2.736   6.395  18.913  0.00  0.00    +0.000 A 
ATOM     12  N   UNL     1       2.993   5.074  19.355  0.00  0.00    +0.000 N 
ENDROOT
BRANCH  12  13
ATOM     13  C   UNL     1       2.187   4.427  20.432  0.00  0.00    +0.000 C 
ATOM     14  C   UNL     1       0.973   3.639  19.932  0.00  0.00    +0.000 C 
ATOM     15  C   UNL     1       0.685   2.608  21.020  0.00  0.00    +0.000 C 
ATOM     16  C   UNL     1       1.926   2.503  21.901  0.00  0.00    +0.000 C 
ATOM     17  C   UNL     1       2.958   3.497  21.372  0.00  0.00    +0.000 C 
ENDBRANCH  12  13
BRANCH   9  18
ATOM     18  C   UNL     1       0.748   9.407  20.137  0.00  0.00    +0.000 C 
ATOM     19  O   UNL     1       0.279   8.827  21.112  0.00  0.00    +0.000 OA
ATOM     20  N   UNL     1       0.474  10.709  19.751  0.00  0.00    +0.000 N 
ATOM     21  H   UNL     1       0.759  10.990  18.825  0.00  0.00    +0.000 HD
BRANCH  20  22
ATOM     22  C   UNL     1      -0.415  11.585  20.447  0.00  0.00    +0.000 A 
ATOM     23  C   UNL     1      -0.077  12.134  21.683  0.00  0.00    +0.000 A 
ATOM     24  C   UNL     1      -0.993  12.882  22.425  0.00  0.00    +0.000 A 
ATOM     25  C   UNL     1      -2.271  13.113  21.932  0.00  0.00    +0.000 A 
ATOM     26  C   UNL     1      -3.292  13.834  22.762  0.00  0.00    +0.000 C 
ATOM     27  C   UNL     1      -2.591  12.645  20.651  0.00  0.00    +0.000 A 
ATOM     28  C   UNL     1      -1.676  11.885  19.892  0.00  0.00    +0.000 A 
ATOM     29  C   UNL     1      -2.114  11.387  18.544  0.00  0.00    +0.000 C 
ENDBRANCH  20  22
ENDBRANCH   9  18
BRANCH   1  31
ATOM     30  C   UNL     1       3.539   1.586  18.228  0.00  0.00    +0.000 C 
ATOM     31  C   UNL     1       4.190   2.848  18.788  0.00  0.00    +0.000 C 
ENDBRANCH   1  31
TORSDOF 4
ENDMDL
MODEL 4
REMARK VINA RESULT:      -7.8      2.026      2.353
REMARK  Name = 
REMARK  8 active torsions:
REMARK  status: ('A' for Active; 'I' for Inactive)
REMARK    1  A    between atoms: C_1  and  C_2
REMARK    2  A    between atoms: C_2  and  C_3
REMARK    3  A    between atoms: N_6  and  C_7
REMARK    4  A    between atoms: C_11  and  C_12
REMARK    5  A    between atoms: N_14  and  C_15
REMARK    6  A    between atoms: C_18  and  C_19
REMARK    7  A    between atoms: C_21  and  C_22
REMARK    8  A    between atoms: N_25  and  C_26
REMARK                            x       y       z     vdW  Elec       q    Type
REMARK                         _______ _______ _______ _____ _____    ______ ____
ROOT
ATOM      1  C   UNL     1       3.969   4.180  18.500  0.00  0.00    +0.000 C 
ATOM      2  C   UNL     1       5.199   4.851  17.855  0.00  0.00    +0.000 C 
ATOM      3  O   UNL     1       6.258   4.242  17.674  0.00  0.00    +0.000 OA
ATOM      4  N   UNL     1       5.000   6.126  17.351  0.00  0.00    +0.000 N 
ATOM      5  C   UNL     1       5.979   6.652  16.412  0.00  0.00    +0.000 C 
ATOM      6  C   UNL     1       3.888   6.911  17.767  0.00  0.00    +0.000 A 
ATOM      7  C   UNL     1       3.746   8.233  17.272  0.00  0.00    +0.000 A 
ATOM      8  C   UNL     1       2.713   9.074  17.683  0.00  0.00    +0.000 A 
ATOM      9  C   UNL     1       1.781   8.586  18.581  0.00  0.00    +0.000 A 
ATOM     10  C   UNL     1       1.914   7.274  19.066  0.00  0.00    +0.000 A 
ATOM     11  C   UNL     1       2.959   6.396  18.710  0.00  0.00    +0.000 A 
ATOM     12  N   UNL     1       3.112   5.118  19.301  0.00  0.00    +0.000 N 
ENDROOT
BRANCH  12  13
ATOM     13  C   UNL     1       2.064   4.521  20.180  0.00  0.00    +0.000 C 
ATOM     14  C   UNL     1       1.049   3.638  19.450  0.00  0.00    +0.000 C 
ATOM     15  C   UNL     1       0.507   2.683  20.511  0.00  0.00    +0.000 C 
ATOM     16  C   UNL     1       1.469   2.709  21.695  0.00  0.00    +0.000 C 
ATOM     17  C   UNL     1       2.580   3.708  21.370  0.00  0.00    +0.000 C 
ENDBRANCH  12  13
BRANCH   9  18
ATOM     18  C   UNL     1       0.679   9.418  19.150  0.00  0.00    +0.000 C 
ATOM     19  O   UNL     1       0.478   9.313  20.357  0.00  0.00    +0.000 OA
ATOM     20  N   UNL     1      -0.062  10.179  18.261  0.00  0.00    +0.000 N 
ATOM     21  H   UNL     1       0.079  10.013  17.276  0.00  0.00    +0.000 HD
BRANCH  20  22
ATOM     22  C   UNL     1      -1.195  10.970  18.628  0.00  0.00    +0.000 A 
ATOM     23  C   UNL     1      -1.143  11.865  19.696  0.00  0.00    +0.000 A 
ATOM     24  C   UNL     1      -2.281  12.541  20.139  0.00  0.00    +0.000 A 
ATOM     25  C   UNL     1      -3.502  12.346  19.505  0.00  0.00    +0.000 A 
ATOM     26  C   UNL     1      -4.748  12.993  20.032  0.00  0.00    +0.000 C 
ATOM     27  C   UNL     1      -3.547  11.520  18.375  0.00  0.00    +0.000 A 
ATOM     28  C   UNL     1      -2.404  10.829  17.919  0.00  0.00    +0.000 A 
ATOM     29  C   UNL     1      -2.549   9.931  16.722  0.00  0.00    +0.000 C 
ENDBRANCH  20  22
ENDBRANCH   9  18
BRANCH   1  31
ATOM     30  C   UNL     1       3.909   1.585  18.672  0.00  0.00    +0.000 C 
ATOM     31  C   UNL     1       4.447   2.899  19.231  0.00  0.00    +0.000 C 
ENDBRANCH   1  31
TORSDOF 4
ENDMDL
MODEL 5
REMARK VINA RESULT:      -7.6      3.167      9.227
REMARK  Name = 
REMARK  8 active torsions:
REMARK  status: ('A' for Active; 'I' for Inactive)
REMARK    1  A    between atoms: C_1  and  C_2
REMARK    2  A    between atoms: C_2  and  C_3
REMARK    3  A    between atoms: N_6  and  C_7
REMARK    4  A    between atoms: C_11  and  C_12
REMARK    5  A    between atoms: N_14  and  C_15
REMARK    6  A    between atoms: C_18  and  C_19
REMARK    7  A    between atoms: C_21  and  C_22
REMARK    8  A    between atoms: N_25  and  C_26
REMARK                            x       y       z     vdW  Elec       q    Type
REMARK                         _______ _______ _______ _____ _____    ______ ____
ROOT
ATOM      1  C   UNL     1      -3.683  12.274  20.064  0.00  0.00    +0.000 C 
ATOM      2  C   UNL     1      -3.062  13.057  21.239  0.00  0.00    +0.000 C 
ATOM      3  O   UNL     1      -3.648  14.001  21.779  0.00  0.00    +0.000 OA
ATOM      4  N   UNL     1      -1.883  12.544  21.754  0.00  0.00    +0.000 N 
ATOM      5  C   UNL     1      -1.459  12.992  23.071  0.00  0.00    +0.000 C 
ATOM      6  C   UNL     1      -1.092  11.632  21.000  0.00  0.00    +0.000 A 
ATOM      7  C   UNL     1       0.138  11.170  21.536  0.00  0.00    +0.000 A 
ATOM      8  C   UNL     1       0.987  10.322  20.827  0.00  0.00    +0.000 A 
ATOM      9  C   UNL     1       0.596   9.896  19.570  0.00  0.00    +0.000 A 
ATOM     10  C   UNL     1      -0.625  10.343  19.041  0.00  0.00    +0.000 A 
ATOM     11  C   UNL     1      -1.502  11.229  19.701  0.00  0.00    +0.000 A 
ATOM     12  N   UNL     1      -2.674  11.736  19.088  0.00  0.00    +0.000 N 
ENDROOT
BRANCH  12  13
ATOM     13  C   UNL     1      -3.180  11.208  17.787  0.00  0.00    +0.000 C 
ATOM     14  C   UNL     1      -2.380  11.660  16.563  0.00  0.00    +0.000 C 
ATOM     15  C   UNL     1      -2.627  10.592  15.501  0.00  0.00    +0.000 C 
ATOM     16  C   UNL     1      -3.182   9.357  16.205  0.00  0.00    +0.000 C 
ATOM     17  C   UNL     1      -3.307   9.685  17.692  0.00  0.00    +0.000 C 
ENDBRANCH  12  13
BRANCH   9  18
ATOM     18  C   UNL     1       1.456   9.051  18.689  0.00  0.00    +0.000 C 
ATOM     19  O   UNL     1       1.475   9.343  17.496  0.00  0.00    +0.000 OA
ATOM     20  N   UNL     1       2.100   7.975  19.277  0.00  0.00    +0.000 N 
ATOM     21  H   UNL     1       1.834   7.732  20.219  0.00  0.00    +0.000 HD
BRANCH  20  22
ATOM     22  C   UNL     1       2.897   7.026  18.565  0.00  0.00    +0.000 A 
ATOM     23  C   UNL     1       3.824   7.429  17.604  0.00  0.00    +0.000 A 
ATOM     24  C   UNL     1       4.507   6.502  16.814  0.00  0.00    +0.000 A 
ATOM     25  C   UNL     1       4.289   5.141  16.985  0.00  0.00    +0.000 A 
ATOM     26  C   UNL     1       4.946   4.142  16.079  0.00  0.00    +0.000 C 
ATOM     27  C   UNL     1       3.429   4.722  18.009  0.00  0.00    +0.000 A 
ATOM     28  C   UNL     1       2.730   5.648  18.811  0.00  0.00    +0.000 A 
ATOM     29  C   UNL     1       1.796   5.114  19.861  0.00  0.00    +0.000 C 
ENDBRANCH  20  22
ENDBRANCH   9  18
BRANCH   1  31
ATOM     30  C   UNL     1      -6.220  12.523  19.548  0.00  0.00    +0.000 C 
ATOM     31  C   UNL     1      -4.824  13.133  19.462  0.00  0.00    +0.000 C 
ENDBRANCH   1  31
TORSDOF 4
ENDMDL
MODEL 6
REMARK VINA RESULT:      -7.4      1.332      1.410
REMARK  Name = 
REMARK  8 active torsions:
REMARK  status: ('A' for Active; 'I' for Inactive)
REMARK    1  A    between atoms: C_1  and  C_2
REMARK    2  A    between atoms: C_2  and  C_3
REMARK    3  A    between atoms: N_6  and  C_7
REMARK    4  A    between atoms: C_11  and  C_12
REMARK    5  A    between atoms: N_14  and  C_15
REMARK    6  A    between atoms: C_18  and  C_19
REMARK    7  A    between atoms: C_21  and  C_22
REMARK    8  A    between atoms: N_25  and  C_26
REMARK                            x       y       z     vdW  Elec       q    Type
REMARK                         _______ _______ _______ _____ _____    ______ ____
ROOT
ATOM      1  C   UNL     1       3.667   4.096  18.280  0.00  0.00    +0.000 C 
ATOM      2  C   UNL     1       4.789   4.714  17.421  0.00  0.00    +0.000 C 
ATOM      3  O   UNL     1       5.751   4.049  17.024  0.00  0.00    +0.000 OA
ATOM      4  N   UNL     1       4.579   6.014  16.991  0.00  0.00    +0.000 N 
ATOM      5  C   UNL     1       5.388   6.511  15.891  0.00  0.00    +0.000 C 
ATOM      6  C   UNL     1       3.621   6.850  17.633  0.00  0.00    +0.000 A 
ATOM      7  C   UNL     1       3.472   8.193  17.203  0.00  0.00    +0.000 A 
ATOM      8  C   UNL     1       2.594   9.080  17.825  0.00  0.00    +0.000 A 
ATOM      9  C   UNL     1       1.825   8.619  18.878  0.00  0.00    +0.000 A 
ATOM     10  C   UNL     1       1.963   7.287  19.300  0.00  0.00    +0.000 A 
ATOM     11  C   UNL     1       2.861   6.360  18.729  0.00  0.00    +0.000 A 
ATOM     12  N   UNL     1       3.043   5.057  19.252  0.00  0.00    +0.000 N 
ENDROOT
BRANCH  12  13
ATOM     13  C   UNL     1       2.149   4.494  20.307  0.00  0.00    +0.000 C 
ATOM     14  C   UNL     1       0.985   3.655  19.773  0.00  0.00    +0.000 C 
ATOM     15  C   UNL     1       0.608   2.715  20.915  0.00  0.00    +0.000 C 
ATOM     16  C   UNL     1       1.769   2.697  21.905  0.00  0.00    +0.000 C 
ATOM     17  C   UNL     1       2.840   3.654  21.385  0.00  0.00    +0.000 C 
ENDBRANCH  12  13
BRANCH   9  18
ATOM     18  C   UNL     1       0.909   9.496  19.668  0.00  0.00    +0.000 C 
ATOM     19  O   UNL     1       0.574   9.084  20.776  0.00  0.00    +0.000 OA
ATOM     20  N   UNL     1       0.465  10.658  19.059  0.00  0.00    +0.000 N 
ATOM     21  H   UNL     1       0.654  10.769  18.075  0.00  0.00    +0.000 HD
BRANCH  20  22
ATOM     22  C   UNL     1      -0.471  11.566  19.644  0.00  0.00    +0.000 A 
ATOM     23  C   UNL     1      -1.843  11.435  19.434  0.00  0.00    +0.000 A 
ATOM     24  C   UNL     1      -2.748  12.394  19.893  0.00  0.00    +0.000 A 
ATOM     25  C   UNL     1      -2.295  13.503  20.595  0.00  0.00    +0.000 A 
ATOM     26  C   UNL     1      -3.247  14.585  21.011  0.00  0.00    +0.000 C 
ATOM     27  C   UNL     1      -0.929  13.599  20.892  0.00  0.00    +0.000 A 
ATOM     28  C   UNL     1      -0.004  12.639  20.431  0.00  0.00    +0.000 A 
ATOM     29  C   UNL     1       1.449  12.838  20.761  0.00  0.00    +0.000 C 
ENDBRANCH  20  22
ENDBRANCH   9  18
BRANCH   1  31
ATOM     30  C   UNL     1       3.554   1.497  18.320  0.00  0.00    +0.000 C 
ATOM     31  C   UNL     1       4.193   2.766  18.877  0.00  0.00    +0.000 C 
ENDBRANCH   1  31
TORSDOF 4
ENDMDL
MODEL 7
REMARK VINA RESULT:      -7.3      2.354      9.662
REMARK  Name = 
REMARK  8 active torsions:
REMARK  status: ('A' for Active; 'I' for Inactive)
REMARK    1  A    between atoms: C_1  and  C_2
REMARK    2  A    between atoms: C_2  and  C_3
REMARK    3  A    between atoms: N_6  and  C_7
REMARK    4  A    between atoms: C_11  and  C_12
REMARK    5  A    between atoms: N_14  and  C_15
REMARK    6  A    between atoms: C_18  and  C_19
REMARK    7  A    between atoms: C_21  and  C_22
REMARK    8  A    between atoms: N_25  and  C_26
REMARK                            x       y       z     vdW  Elec       q    Type
REMARK                         _______ _______ _______ _____ _____    ______ ____
ROOT
ATOM      1  C   UNL     1       0.332  14.042  21.221  0.00  0.00    +0.000 C 
ATOM      2  C   UNL     1      -0.385  13.374  22.412  0.00  0.00    +0.000 C 
ATOM      3  O   UNL     1      -0.771  14.021  23.391  0.00  0.00    +0.000 OA
ATOM      4  N   UNL     1      -0.711  12.037  22.253  0.00  0.00    +0.000 N 
ATOM      5  C   UNL     1      -1.701  11.461  23.148  0.00  0.00    +0.000 C 
ATOM      6  C   UNL     1      -0.066  11.241  21.264  0.00  0.00    +0.000 A 
ATOM      7  C   UNL     1      -0.384   9.862  21.165  0.00  0.00    +0.000 A 
ATOM      8  C   UNL     1       0.251   9.015  20.258  0.00  0.00    +0.000 A 
ATOM      9  C   UNL     1       1.201   9.552  19.407  0.00  0.00    +0.000 A 
ATOM     10  C   UNL     1       1.511  10.919  19.495  0.00  0.00    +0.000 A 
ATOM     11  C   UNL     1       0.924  11.810  20.419  0.00  0.00    +0.000 A 
ATOM     12  N   UNL     1       1.340  13.158  20.543  0.00  0.00    +0.000 N 
ENDROOT
BRANCH  12  13
ATOM     13  C   UNL     1       2.274  13.793  19.567  0.00  0.00    +0.000 C 
ATOM     14  C   UNL     1       1.614  14.794  18.614  0.00  0.00    +0.000 C 
ATOM     15  C   UNL     1       2.735  15.733  18.176  0.00  0.00    +0.000 C 
ATOM     16  C   UNL     1       3.892  15.565  19.156  0.00  0.00    +0.000 C 
ATOM     17  C   UNL     1       3.490  14.497  20.172  0.00  0.00    +0.000 C 
ENDBRANCH  12  13
BRANCH   9  18
ATOM     18  C   UNL     1       2.000   8.729  18.450  0.00  0.00    +0.000 C 
ATOM     19  O   UNL     1       1.986   9.086  17.275  0.00  0.00    +0.000 OA
ATOM     20  N   UNL     1       2.627   7.602  18.955  0.00  0.00    +0.000 N 
ATOM     21  H   UNL     1       2.387   7.316  19.892  0.00  0.00    +0.000 HD
BRANCH  20  22
ATOM     22  C   UNL     1       3.365   6.669  18.163  0.00  0.00    +0.000 A 
ATOM     23  C   UNL     1       4.442   7.074  17.374  0.00  0.00    +0.000 A 
ATOM     24  C   UNL     1       5.080   6.192  16.500  0.00  0.00    +0.000 A 
ATOM     25  C   UNL     1       4.662   4.870  16.412  0.00  0.00    +0.000 A 
ATOM     26  C   UNL     1       5.278   3.940  15.409  0.00  0.00    +0.000 C 
ATOM     27  C   UNL     1       3.643   4.429  17.266  0.00  0.00    +0.000 A 
ATOM     28  C   UNL     1       2.988   5.311  18.151  0.00  0.00    +0.000 A 
ATOM     29  C   UNL     1       1.878   4.765  19.004  0.00  0.00    +0.000 C 
ENDBRANCH  20  22
ENDBRANCH   9  18
BRANCH   1  31
ATOM     30  C   UNL     1       0.002  16.622  21.237  0.00  0.00    +0.000 C 
ATOM     31  C   UNL     1       0.843  15.430  21.684  0.00  0.00    +0.000 C 
ENDBRANCH   1  31
TORSDOF 4
ENDMDL
MODEL 8
REMARK VINA RESULT:      -7.1      3.716      9.331
REMARK  Name = 
REMARK  8 active torsions:
REMARK  status: ('A' for Active; 'I' for Inactive)
REMARK    1  A    between atoms: C_1  and  C_2
REMARK    2  A    between atoms: C_2  and  C_3
REMARK    3  A    between atoms: N_6  and  C_7
REMARK    4  A    between atoms: C_11  and  C_12
REMARK    5  A    between atoms: N_14  and  C_15
REMARK    6  A    between atoms: C_18  and  C_19
REMARK    7  A    between atoms: C_21  and  C_22
REMARK    8  A    between atoms: N_25  and  C_26
REMARK                            x       y       z     vdW  Elec       q    Type
REMARK                         _______ _______ _______ _____ _____    ______ ____
ROOT
ATOM      1  C   UNL     1      -4.619  12.247  19.271  0.00  0.00    +0.000 C 
ATOM      2  C   UNL     1      -4.311  13.318  20.337  0.00  0.00    +0.000 C 
ATOM      3  O   UNL     1      -5.124  14.199  20.634  0.00  0.00    +0.000 OA
ATOM      4  N   UNL     1      -3.137  13.143  21.051  0.00  0.00    +0.000 N 
ATOM      5  C   UNL     1      -2.978  13.873  22.298  0.00  0.00    +0.000 C 
ATOM      6  C   UNL     1      -2.101  12.299  20.558  0.00  0.00    +0.000 A 
ATOM      7  C   UNL     1      -0.890  12.187  21.288  0.00  0.00    +0.000 A 
ATOM      8  C   UNL     1       0.185  11.424  20.833  0.00  0.00    +0.000 A 
ATOM      9  C   UNL     1       0.046  10.731  19.644  0.00  0.00    +0.000 A 
ATOM     10  C   UNL     1      -1.155  10.832  18.924  0.00  0.00    +0.000 A 
ATOM     11  C   UNL     1      -2.258  11.618  19.322  0.00  0.00    +0.000 A 
ATOM     12  N   UNL     1      -3.411  11.773  18.514  0.00  0.00    +0.000 N 
ENDROOT
BRANCH  12  13
ATOM     13  C   UNL     1      -3.637  10.951  17.289  0.00  0.00    +0.000 C 
ATOM     14  C   UNL     1      -3.175  11.610  15.987  0.00  0.00    +0.000 C 
ATOM     15  C   UNL     1      -2.912  10.458  15.021  0.00  0.00    +0.000 C 
ATOM     16  C   UNL     1      -2.801   9.178  15.845  0.00  0.00    +0.000 C 
ATOM     17  C   UNL     1      -3.031   9.546  17.310  0.00  0.00    +0.000 C 
ENDBRANCH  12  13
BRANCH   9  18
ATOM     18  C   UNL     1       1.153   9.946  19.021  0.00  0.00    +0.000 C 
ATOM     19  O   UNL     1       1.787  10.502  18.128  0.00  0.00    +0.000 OA
ATOM     20  N   UNL     1       1.324   8.641  19.454  0.00  0.00    +0.000 N 
ATOM     21  H   UNL     1       0.606   8.248  20.042  0.00  0.00    +0.000 HD
BRANCH  20  22
ATOM     22  C   UNL     1       2.284   7.731  18.910  0.00  0.00    +0.000 A 
ATOM     23  C   UNL     1       3.059   8.067  17.800  0.00  0.00    +0.000 A 
ATOM     24  C   UNL     1       3.900   7.136  17.188  0.00  0.00    +0.000 A 
ATOM     25  C   UNL     1       3.997   5.845  17.689  0.00  0.00    +0.000 A 
ATOM     26  C   UNL     1       4.824   4.812  16.984  0.00  0.00    +0.000 C 
ATOM     27  C   UNL     1       3.294   5.523  18.858  0.00  0.00    +0.000 A 
ATOM     28  C   UNL     1       2.438   6.454  19.485  0.00  0.00    +0.000 A 
ATOM     29  C   UNL     1       1.690   6.014  20.712  0.00  0.00    +0.000 C 
ENDBRANCH  20  22
ENDBRANCH   9  18
BRANCH   1  31
ATOM     30  C   UNL     1      -7.046  11.858  18.417  0.00  0.00    +0.000 C 
ATOM     31  C   UNL     1      -5.808  12.750  18.412  0.00  0.00    +0.000 C 
ENDBRANCH   1  31
TORSDOF 4
ENDMDL
MODEL 9
REMARK VINA RESULT:      -7.1      2.418      2.664
REMARK  Name = 
REMARK  8 active torsions:
REMARK  status: ('A' for Active; 'I' for Inactive)
REMARK    1  A    between atoms: C_1  and  C_2
REMARK    2  A    between atoms: C_2  and  C_3
REMARK    3  A    between atoms: N_6  and  C_7
REMARK    4  A    between atoms: C_11  and  C_12
REMARK    5  A    between atoms: N_14  and  C_15
REMARK    6  A    between atoms: C_18  and  C_19
REMARK    7  A    between atoms: C_21  and  C_22
REMARK    8  A    between atoms: N_25  and  C_26
REMARK                            x       y       z     vdW  Elec       q    Type
REMARK                         _______ _______ _______ _____ _____    ______ ____
ROOT
ATOM      1  C   UNL     1       4.222   4.205  18.755  0.00  0.00    +0.000 C 
ATOM      2  C   UNL     1       5.489   4.943  18.275  0.00  0.00    +0.000 C 
ATOM      3  O   UNL     1       6.599   4.401  18.266  0.00  0.00    +0.000 OA
ATOM      4  N   UNL     1       5.286   6.192  17.711  0.00  0.00    +0.000 N 
ATOM      5  C   UNL     1       6.356   6.763  16.909  0.00  0.00    +0.000 C 
ATOM      6  C   UNL     1       4.079   6.911  17.940  0.00  0.00    +0.000 A 
ATOM      7  C   UNL     1       3.929   8.210  17.392  0.00  0.00    +0.000 A 
ATOM      8  C   UNL     1       2.796   8.990  17.625  0.00  0.00    +0.000 A 
ATOM      9  C   UNL     1       1.776   8.459  18.394  0.00  0.00    +0.000 A 
ATOM     10  C   UNL     1       1.918   7.169  18.930  0.00  0.00    +0.000 A 
ATOM     11  C   UNL     1       3.056   6.354  18.753  0.00  0.00    +0.000 A 
ATOM     12  N   UNL     1       3.201   5.101  19.397  0.00  0.00    +0.000 N 
ENDROOT
BRANCH  12  13
ATOM     13  C   UNL     1       2.075   4.453  20.133  0.00  0.00    +0.000 C 
ATOM     14  C   UNL     1       1.263   3.455  19.303  0.00  0.00    +0.000 C 
ATOM     15  C   UNL     1       0.634   2.504  20.317  0.00  0.00    +0.000 C 
ATOM     16  C   UNL     1       1.388   2.663  21.634  0.00  0.00    +0.000 C 
ATOM     17  C   UNL     1       2.455   3.739  21.433  0.00  0.00    +0.000 C 
ENDBRANCH  12  13
BRANCH   9  18
ATOM     18  C   UNL     1       0.553   9.228  18.774  0.00  0.00    +0.000 C 
ATOM     19  O   UNL     1       0.362   9.399  19.975  0.00  0.00    +0.000 OA
ATOM     20  N   UNL     1      -0.292   9.620  17.748  0.00  0.00    +0.000 N 
ATOM     21  H   UNL     1      -0.119   9.236  16.831  0.00  0.00    +0.000 HD
BRANCH  20  22
ATOM     22  C   UNL     1      -1.537  10.294  17.943  0.00  0.00    +0.000 A 
ATOM     23  C   UNL     1      -2.755   9.643  17.751  0.00  0.00    +0.000 A 
ATOM     24  C   UNL     1      -3.968  10.331  17.812  0.00  0.00    +0.000 A 
ATOM     25  C   UNL     1      -3.988  11.692  18.088  0.00  0.00    +0.000 A 
ATOM     26  C   UNL     1      -5.277  12.458  18.063  0.00  0.00    +0.000 C 
ATOM     27  C   UNL     1      -2.777  12.337  18.374  0.00  0.00    +0.000 A 
ATOM     28  C   UNL     1      -1.544  11.654  18.312  0.00  0.00    +0.000 A 
ATOM     29  C   UNL     1      -0.289  12.430  18.594  0.00  0.00    +0.000 C 
ENDBRANCH  20  22
ENDBRANCH   9  18
BRANCH   1  31
ATOM     30  C   UNL     1       4.224   1.619  19.037  0.00  0.00    +0.000 C 
ATOM     31  C   UNL     1       4.667   2.974  19.584  0.00  0.00    +0.000 C 
ENDBRANCH   1  31
TORSDOF 4
ENDMDL
