MODEL 1
REMARK VINA RESULT:      -8.4      0.000      0.000
REMARK  Name = 
REMARK  9 active torsions:
REMARK  status: ('A' for Active; 'I' for Inactive)
REMARK    1  A    between atoms: C_1  and  C_2
REMARK    2  A    between atoms: C_2  and  C_3
REMARK    3  A    between atoms: C_2  and  C_4
REMARK    4  A    between atoms: C_2  and  C_5
REMARK    5  A    between atoms: C_8  and  C_9
REMARK    6  A    between atoms: C_9  and  C_11
REMARK    7  A    between atoms: C_13  and  O_14
REMARK    8  A    between atoms: C_15  and  C_16
REMARK    9  A    between atoms: C_24  and  O_25
REMARK                            x       y       z     vdW  Elec       q    Type
REMARK                         _______ _______ _______ _____ _____    ______ ____
ROOT
ATOM      1  C   UNL     1       0.897   9.514  19.889  0.00  0.00    +0.000 A 
ATOM      2  C   UNL     1       0.981   9.392  21.275  0.00  0.00    +0.000 A 
ATOM      3  C   UNL     1       0.217  10.230  22.092  0.00  0.00    +0.000 A 
ATOM      4  C   UNL     1      -0.618  11.249  21.571  0.00  0.00    +0.000 A 
ATOM      5  C   UNL     1      -0.702  11.306  20.161  0.00  0.00    +0.000 A 
ATOM      6  C   UNL     1       0.009  10.430  19.334  0.00  0.00    +0.000 A 
ENDROOT
BRANCH   4   7
ATOM      7  C   UNL     1      -1.338  12.194  22.476  0.00  0.00    +0.000 A 
ATOM      8  C   UNL     1      -0.814  13.474  22.749  0.00  0.00    +0.000 A 
ATOM      9  C   UNL     1      -1.442  14.352  23.634  0.00  0.00    +0.000 A 
ATOM     10 CL   UNL     1      -0.698  15.857  24.011  0.00  0.00    +0.000 Cl
ATOM     11  C   UNL     1      -2.654  14.016  24.216  0.00  0.00    +0.000 A 
ATOM     12  C   UNL     1      -3.213  12.775  23.933  0.00  0.00    +0.000 A 
ATOM     13 CL   UNL     1      -4.742  12.362  24.608  0.00  0.00    +0.000 Cl
ATOM     14  C   UNL     1      -2.552  11.862  23.103  0.00  0.00    +0.000 A 
ENDBRANCH   4   7
BRANCH   1  15
ATOM     15  C   UNL     1       1.768   8.645  19.057  0.00  0.00    +0.000 C 
ATOM     16  O   UNL     1       2.357   9.148  18.099  0.00  0.00    +0.000 OA
BRANCH  15  20
ATOM     17  C   UNL     1       2.354   4.428  19.755  0.00  0.00    +0.000 A 
ATOM     18  C   UNL     1       2.589   5.017  18.502  0.00  0.00    +0.000 A 
ATOM     19  C   UNL     1       2.380   6.384  18.289  0.00  0.00    +0.000 A 
ATOM     20  C   UNL     1       1.929   7.197  19.331  0.00  0.00    +0.000 A 
ATOM     21  C   UNL     1       1.624   6.621  20.563  0.00  0.00    +0.000 A 
ATOM     22  C   UNL     1       1.849   5.257  20.775  0.00  0.00    +0.000 A 
BRANCH  17  24
ATOM     23  C   UNL     1       1.820   1.982  19.148  0.00  0.00    +0.000 C 
ATOM     24  C   UNL     1       2.644   2.942  20.035  0.00  0.00    +0.000 C 
ATOM     25  C   UNL     1       2.323   2.601  21.504  0.00  0.00    +0.000 C 
ATOM     26  C   UNL     1       4.136   2.648  19.763  0.00  0.00    +0.000 C 
ENDBRANCH  17  24
ENDBRANCH  15  20
ENDBRANCH   1  15
BRANCH   3  27
ATOM     27  O   UNL     1       0.296  10.032  23.449  0.00  0.00    +0.000 OA
ATOM     28  H   UNL     1      -0.438  10.494  23.889  0.00  0.00    +0.000 HD
ENDBRANCH   3  27
BRANCH   5  29
ATOM     29  O   UNL     1      -1.442  12.236  19.475  0.00  0.00    +0.000 OA
ATOM     30  H   UNL     1      -2.297  12.352  19.919  0.00  0.00    +0.000 HD
ENDBRANCH   5  29
TORSDOF 6
ENDMDL
MODEL 2
REMARK VINA RESULT:      -8.4      0.288      1.261
REMARK  Name = 
REMARK  9 active torsions:
REMARK  status: ('A' for Active; 'I' for Inactive)
REMARK    1  A    between atoms: C_1  and  C_2
REMARK    2  A    between atoms: C_2  and  C_3
REMARK    3  A    between atoms: C_2  and  C_4
REMARK    4  A    between atoms: C_2  and  C_5
REMARK    5  A    between atoms: C_8  and  C_9
REMARK    6  A    between atoms: C_9  and  C_11
REMARK    7  A    between atoms: C_13  and  O_14
REMARK    8  A    between atoms: C_15  and  C_16
REMARK    9  A    between atoms: C_24  and  O_25
REMARK                            x       y       z     vdW  Elec       q    Type
REMARK                         _______ _______ _______ _____ _____    ______ ____
ROOT
ATOM      1  C   UNL     1       0.879   9.621  19.870  0.00  0.00    +0.000 A 
ATOM      2  C   UNL     1       0.977   9.477  21.252  0.00  0.00    +0.000 A 
ATOM      3  C   UNL     1       0.203  10.286  22.090  0.00  0.00    +0.000 A 
ATOM      4  C   UNL     1      -0.656  11.298  21.593  0.00  0.00    +0.000 A 
ATOM      5  C   UNL     1      -0.753  11.377  20.185  0.00  0.00    +0.000 A 
ATOM      6  C   UNL     1      -0.031  10.529  19.337  0.00  0.00    +0.000 A 
ENDROOT
BRANCH   4   7
ATOM      7  C   UNL     1      -1.386  12.213  22.519  0.00  0.00    +0.000 A 
ATOM      8  C   UNL     1      -0.869  13.487  22.833  0.00  0.00    +0.000 A 
ATOM      9  C   UNL     1      -1.508  14.337  23.738  0.00  0.00    +0.000 A 
ATOM     10 CL   UNL     1      -0.772  15.833  24.165  0.00  0.00    +0.000 Cl
ATOM     11  C   UNL     1      -2.723  13.980  24.301  0.00  0.00    +0.000 A 
ATOM     12  C   UNL     1      -3.274  12.745  23.978  0.00  0.00    +0.000 A 
ATOM     13 CL   UNL     1      -4.807  12.307  24.628  0.00  0.00    +0.000 Cl
ATOM     14  C   UNL     1      -2.604  11.859  23.126  0.00  0.00    +0.000 A 
ENDBRANCH   4   7
BRANCH   1  15
ATOM     15  C   UNL     1       1.760   8.783  19.016  0.00  0.00    +0.000 C 
ATOM     16  O   UNL     1       2.368   9.323  18.091  0.00  0.00    +0.000 OA
BRANCH  15  20
ATOM     17  C   UNL     1       2.072   4.541  19.743  0.00  0.00    +0.000 A 
ATOM     18  C   UNL     1       1.689   5.446  20.748  0.00  0.00    +0.000 A 
ATOM     19  C   UNL     1       1.607   6.819  20.498  0.00  0.00    +0.000 A 
ATOM     20  C   UNL     1       1.907   7.324  19.231  0.00  0.00    +0.000 A 
ATOM     21  C   UNL     1       2.355   6.454  18.240  0.00  0.00    +0.000 A 
ATOM     22  C   UNL     1       2.420   5.079  18.490  0.00  0.00    +0.000 A 
BRANCH  17  24
ATOM     23  C   UNL     1       3.516   2.411  19.853  0.00  0.00    +0.000 C 
ATOM     24  C   UNL     1       2.100   3.020  19.971  0.00  0.00    +0.000 C 
ATOM     25  C   UNL     1       1.206   2.306  18.938  0.00  0.00    +0.000 C 
ATOM     26  C   UNL     1       1.583   2.702  21.391  0.00  0.00    +0.000 C 
ENDBRANCH  17  24
ENDBRANCH  15  20
ENDBRANCH   1  15
BRANCH   3  27
ATOM     27  O   UNL     1       0.297  10.068  23.442  0.00  0.00    +0.000 OA
ATOM     28  H   UNL     1       1.203  10.259  23.741  0.00  0.00    +0.000 HD
ENDBRANCH   3  27
BRANCH   5  29
ATOM     29  O   UNL     1      -1.516  12.303  19.520  0.00  0.00    +0.000 OA
ATOM     30  H   UNL     1      -2.203  11.842  19.012  0.00  0.00    +0.000 HD
ENDBRANCH   5  29
TORSDOF 6
ENDMDL
MODEL 3
REMARK VINA RESULT:      -8.4      0.063      1.884
REMARK  Name = 
REMARK  9 active torsions:
REMARK  status: ('A' for Active; 'I' for Inactive)
REMARK    1  A    between atoms: C_1  and  C_2
REMARK    2  A    between atoms: C_2  and  C_3
REMARK    3  A    between atoms: C_2  and  C_4
REMARK    4  A    between atoms: C_2  and  C_5
REMARK    5  A    between atoms: C_8  and  C_9
REMARK    6  A    between atoms: C_9  and  C_11
REMARK    7  A    between atoms: C_13  and  O_14
REMARK    8  A    between atoms: C_15  and  C_16
REMARK    9  A    between atoms: C_24  and  O_25
REMARK                            x       y       z     vdW  Elec       q    Type
REMARK                         _______ _______ _______ _____ _____    ______ ____
ROOT
ATOM      1  C   UNL     1       0.893   9.545  19.888  0.00  0.00    +0.000 A 
ATOM      2  C   UNL     1       0.984   9.407  21.272  0.00  0.00    +0.000 A 
ATOM      3  C   UNL     1       0.234  10.245  22.103  0.00  0.00    +0.000 A 
ATOM      4  C   UNL     1      -0.592  11.279  21.598  0.00  0.00    +0.000 A 
ATOM      5  C   UNL     1      -0.684  11.353  20.189  0.00  0.00    +0.000 A 
ATOM      6  C   UNL     1       0.012  10.477  19.348  0.00  0.00    +0.000 A 
ENDROOT
BRANCH   4   7
ATOM      7  C   UNL     1      -1.296  12.223  22.517  0.00  0.00    +0.000 A 
ATOM      8  C   UNL     1      -2.517  11.864  23.125  0.00  0.00    +0.000 A 
ATOM      9  C   UNL     1      -3.219  12.751  23.943  0.00  0.00    +0.000 A 
ATOM     10 CL   UNL     1      -4.756  12.297  24.568  0.00  0.00    +0.000 Cl
ATOM     11  C   UNL     1      -2.690  13.996  24.247  0.00  0.00    +0.000 A 
ATOM     12  C   UNL     1      -1.468  14.359  23.692  0.00  0.00    +0.000 A 
ATOM     13 CL   UNL     1      -0.774  15.881  24.100  0.00  0.00    +0.000 Cl
ATOM     14  C   UNL     1      -0.794  13.503  22.814  0.00  0.00    +0.000 A 
ENDBRANCH   4   7
BRANCH   1  15
ATOM     15  C   UNL     1       1.748   8.675  19.041  0.00  0.00    +0.000 C 
ATOM     16  O   UNL     1       2.310   9.174  18.065  0.00  0.00    +0.000 OA
BRANCH  15  20
ATOM     17  C   UNL     1       2.385   4.469  19.766  0.00  0.00    +0.000 A 
ATOM     18  C   UNL     1       2.656   5.063  18.521  0.00  0.00    +0.000 A 
ATOM     19  C   UNL     1       2.430   6.425  18.300  0.00  0.00    +0.000 A 
ATOM     20  C   UNL     1       1.925   7.231  19.323  0.00  0.00    +0.000 A 
ATOM     21  C   UNL     1       1.586   6.650  20.543  0.00  0.00    +0.000 A 
ATOM     22  C   UNL     1       1.828   5.290  20.765  0.00  0.00    +0.000 A 
BRANCH  17  24
ATOM     23  C   UNL     1       4.169   2.612  19.807  0.00  0.00    +0.000 C 
ATOM     24  C   UNL     1       2.692   2.990  20.057  0.00  0.00    +0.000 C 
ATOM     25  C   UNL     1       1.827   2.077  19.165  0.00  0.00    +0.000 C 
ATOM     26  C   UNL     1       2.387   2.682  21.539  0.00  0.00    +0.000 C 
ENDBRANCH  17  24
ENDBRANCH  15  20
ENDBRANCH   1  15
BRANCH   3  27
ATOM     27  O   UNL     1       0.319  10.031  23.457  0.00  0.00    +0.000 OA
ATOM     28  H   UNL     1       0.945  10.665  23.848  0.00  0.00    +0.000 HD
ENDBRANCH   3  27
BRANCH   5  29
ATOM     29  O   UNL     1      -1.417  12.298  19.517  0.00  0.00    +0.000 OA
ATOM     30  H   UNL     1      -2.214  12.506  20.031  0.00  0.00    +0.000 HD
ENDBRANCH   5  29
TORSDOF 6
ENDMDL
MODEL 4
REMARK VINA RESULT:      -8.3      4.657      9.180
REMARK  Name = 
REMARK  9 active torsions:
REMARK  status: ('A' for Active; 'I' for Inactive)
REMARK    1  A    between atoms: C_1  and  C_2
REMARK    2  A    between atoms: C_2  and  C_3
REMARK    3  A    between atoms: C_2  and  C_4
REMARK    4  A    between atoms: C_2  and  C_5
REMARK    5  A    between atoms: C_8  and  C_9
REMARK    6  A    between atoms: C_9  and  C_11
REMARK    7  A    between atoms: C_13  and  O_14
REMARK    8  A    between atoms: C_15  and  C_16
REMARK    9  A    between atoms: C_24  and  O_25
REMARK                            x       y       z     vdW  Elec       q    Type
REMARK                         _______ _______ _______ _____ _____    ______ ____
ROOT
ATOM      1  C   UNL     1       1.129   9.938  19.235  0.00  0.00    +0.000 A 
ATOM      2  C   UNL     1       1.118   8.986  20.252  0.00  0.00    +0.000 A 
ATOM      3  C   UNL     1       1.768   7.762  20.064  0.00  0.00    +0.000 A 
ATOM      4  C   UNL     1       2.408   7.418  18.847  0.00  0.00    +0.000 A 
ATOM      5  C   UNL     1       2.428   8.432  17.862  0.00  0.00    +0.000 A 
ATOM      6  C   UNL     1       1.836   9.684  18.064  0.00  0.00    +0.000 A 
ENDROOT
BRANCH   4   7
ATOM      7  C   UNL     1       3.000   6.063  18.643  0.00  0.00    +0.000 A 
ATOM      8  C   UNL     1       4.397   5.887  18.575  0.00  0.00    +0.000 A 
ATOM      9  C   UNL     1       4.970   4.638  18.331  0.00  0.00    +0.000 A 
ATOM     10 CL   UNL     1       6.677   4.505  18.149  0.00  0.00    +0.000 Cl
ATOM     11  C   UNL     1       4.175   3.508  18.224  0.00  0.00    +0.000 A 
ATOM     12  C   UNL     1       2.795   3.648  18.326  0.00  0.00    +0.000 A 
ATOM     13 CL   UNL     1       1.796   2.248  18.247  0.00  0.00    +0.000 Cl
ATOM     14  C   UNL     1       2.210   4.908  18.500  0.00  0.00    +0.000 A 
ENDBRANCH   4   7
BRANCH   1  15
ATOM     15  C   UNL     1       0.378  11.202  19.453  0.00  0.00    +0.000 C 
ATOM     16  O   UNL     1       0.990  12.181  19.882  0.00  0.00    +0.000 OA
BRANCH  15  20
ATOM     17  C   UNL     1      -3.851  11.660  18.737  0.00  0.00    +0.000 A 
ATOM     18  C   UNL     1      -3.183  12.373  19.747  0.00  0.00    +0.000 A 
ATOM     19  C   UNL     1      -1.814  12.201  19.974  0.00  0.00    +0.000 A 
ATOM     20  C   UNL     1      -1.077  11.308  19.193  0.00  0.00    +0.000 A 
ATOM     21  C   UNL     1      -1.732  10.541  18.233  0.00  0.00    +0.000 A 
ATOM     22  C   UNL     1      -3.099  10.728  17.998  0.00  0.00    +0.000 A 
BRANCH  17  24
ATOM     23  C   UNL     1      -6.215  10.638  18.683  0.00  0.00    +0.000 C 
ATOM     24  C   UNL     1      -5.340  11.884  18.419  0.00  0.00    +0.000 C 
ATOM     25  C   UNL     1      -5.520  12.265  16.935  0.00  0.00    +0.000 C 
ATOM     26  C   UNL     1      -5.891  13.024  19.303  0.00  0.00    +0.000 C 
ENDBRANCH  17  24
ENDBRANCH  15  20
ENDBRANCH   1  15
BRANCH   3  27
ATOM     27  O   UNL     1       1.772   6.881  21.116  0.00  0.00    +0.000 OA
ATOM     28  H   UNL     1       1.344   7.292  21.887  0.00  0.00    +0.000 HD
ENDBRANCH   3  27
BRANCH   5  29
ATOM     29  O   UNL     1       2.982   8.278  16.616  0.00  0.00    +0.000 OA
ATOM     30  H   UNL     1       3.837   7.825  16.702  0.00  0.00    +0.000 HD
ENDBRANCH   5  29
TORSDOF 6
ENDMDL
MODEL 5
REMARK VINA RESULT:      -8.3      0.284      2.101
REMARK  Name = 
REMARK  9 active torsions:
REMARK  status: ('A' for Active; 'I' for Inactive)
REMARK    1  A    between atoms: C_1  and  C_2
REMARK    2  A    between atoms: C_2  and  C_3
REMARK    3  A    between atoms: C_2  and  C_4
REMARK    4  A    between atoms: C_2  and  C_5
REMARK    5  A    between atoms: C_8  and  C_9
REMARK    6  A    between atoms: C_9  and  C_11
REMARK    7  A    between atoms: C_13  and  O_14
REMARK    8  A    between atoms: C_15  and  C_16
REMARK    9  A    between atoms: C_24  and  O_25
REMARK                            x       y       z     vdW  Elec       q    Type
REMARK                         _______ _______ _______ _____ _____    ______ ____
ROOT
ATOM      1  C   UNL     1       0.901   9.633  19.828  0.00  0.00    +0.000 A 
ATOM      2  C   UNL     1       0.990   9.472  21.209  0.00  0.00    +0.000 A 
ATOM      3  C   UNL     1       0.240  10.297  22.053  0.00  0.00    +0.000 A 
ATOM      4  C   UNL     1      -0.584  11.341  21.564  0.00  0.00    +0.000 A 
ATOM      5  C   UNL     1      -0.674  11.437  20.156  0.00  0.00    +0.000 A 
ATOM      6  C   UNL     1       0.022  10.575  19.302  0.00  0.00    +0.000 A 
ENDROOT
BRANCH   4   7
ATOM      7  C   UNL     1      -1.287  12.270  22.497  0.00  0.00    +0.000 A 
ATOM      8  C   UNL     1      -2.508  11.902  23.101  0.00  0.00    +0.000 A 
ATOM      9  C   UNL     1      -3.210  12.776  23.932  0.00  0.00    +0.000 A 
ATOM     10 CL   UNL     1      -4.746  12.312  24.552  0.00  0.00    +0.000 Cl
ATOM     11  C   UNL     1      -2.682  14.017  24.254  0.00  0.00    +0.000 A 
ATOM     12  C   UNL     1      -1.461  14.389  23.704  0.00  0.00    +0.000 A 
ATOM     13 CL   UNL     1      -0.767  15.905  24.132  0.00  0.00    +0.000 Cl
ATOM     14  C   UNL     1      -0.787  13.546  22.812  0.00  0.00    +0.000 A 
ENDBRANCH   4   7
BRANCH   1  15
ATOM     15  C   UNL     1       1.757   8.775  18.968  0.00  0.00    +0.000 C 
ATOM     16  O   UNL     1       2.341   9.295  18.017  0.00  0.00    +0.000 OA
BRANCH  15  20
ATOM     17  C   UNL     1       2.074   4.547  19.768  0.00  0.00    +0.000 A 
ATOM     18  C   UNL     1       1.684   5.468  20.756  0.00  0.00    +0.000 A 
ATOM     19  C   UNL     1       1.600   6.837  20.483  0.00  0.00    +0.000 A 
ATOM     20  C   UNL     1       1.906   7.320  19.209  0.00  0.00    +0.000 A 
ATOM     21  C   UNL     1       2.361   6.435  18.235  0.00  0.00    +0.000 A 
ATOM     22  C   UNL     1       2.428   5.064  18.508  0.00  0.00    +0.000 A 
BRANCH  17  24
ATOM     23  C   UNL     1       1.587   2.635  21.423  0.00  0.00    +0.000 C 
ATOM     24  C   UNL     1       2.105   3.030  20.022  0.00  0.00    +0.000 C 
ATOM     25  C   UNL     1       3.546   2.495  19.898  0.00  0.00    +0.000 C 
ATOM     26  C   UNL     1       1.210   2.315  18.986  0.00  0.00    +0.000 C 
ENDBRANCH  17  24
ENDBRANCH  15  20
ENDBRANCH   1  15
BRANCH   3  27
ATOM     27  O   UNL     1       0.322  10.062  23.403  0.00  0.00    +0.000 OA
ATOM     28  H   UNL     1      -0.553  10.187  23.810  0.00  0.00    +0.000 HD
ENDBRANCH   3  27
BRANCH   5  29
ATOM     29  O   UNL     1      -1.404  12.395  19.499  0.00  0.00    +0.000 OA
ATOM     30  H   UNL     1      -1.235  13.259  19.907  0.00  0.00    +0.000 HD
ENDBRANCH   5  29
TORSDOF 6
ENDMDL
MODEL 6
REMARK VINA RESULT:      -8.3      3.600      4.821
REMARK  Name = 
REMARK  9 active torsions:
REMARK  status: ('A' for Active; 'I' for Inactive)
REMARK    1  A    between atoms: C_1  and  C_2
REMARK    2  A    between atoms: C_2  and  C_3
REMARK    3  A    between atoms: C_2  and  C_4
REMARK    4  A    between atoms: C_2  and  C_5
REMARK    5  A    between atoms: C_8  and  C_9
REMARK    6  A    between atoms: C_9  and  C_11
REMARK    7  A    between atoms: C_13  and  O_14
REMARK    8  A    between atoms: C_15  and  C_16
REMARK    9  A    between atoms: C_24  and  O_25
REMARK                            x       y       z     vdW  Elec       q    Type
REMARK                         _______ _______ _______ _____ _____    ______ ____
ROOT
ATOM      1  C   UNL     1      -0.351  11.002  18.520  0.00  0.00    +0.000 A 
ATOM      2  C   UNL     1      -1.206  10.160  17.812  0.00  0.00    +0.000 A 
ATOM      3  C   UNL     1      -2.576  10.437  17.771  0.00  0.00    +0.000 A 
ATOM      4  C   UNL     1      -3.155  11.526  18.468  0.00  0.00    +0.000 A 
ATOM      5  C   UNL     1      -2.244  12.375  19.137  0.00  0.00    +0.000 A 
ATOM      6  C   UNL     1      -0.864  12.143  19.131  0.00  0.00    +0.000 A 
ENDROOT
BRANCH   4   7
ATOM      7  C   UNL     1      -4.634  11.730  18.488  0.00  0.00    +0.000 A 
ATOM      8  C   UNL     1      -5.435  11.119  19.475  0.00  0.00    +0.000 A 
ATOM      9  C   UNL     1      -6.824  11.251  19.480  0.00  0.00    +0.000 A 
ATOM     10 CL   UNL     1      -7.757  10.393  20.644  0.00  0.00    +0.000 Cl
ATOM     11  C   UNL     1      -7.457  12.060  18.549  0.00  0.00    +0.000 A 
ATOM     12  C   UNL     1      -6.687  12.706  17.589  0.00  0.00    +0.000 A 
ATOM     13 CL   UNL     1      -7.451  13.755  16.457  0.00  0.00    +0.000 Cl
ATOM     14  C   UNL     1      -5.300  12.520  17.535  0.00  0.00    +0.000 A 
ENDBRANCH   4   7
BRANCH   1  15
ATOM     15  C   UNL     1       1.088  10.642  18.588  0.00  0.00    +0.000 C 
ATOM     16  O   UNL     1       1.924  11.533  18.433  0.00  0.00    +0.000 OA
BRANCH  15  20
ATOM     17  C   UNL     1       2.291   6.568  19.341  0.00  0.00    +0.000 A 
ATOM     18  C   UNL     1       1.732   7.380  20.343  0.00  0.00    +0.000 A 
ATOM     19  C   UNL     1       1.361   8.703  20.085  0.00  0.00    +0.000 A 
ATOM     20  C   UNL     1       1.541   9.249  18.811  0.00  0.00    +0.000 A 
ATOM     21  C   UNL     1       2.156   8.484  17.823  0.00  0.00    +0.000 A 
ATOM     22  C   UNL     1       2.511   7.156  18.082  0.00  0.00    +0.000 A 
BRANCH  17  24
ATOM     23  C   UNL     1       1.965   4.131  18.572  0.00  0.00    +0.000 C 
ATOM     24  C   UNL     1       2.641   5.088  19.580  0.00  0.00    +0.000 C 
ATOM     25  C   UNL     1       2.200   4.654  20.992  0.00  0.00    +0.000 C 
ATOM     26  C   UNL     1       4.166   4.891  19.444  0.00  0.00    +0.000 C 
ENDBRANCH  17  24
ENDBRANCH  15  20
ENDBRANCH   1  15
BRANCH   3  27
ATOM     27  O   UNL     1      -3.365   9.606  17.015  0.00  0.00    +0.000 OA
ATOM     28  H   UNL     1      -4.293   9.889  17.081  0.00  0.00    +0.000 HD
ENDBRANCH   3  27
BRANCH   5  29
ATOM     29  O   UNL     1      -2.618  13.466  19.880  0.00  0.00    +0.000 OA
ATOM     30  H   UNL     1      -3.105  14.085  19.313  0.00  0.00    +0.000 HD
ENDBRANCH   5  29
TORSDOF 6
ENDMDL
MODEL 7
REMARK VINA RESULT:      -8.3      4.648      9.318
REMARK  Name = 
REMARK  9 active torsions:
REMARK  status: ('A' for Active; 'I' for Inactive)
REMARK    1  A    between atoms: C_1  and  C_2
REMARK    2  A    between atoms: C_2  and  C_3
REMARK    3  A    between atoms: C_2  and  C_4
REMARK    4  A    between atoms: C_2  and  C_5
REMARK    5  A    between atoms: C_8  and  C_9
REMARK    6  A    between atoms: C_9  and  C_11
REMARK    7  A    between atoms: C_13  and  O_14
REMARK    8  A    between atoms: C_15  and  C_16
REMARK    9  A    between atoms: C_24  and  O_25
REMARK                            x       y       z     vdW  Elec       q    Type
REMARK                         _______ _______ _______ _____ _____    ______ ____
ROOT
ATOM      1  C   UNL     1       1.082   9.947  19.284  0.00  0.00    +0.000 A 
ATOM      2  C   UNL     1       1.081   8.983  20.290  0.00  0.00    +0.000 A 
ATOM      3  C   UNL     1       1.738   7.766  20.084  0.00  0.00    +0.000 A 
ATOM      4  C   UNL     1       2.376   7.440  18.861  0.00  0.00    +0.000 A 
ATOM      5  C   UNL     1       2.386   8.465  17.888  0.00  0.00    +0.000 A 
ATOM      6  C   UNL     1       1.787   9.711  18.107  0.00  0.00    +0.000 A 
ENDROOT
BRANCH   4   7
ATOM      7  C   UNL     1       2.975   6.091  18.639  0.00  0.00    +0.000 A 
ATOM      8  C   UNL     1       2.158   4.951  18.498  0.00  0.00    +0.000 A 
ATOM      9  C   UNL     1       2.699   3.673  18.345  0.00  0.00    +0.000 A 
ATOM     10 CL   UNL     1       1.653   2.307  18.288  0.00  0.00    +0.000 Cl
ATOM     11  C   UNL     1       4.070   3.497  18.248  0.00  0.00    +0.000 A 
ATOM     12  C   UNL     1       4.898   4.610  18.344  0.00  0.00    +0.000 A 
ATOM     13 CL   UNL     1       6.600   4.416  18.175  0.00  0.00    +0.000 Cl
ATOM     14  C   UNL     1       4.365   5.885  18.570  0.00  0.00    +0.000 A 
ENDBRANCH   4   7
BRANCH   1  15
ATOM     15  C   UNL     1       0.325  11.203  19.519  0.00  0.00    +0.000 C 
ATOM     16  O   UNL     1       0.928  12.176  19.975  0.00  0.00    +0.000 OA
BRANCH  15  20
ATOM     17  C   UNL     1      -3.898  11.663  18.761  0.00  0.00    +0.000 A 
ATOM     18  C   UNL     1      -3.238  12.379  19.775  0.00  0.00    +0.000 A 
ATOM     19  C   UNL     1      -1.871  12.207  20.016  0.00  0.00    +0.000 A 
ATOM     20  C   UNL     1      -1.127  11.310  19.245  0.00  0.00    +0.000 A 
ATOM     21  C   UNL     1      -1.775  10.540  18.281  0.00  0.00    +0.000 A 
ATOM     22  C   UNL     1      -3.139  10.727  18.033  0.00  0.00    +0.000 A 
BRANCH  17  24
ATOM     23  C   UNL     1      -6.255  10.630  18.650  0.00  0.00    +0.000 C 
ATOM     24  C   UNL     1      -5.383  11.887  18.428  0.00  0.00    +0.000 C 
ATOM     25  C   UNL     1      -5.545  12.302  16.952  0.00  0.00    +0.000 C 
ATOM     26  C   UNL     1      -5.952  13.002  19.332  0.00  0.00    +0.000 C 
ENDBRANCH  17  24
ENDBRANCH  15  20
ENDBRANCH   1  15
BRANCH   3  27
ATOM     27  O   UNL     1       1.753   6.873  21.126  0.00  0.00    +0.000 OA
ATOM     28  H   UNL     1       1.374   6.025  20.835  0.00  0.00    +0.000 HD
ENDBRANCH   3  27
BRANCH   5  29
ATOM     29  O   UNL     1       2.936   8.330  16.638  0.00  0.00    +0.000 OA
ATOM     30  H   UNL     1       2.425   7.675  16.136  0.00  0.00    +0.000 HD
ENDBRANCH   5  29
TORSDOF 6
ENDMDL
MODEL 8
REMARK VINA RESULT:      -8.2      4.722      9.461
REMARK  Name = 
REMARK  9 active torsions:
REMARK  status: ('A' for Active; 'I' for Inactive)
REMARK    1  A    between atoms: C_1  and  C_2
REMARK    2  A    between atoms: C_2  and  C_3
REMARK    3  A    between atoms: C_2  and  C_4
REMARK    4  A    between atoms: C_2  and  C_5
REMARK    5  A    between atoms: C_8  and  C_9
REMARK    6  A    between atoms: C_9  and  C_11
REMARK    7  A    between atoms: C_13  and  O_14
REMARK    8  A    between atoms: C_15  and  C_16
REMARK    9  A    between atoms: C_24  and  O_25
REMARK                            x       y       z     vdW  Elec       q    Type
REMARK                         _______ _______ _______ _____ _____    ______ ____
ROOT
ATOM      1  C   UNL     1       1.089   9.594  19.588  0.00  0.00    +0.000 A 
ATOM      2  C   UNL     1       1.673   9.464  18.330  0.00  0.00    +0.000 A 
ATOM      3  C   UNL     1       2.339   8.281  17.994  0.00  0.00    +0.000 A 
ATOM      4  C   UNL     1       2.493   7.207  18.905  0.00  0.00    +0.000 A 
ATOM      5  C   UNL     1       1.848   7.369  20.152  0.00  0.00    +0.000 A 
ATOM      6  C   UNL     1       1.124   8.523  20.475  0.00  0.00    +0.000 A 
ENDROOT
BRANCH   4   7
ATOM      7  C   UNL     1       3.300   6.003  18.549  0.00  0.00    +0.000 A 
ATOM      8  C   UNL     1       2.673   4.802  18.158  0.00  0.00    +0.000 A 
ATOM      9  C   UNL     1       3.407   3.648  17.875  0.00  0.00    +0.000 A 
ATOM     10 CL   UNL     1       2.581   2.183  17.510  0.00  0.00    +0.000 Cl
ATOM     11  C   UNL     1       4.793   3.673  17.893  0.00  0.00    +0.000 A 
ATOM     12  C   UNL     1       5.437   4.857  18.236  0.00  0.00    +0.000 A 
ATOM     13 CL   UNL     1       7.157   4.919  18.215  0.00  0.00    +0.000 Cl
ATOM     14  C   UNL     1       4.706   5.997  18.592  0.00  0.00    +0.000 A 
ENDBRANCH   4   7
BRANCH   1  15
ATOM     15  C   UNL     1       0.441  10.887  19.927  0.00  0.00    +0.000 C 
ATOM     16  O   UNL     1       1.085  11.715  20.573  0.00  0.00    +0.000 OA
BRANCH  15  20
ATOM     17  C   UNL     1      -3.638  11.638  18.740  0.00  0.00    +0.000 A 
ATOM     18  C   UNL     1      -2.836  10.683  18.093  0.00  0.00    +0.000 A 
ATOM     19  C   UNL     1      -1.511  10.462  18.482  0.00  0.00    +0.000 A 
ATOM     20  C   UNL     1      -0.954  11.197  19.533  0.00  0.00    +0.000 A 
ATOM     21  C   UNL     1      -1.709  12.196  20.141  0.00  0.00    +0.000 A 
ATOM     22  C   UNL     1      -3.039  12.402  19.759  0.00  0.00    +0.000 A 
BRANCH  17  24
ATOM     23  C   UNL     1      -5.768  13.034  19.129  0.00  0.00    +0.000 C 
ATOM     24  C   UNL     1      -5.120  11.849  18.379  0.00  0.00    +0.000 C 
ATOM     25  C   UNL     1      -5.938  10.587  18.719  0.00  0.00    +0.000 C 
ATOM     26  C   UNL     1      -5.246  12.141  16.868  0.00  0.00    +0.000 C 
ENDBRANCH  17  24
ENDBRANCH  15  20
ENDBRANCH   1  15
BRANCH   3  27
ATOM     27  O   UNL     1       2.851   8.184  16.723  0.00  0.00    +0.000 OA
ATOM     28  H   UNL     1       2.493   7.391  16.288  0.00  0.00    +0.000 HD
ENDBRANCH   3  27
BRANCH   5  29
ATOM     29  O   UNL     1       1.900   6.449  21.168  0.00  0.00    +0.000 OA
ATOM     30  H   UNL     1       0.998   6.166  21.387  0.00  0.00    +0.000 HD
ENDBRANCH   5  29
TORSDOF 6
ENDMDL
MODEL 9
REMARK VINA RESULT:      -8.2      4.717      9.312
REMARK  Name = 
REMARK  9 active torsions:
REMARK  status: ('A' for Active; 'I' for Inactive)
REMARK    1  A    between atoms: C_1  and  C_2
REMARK    2  A    between atoms: C_2  and  C_3
REMARK    3  A    between atoms: C_2  and  C_4
REMARK    4  A    between atoms: C_2  and  C_5
REMARK    5  A    between atoms: C_8  and  C_9
REMARK    6  A    between atoms: C_9  and  C_11
REMARK    7  A    between atoms: C_13  and  O_14
REMARK    8  A    between atoms: C_15  and  C_16
REMARK    9  A    between atoms: C_24  and  O_25
REMARK                            x       y       z     vdW  Elec       q    Type
REMARK                         _______ _______ _______ _____ _____    ______ ____
ROOT
ATOM      1  C   UNL     1       1.131   9.641  19.467  0.00  0.00    +0.000 A 
ATOM      2  C   UNL     1       1.744   9.470  18.227  0.00  0.00    +0.000 A 
ATOM      3  C   UNL     1       2.395   8.267  17.936  0.00  0.00    +0.000 A 
ATOM      4  C   UNL     1       2.504   7.212  18.876  0.00  0.00    +0.000 A 
ATOM      5  C   UNL     1       1.831   7.416  20.102  0.00  0.00    +0.000 A 
ATOM      6  C   UNL     1       1.122   8.591  20.379  0.00  0.00    +0.000 A 
ENDROOT
BRANCH   4   7
ATOM      7  C   UNL     1       3.296   5.984  18.568  0.00  0.00    +0.000 A 
ATOM      8  C   UNL     1       4.706   6.005  18.609  0.00  0.00    +0.000 A 
ATOM      9  C   UNL     1       5.467   4.884  18.272  0.00  0.00    +0.000 A 
ATOM     10 CL   UNL     1       7.184   5.001  18.234  0.00  0.00    +0.000 Cl
ATOM     11  C   UNL     1       4.850   3.682  17.960  0.00  0.00    +0.000 A 
ATOM     12  C   UNL     1       3.461   3.625  17.951  0.00  0.00    +0.000 A 
ATOM     13 CL   UNL     1       2.679   2.128  17.615  0.00  0.00    +0.000 Cl
ATOM     14  C   UNL     1       2.692   4.764  18.218  0.00  0.00    +0.000 A 
ENDBRANCH   4   7
BRANCH   1  15
ATOM     15  C   UNL     1       0.500  10.954  19.759  0.00  0.00    +0.000 C 
ATOM     16  O   UNL     1       1.175  11.817  20.322  0.00  0.00    +0.000 OA
BRANCH  15  20
ATOM     17  C   UNL     1      -3.630  11.646  18.721  0.00  0.00    +0.000 A 
ATOM     18  C   UNL     1      -2.837  10.702  18.045  0.00  0.00    +0.000 A 
ATOM     19  C   UNL     1      -1.496  10.501  18.386  0.00  0.00    +0.000 A 
ATOM     20  C   UNL     1      -0.912  11.243  19.415  0.00  0.00    +0.000 A 
ATOM     21  C   UNL     1      -1.660  12.231  20.052  0.00  0.00    +0.000 A 
ATOM     22  C   UNL     1      -3.005  12.418  19.718  0.00  0.00    +0.000 A 
BRANCH  17  24
ATOM     23  C   UNL     1      -5.776  12.978  19.227  0.00  0.00    +0.000 C 
ATOM     24  C   UNL     1      -5.126  11.835  18.414  0.00  0.00    +0.000 C 
ATOM     25  C   UNL     1      -5.906  10.544  18.734  0.00  0.00    +0.000 C 
ATOM     26  C   UNL     1      -5.307  12.178  16.920  0.00  0.00    +0.000 C 
ENDBRANCH  17  24
ENDBRANCH  15  20
ENDBRANCH   1  15
BRANCH   3  27
ATOM     27  O   UNL     1       2.936   8.130  16.682  0.00  0.00    +0.000 OA
ATOM     28  H   UNL     1       2.674   8.886  16.129  0.00  0.00    +0.000 HD
ENDBRANCH   3  27
BRANCH   5  29
ATOM     29  O   UNL     1       1.839   6.519  21.139  0.00  0.00    +0.000 OA
ATOM     30  H   UNL     1       1.423   6.927  21.916  0.00  0.00    +0.000 HD
ENDBRANCH   5  29
TORSDOF 6
ENDMDL
