MODEL 1
REMARK VINA RESULT:      -6.8      0.000      0.000
REMARK  Name = 
REMARK  6 active torsions:
REMARK  status: ('A' for Active; 'I' for Inactive)
REMARK    1  A    between atoms: C_1  and  C_2
REMARK    2  A    between atoms: C_2  and  C_3
REMARK    3  A    between atoms: C_3  and  C_4
REMARK    4  A    between atoms: C_4  and  C_5
REMARK    5  A    between atoms: C_14  and  C_15
REMARK    6  A    between atoms: C_18  and  C_19
REMARK                            x       y       z     vdW  Elec       q    Type
REMARK                         _______ _______ _______ _____ _____    ______ ____
ROOT
ATOM      1  C   UNL     1       4.434   3.862  19.488  0.00  0.00    +0.000 C 
ATOM      2  C   UNL     1       3.507   4.208  18.310  0.00  0.00    +0.000 C 
ATOM      3  O   UNL     1       4.178   3.692  17.130  0.00  0.00    +0.000 OA
ATOM      4  C   UNL     1       4.968   4.486  16.378  0.00  0.00    +0.000 C 
ATOM      5  S   UNL     1       6.097   3.756  15.412  0.00  0.00    +0.000 S 
ATOM      6  N   UNL     1       4.761   5.831  16.400  0.00  0.00    +0.000 N 
ATOM      7  C   UNL     1       3.880   6.457  17.271  0.00  0.00    +0.000 A 
ATOM      8  C   UNL     1       3.656   7.829  17.168  0.00  0.00    +0.000 A 
ATOM      9  C   UNL     1       2.821   8.467  18.089  0.00  0.00    +0.000 A 
ATOM     10  C   UNL     1       2.224   7.744  19.130  0.00  0.00    +0.000 A 
ATOM     11  C   UNL     1       2.460   6.365  19.208  0.00  0.00    +0.000 A 
ATOM     12  C   UNL     1       3.267   5.703  18.265  0.00  0.00    +0.000 A 
ATOM     13  H   UNL     1       5.302   6.383  15.744  0.00  0.00    +0.000 HD
ENDROOT
BRANCH  10  14
ATOM     14  C   UNL     1       1.376   8.397  20.129  0.00  0.00    +0.000 A 
ATOM     15  C   UNL     1       1.044   8.012  21.420  0.00  0.00    +0.000 A 
ATOM     16  C   UNL     1       0.182   8.992  21.971  0.00  0.00    +0.000 A 
ATOM     17  C   UNL     1      -0.006   9.956  21.005  0.00  0.00    +0.000 A 
ATOM     18  N   UNL     1       0.706   9.582  19.897  0.00  0.00    +0.000 N 
ATOM     19  H   UNL     1       0.724  10.092  19.024  0.00  0.00    +0.000 HD
BRANCH  17  20
ATOM     20  C   UNL     1      -0.789  11.141  21.079  0.00  0.00    +0.000 C 
ATOM     21  N   UNL     1      -1.441  12.093  21.165  0.00  0.00    +0.000 NA
ENDBRANCH  17  20
ENDBRANCH  10  14
BRANCH   2  22
ATOM     22  C   UNL     1       2.187   3.404  18.446  0.00  0.00    +0.000 C 
BRANCH  22  23
ATOM     23  C   UNL     1       2.164   2.428  19.635  0.00  0.00    +0.000 C 
BRANCH  23  24
ATOM     24  C   UNL     1       1.100   2.819  20.647  0.00  0.00    +0.000 C 
ATOM     25  F   UNL     1       0.678   4.085  20.378  0.00  0.00    +0.000 F 
ENDBRANCH  23  24
ENDBRANCH  22  23
ENDBRANCH   2  22
TORSDOF 5
ENDMDL
MODEL 2
REMARK VINA RESULT:      -6.6      4.547      8.067
REMARK  Name = 
REMARK  6 active torsions:
REMARK  status: ('A' for Active; 'I' for Inactive)
REMARK    1  A    between atoms: C_1  and  C_2
REMARK    2  A    between atoms: C_2  and  C_3
REMARK    3  A    between atoms: C_3  and  C_4
REMARK    4  A    between atoms: C_4  and  C_5
REMARK    5  A    between atoms: C_14  and  C_15
REMARK    6  A    between atoms: C_18  and  C_19
REMARK                            x       y       z     vdW  Elec       q    Type
REMARK                         _______ _______ _______ _____ _____    ______ ____
ROOT
ATOM      1  C   UNL     1       0.889  13.011  19.700  0.00  0.00    +0.000 C 
ATOM      2  C   UNL     1      -0.297  12.043  19.845  0.00  0.00    +0.000 C 
ATOM      3  O   UNL     1      -1.263  12.743  20.672  0.00  0.00    +0.000 OA
ATOM      4  C   UNL     1      -1.304  12.549  22.006  0.00  0.00    +0.000 C 
ATOM      5  S   UNL     1      -2.013  13.724  22.933  0.00  0.00    +0.000 S 
ATOM      6  N   UNL     1      -0.823  11.384  22.518  0.00  0.00    +0.000 N 
ATOM      7  C   UNL     1      -0.148  10.435  21.761  0.00  0.00    +0.000 A 
ATOM      8  C   UNL     1       0.232   9.226  22.339  0.00  0.00    +0.000 A 
ATOM      9  C   UNL     1       0.970   8.302  21.594  0.00  0.00    +0.000 A 
ATOM     10  C   UNL     1       1.352   8.591  20.278  0.00  0.00    +0.000 A 
ATOM     11  C   UNL     1       0.952   9.812  19.718  0.00  0.00    +0.000 A 
ATOM     12  C   UNL     1       0.176  10.733  20.443  0.00  0.00    +0.000 A 
ATOM     13  H   UNL     1      -0.967  11.230  23.509  0.00  0.00    +0.000 HD
ENDROOT
BRANCH  10  14
ATOM     14  C   UNL     1       2.158   7.655  19.491  0.00  0.00    +0.000 A 
ATOM     15  C   UNL     1       2.512   7.678  18.149  0.00  0.00    +0.000 A 
ATOM     16  C   UNL     1       3.300   6.534  17.875  0.00  0.00    +0.000 A 
ATOM     17  C   UNL     1       3.407   5.824  19.052  0.00  0.00    +0.000 A 
ATOM     18  N   UNL     1       2.706   6.501  20.013  0.00  0.00    +0.000 N 
ATOM     19  H   UNL     1       2.591   6.190  20.968  0.00  0.00    +0.000 HD
BRANCH  17  20
ATOM     20  C   UNL     1       4.098   4.604  19.288  0.00  0.00    +0.000 C 
ATOM     21  N   UNL     1       4.684   3.620  19.460  0.00  0.00    +0.000 NA
ENDBRANCH  17  20
ENDBRANCH  10  14
BRANCH   2  22
ATOM     22  C   UNL     1      -0.969  11.848  18.460  0.00  0.00    +0.000 C 
BRANCH  22  23
ATOM     23  C   UNL     1      -2.403  11.294  18.530  0.00  0.00    +0.000 C 
BRANCH  23  24
ATOM     24  C   UNL     1      -2.524   9.985  17.767  0.00  0.00    +0.000 C 
ATOM     25  F   UNL     1      -1.334   9.712  17.166  0.00  0.00    +0.000 F 
ENDBRANCH  23  24
ENDBRANCH  22  23
ENDBRANCH   2  22
TORSDOF 5
ENDMDL
MODEL 3
REMARK VINA RESULT:      -6.6      4.645      8.035
REMARK  Name = 
REMARK  6 active torsions:
REMARK  status: ('A' for Active; 'I' for Inactive)
REMARK    1  A    between atoms: C_1  and  C_2
REMARK    2  A    between atoms: C_2  and  C_3
REMARK    3  A    between atoms: C_3  and  C_4
REMARK    4  A    between atoms: C_4  and  C_5
REMARK    5  A    between atoms: C_14  and  C_15
REMARK    6  A    between atoms: C_18  and  C_19
REMARK                            x       y       z     vdW  Elec       q    Type
REMARK                         _______ _______ _______ _____ _____    ______ ____
ROOT
ATOM      1  C   UNL     1       0.033  12.267  18.617  0.00  0.00    +0.000 C 
ATOM      2  C   UNL     1      -0.873  11.144  19.149  0.00  0.00    +0.000 C 
ATOM      3  O   UNL     1      -1.876  11.813  19.959  0.00  0.00    +0.000 OA
ATOM      4  C   UNL     1      -1.721  11.937  21.293  0.00  0.00    +0.000 C 
ATOM      5  S   UNL     1      -2.574  13.132  22.058  0.00  0.00    +0.000 S 
ATOM      6  N   UNL     1      -0.930  11.047  21.950  0.00  0.00    +0.000 N 
ATOM      7  C   UNL     1      -0.143  10.100  21.307  0.00  0.00    +0.000 A 
ATOM      8  C   UNL     1       0.569   9.164  22.053  0.00  0.00    +0.000 A 
ATOM      9  C   UNL     1       1.412   8.256  21.406  0.00  0.00    +0.000 A 
ATOM     10  C   UNL     1       1.566   8.294  20.015  0.00  0.00    +0.000 A 
ATOM     11  C   UNL     1       0.835   9.242  19.286  0.00  0.00    +0.000 A 
ATOM     12  C   UNL     1      -0.047  10.135  19.921  0.00  0.00    +0.000 A 
ATOM     13  H   UNL     1      -0.922  11.108  22.961  0.00  0.00    +0.000 HD
ENDROOT
BRANCH  10  14
ATOM     14  C   UNL     1       2.473   7.379  19.319  0.00  0.00    +0.000 A 
ATOM     15  C   UNL     1       2.988   7.427  18.032  0.00  0.00    +0.000 A 
ATOM     16  C   UNL     1       3.817   6.294  17.839  0.00  0.00    +0.000 A 
ATOM     17  C   UNL     1       3.788   5.567  19.010  0.00  0.00    +0.000 A 
ATOM     18  N   UNL     1       2.966   6.222  19.888  0.00  0.00    +0.000 N 
ATOM     19  H   UNL     1       2.738   5.895  20.817  0.00  0.00    +0.000 HD
BRANCH  17  20
ATOM     20  C   UNL     1       4.458   4.350  19.312  0.00  0.00    +0.000 C 
ATOM     21  N   UNL     1       4.978   3.343  19.546  0.00  0.00    +0.000 NA
ENDBRANCH  17  20
ENDBRANCH  10  14
BRANCH   2  22
ATOM     22  C   UNL     1      -1.634  10.496  17.962  0.00  0.00    +0.000 C 
BRANCH  22  23
ATOM     23  C   UNL     1      -2.835  11.317  17.461  0.00  0.00    +0.000 C 
BRANCH  23  24
ATOM     24  C   UNL     1      -3.122  11.033  15.996  0.00  0.00    +0.000 C 
ATOM     25  F   UNL     1      -2.674   9.784  15.691  0.00  0.00    +0.000 F 
ENDBRANCH  23  24
ENDBRANCH  22  23
ENDBRANCH   2  22
TORSDOF 5
ENDMDL
MODEL 4
REMARK VINA RESULT:      -6.5      2.903      4.081
REMARK  Name = 
REMARK  6 active torsions:
REMARK  status: ('A' for Active; 'I' for Inactive)
REMARK    1  A    between atoms: C_1  and  C_2
REMARK    2  A    between atoms: C_2  and  C_3
REMARK    3  A    between atoms: C_3  and  C_4
REMARK    4  A    between atoms: C_4  and  C_5
REMARK    5  A    between atoms: C_14  and  C_15
REMARK    6  A    between atoms: C_18  and  C_19
REMARK                            x       y       z     vdW  Elec       q    Type
REMARK                         _______ _______ _______ _____ _____    ______ ____
ROOT
ATOM      1  C   UNL     1       4.731   4.143  17.207  0.00  0.00    +0.000 C 
ATOM      2  C   UNL     1       4.995   4.511  18.676  0.00  0.00    +0.000 C 
ATOM      3  O   UNL     1       5.375   3.266  19.320  0.00  0.00    +0.000 OA
ATOM      4  C   UNL     1       4.463   2.510  19.964  0.00  0.00    +0.000 C 
ATOM      5  S   UNL     1       4.812   0.908  20.192  0.00  0.00    +0.000 S 
ATOM      6  N   UNL     1       3.339   3.106  20.448  0.00  0.00    +0.000 N 
ATOM      7  C   UNL     1       2.997   4.426  20.186  0.00  0.00    +0.000 A 
ATOM      8  C   UNL     1       1.876   4.989  20.793  0.00  0.00    +0.000 A 
ATOM      9  C   UNL     1       1.497   6.295  20.474  0.00  0.00    +0.000 A 
ATOM     10  C   UNL     1       2.219   7.037  19.531  0.00  0.00    +0.000 A 
ATOM     11  C   UNL     1       3.345   6.450  18.938  0.00  0.00    +0.000 A 
ATOM     12  C   UNL     1       3.761   5.151  19.279  0.00  0.00    +0.000 A 
ATOM     13  H   UNL     1       2.729   2.529  21.017  0.00  0.00    +0.000 HD
ENDROOT
BRANCH  10  14
ATOM     14  C   UNL     1       1.818   8.394  19.153  0.00  0.00    +0.000 A 
ATOM     15  C   UNL     1       2.075   9.121  18.000  0.00  0.00    +0.000 A 
ATOM     16  C   UNL     1       1.466  10.394  18.128  0.00  0.00    +0.000 A 
ATOM     17  C   UNL     1       0.855  10.427  19.363  0.00  0.00    +0.000 A 
ATOM     18  N   UNL     1       1.083   9.224  19.975  0.00  0.00    +0.000 N 
ATOM     19  H   UNL     1       0.774   8.984  20.908  0.00  0.00    +0.000 HD
BRANCH  17  20
ATOM     20  C   UNL     1       0.114  11.488  19.954  0.00  0.00    +0.000 C 
ATOM     21  N   UNL     1      -0.475  12.371  20.414  0.00  0.00    +0.000 NA
ENDBRANCH  17  20
ENDBRANCH  10  14
BRANCH   2  22
ATOM     22  C   UNL     1       6.237   5.438  18.756  0.00  0.00    +0.000 C 
BRANCH  22  23
ATOM     23  C   UNL     1       6.640   6.066  17.410  0.00  0.00    +0.000 C 
BRANCH  23  24
ATOM     24  C   UNL     1       7.525   7.284  17.615  0.00  0.00    +0.000 C 
ATOM     25  F   UNL     1       8.298   7.089  18.718  0.00  0.00    +0.000 F 
ENDBRANCH  23  24
ENDBRANCH  22  23
ENDBRANCH   2  22
TORSDOF 5
ENDMDL
MODEL 5
REMARK VINA RESULT:      -6.5      1.173      1.412
REMARK  Name = 
REMARK  6 active torsions:
REMARK  status: ('A' for Active; 'I' for Inactive)
REMARK    1  A    between atoms: C_1  and  C_2
REMARK    2  A    between atoms: C_2  and  C_3
REMARK    3  A    between atoms: C_3  and  C_4
REMARK    4  A    between atoms: C_4  and  C_5
REMARK    5  A    between atoms: C_14  and  C_15
REMARK    6  A    between atoms: C_18  and  C_19
REMARK                            x       y       z     vdW  Elec       q    Type
REMARK                         _______ _______ _______ _____ _____    ______ ____
ROOT
ATOM      1  C   UNL     1       4.240   3.853  19.353  0.00  0.00    +0.000 C 
ATOM      2  C   UNL     1       3.449   4.236  18.091  0.00  0.00    +0.000 C 
ATOM      3  O   UNL     1       4.191   3.658  16.984  0.00  0.00    +0.000 OA
ATOM      4  C   UNL     1       5.095   4.387  16.299  0.00  0.00    +0.000 C 
ATOM      5  S   UNL     1       6.259   3.570  15.450  0.00  0.00    +0.000 S 
ATOM      6  N   UNL     1       4.974   5.742  16.285  0.00  0.00    +0.000 N 
ATOM      7  C   UNL     1       4.058   6.438  17.063  0.00  0.00    +0.000 A 
ATOM      8  C   UNL     1       3.933   7.819  16.923  0.00  0.00    +0.000 A 
ATOM      9  C   UNL     1       3.059   8.524  17.755  0.00  0.00    +0.000 A 
ATOM     10  C   UNL     1       2.325   7.859  18.744  0.00  0.00    +0.000 A 
ATOM     11  C   UNL     1       2.464   6.470  18.861  0.00  0.00    +0.000 A 
ATOM     12  C   UNL     1       3.310   5.742  18.005  0.00  0.00    +0.000 A 
ATOM     13  H   UNL     1       5.606   6.248  15.675  0.00  0.00    +0.000 HD
ENDROOT
BRANCH  10  14
ATOM     14  C   UNL     1       1.432   8.582  19.653  0.00  0.00    +0.000 A 
ATOM     15  C   UNL     1       0.390   9.458  19.385  0.00  0.00    +0.000 A 
ATOM     16  C   UNL     1      -0.157   9.894  20.617  0.00  0.00    +0.000 A 
ATOM     17  C   UNL     1       0.567   9.284  21.619  0.00  0.00    +0.000 A 
ATOM     18  N   UNL     1       1.527   8.508  21.028  0.00  0.00    +0.000 N 
ATOM     19  H   UNL     1       2.222   7.969  21.528  0.00  0.00    +0.000 HD
BRANCH  17  20
ATOM     20  C   UNL     1       0.401   9.402  23.027  0.00  0.00    +0.000 C 
ATOM     21  N   UNL     1       0.295   9.515  24.173  0.00  0.00    +0.000 NA
ENDBRANCH  17  20
ENDBRANCH  10  14
BRANCH   2  22
ATOM     22  C   UNL     1       2.073   3.519  18.113  0.00  0.00    +0.000 C 
BRANCH  22  23
ATOM     23  C   UNL     1       1.817   2.687  19.382  0.00  0.00    +0.000 C 
BRANCH  23  24
ATOM     24  C   UNL     1       0.904   3.425  20.347  0.00  0.00    +0.000 C 
ATOM     25  F   UNL     1       1.047   2.887  21.590  0.00  0.00    +0.000 F 
ENDBRANCH  23  24
ENDBRANCH  22  23
ENDBRANCH   2  22
TORSDOF 5
ENDMDL
MODEL 6
REMARK VINA RESULT:      -6.5      1.141      1.243
REMARK  Name = 
REMARK  6 active torsions:
REMARK  status: ('A' for Active; 'I' for Inactive)
REMARK    1  A    between atoms: C_1  and  C_2
REMARK    2  A    between atoms: C_2  and  C_3
REMARK    3  A    between atoms: C_3  and  C_4
REMARK    4  A    between atoms: C_4  and  C_5
REMARK    5  A    between atoms: C_14  and  C_15
REMARK    6  A    between atoms: C_18  and  C_19
REMARK                            x       y       z     vdW  Elec       q    Type
REMARK                         _______ _______ _______ _____ _____    ______ ____
ROOT
ATOM      1  C   UNL     1       5.827   5.037  19.449  0.00  0.00    +0.000 C 
ATOM      2  C   UNL     1       4.675   4.816  18.454  0.00  0.00    +0.000 C 
ATOM      3  O   UNL     1       5.308   4.338  17.238  0.00  0.00    +0.000 OA
ATOM      4  C   UNL     1       5.632   5.189  16.243  0.00  0.00    +0.000 C 
ATOM      5  S   UNL     1       6.795   4.708  15.167  0.00  0.00    +0.000 S 
ATOM      6  N   UNL     1       4.953   6.363  16.133  0.00  0.00    +0.000 N 
ATOM      7  C   UNL     1       4.041   6.813  17.079  0.00  0.00    +0.000 A 
ATOM      8  C   UNL     1       3.319   7.981  16.849  0.00  0.00    +0.000 A 
ATOM      9  C   UNL     1       2.453   8.467  17.832  0.00  0.00    +0.000 A 
ATOM     10  C   UNL     1       2.322   7.803  19.058  0.00  0.00    +0.000 A 
ATOM     11  C   UNL     1       3.056   6.626  19.263  0.00  0.00    +0.000 A 
ATOM     12  C   UNL     1       3.901   6.105  18.267  0.00  0.00    +0.000 A 
ATOM     13  H   UNL     1       5.151   6.926  15.314  0.00  0.00    +0.000 HD
ENDROOT
BRANCH  10  14
ATOM     14  C   UNL     1       1.450   8.313  20.118  0.00  0.00    +0.000 A 
ATOM     15  C   UNL     1       0.976   7.700  21.269  0.00  0.00    +0.000 A 
ATOM     16  C   UNL     1       0.158   8.624  21.964  0.00  0.00    +0.000 A 
ATOM     17  C   UNL     1       0.137   9.785  21.221  0.00  0.00    +0.000 A 
ATOM     18  N   UNL     1       0.907   9.582  20.107  0.00  0.00    +0.000 N 
ATOM     19  H   UNL     1       1.044  10.261  19.370  0.00  0.00    +0.000 HD
BRANCH  17  20
ATOM     20  C   UNL     1      -0.545  11.002  21.500  0.00  0.00    +0.000 C 
ATOM     21  N   UNL     1      -1.077  12.008  21.711  0.00  0.00    +0.000 NA
ENDBRANCH  17  20
ENDBRANCH  10  14
BRANCH   2  22
ATOM     22  C   UNL     1       3.776   3.658  18.962  0.00  0.00    +0.000 C 
BRANCH  22  23
ATOM     23  C   UNL     1       2.815   3.096  17.900  0.00  0.00    +0.000 C 
BRANCH  23  24
ATOM     24  C   UNL     1       1.387   3.548  18.158  0.00  0.00    +0.000 C 
ATOM     25  F   UNL     1       1.101   4.600  17.343  0.00  0.00    +0.000 F 
ENDBRANCH  23  24
ENDBRANCH  22  23
ENDBRANCH   2  22
TORSDOF 5
ENDMDL
MODEL 7
REMARK VINA RESULT:      -6.4      4.053      7.498
REMARK  Name = 
REMARK  6 active torsions:
REMARK  status: ('A' for Active; 'I' for Inactive)
REMARK    1  A    between atoms: C_1  and  C_2
REMARK    2  A    between atoms: C_2  and  C_3
REMARK    3  A    between atoms: C_3  and  C_4
REMARK    4  A    between atoms: C_4  and  C_5
REMARK    5  A    between atoms: C_14  and  C_15
REMARK    6  A    between atoms: C_18  and  C_19
REMARK                            x       y       z     vdW  Elec       q    Type
REMARK                         _______ _______ _______ _____ _____    ______ ____
ROOT
ATOM      1  C   UNL     1       1.491  11.415  18.693  0.00  0.00    +0.000 C 
ATOM      2  C   UNL     1       0.428  10.337  18.965  0.00  0.00    +0.000 C 
ATOM      3  O   UNL     1      -0.486  10.934  19.922  0.00  0.00    +0.000 OA
ATOM      4  C   UNL     1      -0.338  10.724  21.246  0.00  0.00    +0.000 C 
ATOM      5  S   UNL     1      -1.030  11.817  22.281  0.00  0.00    +0.000 S 
ATOM      6  N   UNL     1       0.310   9.604  21.667  0.00  0.00    +0.000 N 
ATOM      7  C   UNL     1       0.968   8.731  20.811  0.00  0.00    +0.000 A 
ATOM      8  C   UNL     1       1.530   7.558  21.309  0.00  0.00    +0.000 A 
ATOM      9  C   UNL     1       2.250   6.716  20.457  0.00  0.00    +0.000 A 
ATOM     10  C   UNL     1       2.432   7.053  19.111  0.00  0.00    +0.000 A 
ATOM     11  C   UNL     1       1.853   8.236  18.632  0.00  0.00    +0.000 A 
ATOM     12  C   UNL     1       1.093   9.073  19.469  0.00  0.00    +0.000 A 
ATOM     13  H   UNL     1       0.308   9.428  22.665  0.00  0.00    +0.000 HD
ENDROOT
BRANCH  10  14
ATOM     14  C   UNL     1       3.215   6.206  18.208  0.00  0.00    +0.000 A 
ATOM     15  C   UNL     1       2.958   4.935  17.715  0.00  0.00    +0.000 A 
ATOM     16  C   UNL     1       4.035   4.552  16.879  0.00  0.00    +0.000 A 
ATOM     17  C   UNL     1       4.939   5.593  16.882  0.00  0.00    +0.000 A 
ATOM     18  N   UNL     1       4.441   6.577  17.694  0.00  0.00    +0.000 N 
ATOM     19  H   UNL     1       4.914   7.445  17.903  0.00  0.00    +0.000 HD
BRANCH  17  20
ATOM     20  C   UNL     1       6.181   5.687  16.195  0.00  0.00    +0.000 C 
ATOM     21  N   UNL     1       7.203   5.740  15.655  0.00  0.00    +0.000 NA
ENDBRANCH  17  20
ENDBRANCH  10  14
BRANCH   2  22
ATOM     22  C   UNL     1      -0.394  10.094  17.671  0.00  0.00    +0.000 C 
BRANCH  22  23
ATOM     23  C   UNL     1      -1.784  10.753  17.677  0.00  0.00    +0.000 C 
BRANCH  23  24
ATOM     24  C   UNL     1      -2.805   9.889  16.954  0.00  0.00    +0.000 C 
ATOM     25  F   UNL     1      -3.400   9.060  17.855  0.00  0.00    +0.000 F 
ENDBRANCH  23  24
ENDBRANCH  22  23
ENDBRANCH   2  22
TORSDOF 5
ENDMDL
MODEL 8
REMARK VINA RESULT:      -6.3      4.537      7.939
REMARK  Name = 
REMARK  6 active torsions:
REMARK  status: ('A' for Active; 'I' for Inactive)
REMARK    1  A    between atoms: C_1  and  C_2
REMARK    2  A    between atoms: C_2  and  C_3
REMARK    3  A    between atoms: C_3  and  C_4
REMARK    4  A    between atoms: C_4  and  C_5
REMARK    5  A    between atoms: C_14  and  C_15
REMARK    6  A    between atoms: C_18  and  C_19
REMARK                            x       y       z     vdW  Elec       q    Type
REMARK                         _______ _______ _______ _____ _____    ______ ____
ROOT
ATOM      1  C   UNL     1      -0.059  12.255  18.616  0.00  0.00    +0.000 C 
ATOM      2  C   UNL     1      -0.944  11.154  19.224  0.00  0.00    +0.000 C 
ATOM      3  O   UNL     1      -1.904  11.853  20.060  0.00  0.00    +0.000 OA
ATOM      4  C   UNL     1      -1.685  12.017  21.380  0.00  0.00    +0.000 C 
ATOM      5  S   UNL     1      -2.495  13.240  22.149  0.00  0.00    +0.000 S 
ATOM      6  N   UNL     1      -0.867  11.141  22.026  0.00  0.00    +0.000 N 
ATOM      7  C   UNL     1      -0.116  10.171  21.376  0.00  0.00    +0.000 A 
ATOM      8  C   UNL     1       0.626   9.253  22.115  0.00  0.00    +0.000 A 
ATOM      9  C   UNL     1       1.433   8.322  21.457  0.00  0.00    +0.000 A 
ATOM     10  C   UNL     1       1.521   8.317  20.059  0.00  0.00    +0.000 A 
ATOM     11  C   UNL     1       0.760   9.247  19.338  0.00  0.00    +0.000 A 
ATOM     12  C   UNL     1      -0.086  10.164  19.986  0.00  0.00    +0.000 A 
ATOM     13  H   UNL     1      -0.811  11.233  23.034  0.00  0.00    +0.000 HD
ENDROOT
BRANCH  10  14
ATOM     14  C   UNL     1       2.389   7.375  19.349  0.00  0.00    +0.000 A 
ATOM     15  C   UNL     1       2.703   6.053  19.627  0.00  0.00    +0.000 A 
ATOM     16  C   UNL     1       3.597   5.587  18.632  0.00  0.00    +0.000 A 
ATOM     17  C   UNL     1       3.824   6.636  17.768  0.00  0.00    +0.000 A 
ATOM     18  N   UNL     1       3.102   7.710  18.215  0.00  0.00    +0.000 N 
ATOM     19  H   UNL     1       3.106   8.625  17.786  0.00  0.00    +0.000 HD
BRANCH  17  20
ATOM     20  C   UNL     1       4.649   6.664  16.609  0.00  0.00    +0.000 C 
ATOM     21  N   UNL     1       5.339   6.665  15.680  0.00  0.00    +0.000 NA
ENDBRANCH  17  20
ENDBRANCH  10  14
BRANCH   2  22
ATOM     22  C   UNL     1      -1.763  10.475  18.094  0.00  0.00    +0.000 C 
BRANCH  22  23
ATOM     23  C   UNL     1      -2.492  11.462  17.166  0.00  0.00    +0.000 C 
BRANCH  23  24
ATOM     24  C   UNL     1      -2.757  10.842  15.804  0.00  0.00    +0.000 C 
ATOM     25  F   UNL     1      -2.542   9.500  15.880  0.00  0.00    +0.000 F 
ENDBRANCH  23  24
ENDBRANCH  22  23
ENDBRANCH   2  22
TORSDOF 5
ENDMDL
MODEL 9
REMARK VINA RESULT:      -6.3      1.449      1.590
REMARK  Name = 
REMARK  6 active torsions:
REMARK  status: ('A' for Active; 'I' for Inactive)
REMARK    1  A    between atoms: C_1  and  C_2
REMARK    2  A    between atoms: C_2  and  C_3
REMARK    3  A    between atoms: C_3  and  C_4
REMARK    4  A    between atoms: C_4  and  C_5
REMARK    5  A    between atoms: C_14  and  C_15
REMARK    6  A    between atoms: C_18  and  C_19
REMARK                            x       y       z     vdW  Elec       q    Type
REMARK                         _______ _______ _______ _____ _____    ______ ____
ROOT
ATOM      1  C   UNL     1       4.670   5.085  19.690  0.00  0.00    +0.000 C 
ATOM      2  C   UNL     1       3.557   5.214  18.636  0.00  0.00    +0.000 C 
ATOM      3  O   UNL     1       4.176   4.834  17.378  0.00  0.00    +0.000 OA
ATOM      4  C   UNL     1       4.686   5.765  16.547  0.00  0.00    +0.000 C 
ATOM      5  S   UNL     1       5.820   5.274  15.444  0.00  0.00    +0.000 S 
ATOM      6  N   UNL     1       4.206   7.037  16.608  0.00  0.00    +0.000 N 
ATOM      7  C   UNL     1       3.324   7.477  17.586  0.00  0.00    +0.000 A 
ATOM      8  C   UNL     1       2.807   8.770  17.527  0.00  0.00    +0.000 A 
ATOM      9  C   UNL     1       1.973   9.231  18.548  0.00  0.00    +0.000 A 
ATOM     10  C   UNL     1       1.669   8.414  19.644  0.00  0.00    +0.000 A 
ATOM     11  C   UNL     1       2.197   7.116  19.678  0.00  0.00    +0.000 A 
ATOM     12  C   UNL     1       3.006   6.625  18.637  0.00  0.00    +0.000 A 
ATOM     13  H   UNL     1       4.537   7.681  15.899  0.00  0.00    +0.000 HD
ENDROOT
BRANCH  10  14
ATOM     14  C   UNL     1       0.829   8.889  20.745  0.00  0.00    +0.000 A 
ATOM     15  C   UNL     1       0.158   8.185  21.736  0.00  0.00    +0.000 A 
ATOM     16  C   UNL     1      -0.523   9.114  22.560  0.00  0.00    +0.000 A 
ATOM     17  C   UNL     1      -0.266  10.370  22.055  0.00  0.00    +0.000 A 
ATOM     18  N   UNL     1       0.537  10.222  20.956  0.00  0.00    +0.000 N 
ATOM     19  H   UNL     1       0.857  10.981  20.370  0.00  0.00    +0.000 HD
BRANCH  17  20
ATOM     20  C   UNL     1      -0.726  11.627  22.535  0.00  0.00    +0.000 C 
ATOM     21  N   UNL     1      -1.123  12.635  22.943  0.00  0.00    +0.000 NA
ENDBRANCH  17  20
ENDBRANCH  10  14
BRANCH   2  22
ATOM     22  C   UNL     1       2.460   4.154  18.919  0.00  0.00    +0.000 C 
BRANCH  22  23
ATOM     23  C   UNL     1       2.306   3.097  17.811  0.00  0.00    +0.000 C 
BRANCH  23  24
ATOM     24  C   UNL     1       2.999   1.799  18.189  0.00  0.00    +0.000 C 
ATOM     25  F   UNL     1       3.528   1.927  19.437  0.00  0.00    +0.000 F 
ENDBRANCH  23  24
ENDBRANCH  22  23
ENDBRANCH   2  22
TORSDOF 5
ENDMDL
