MODEL 1
REMARK VINA RESULT:      -7.8      0.000      0.000
REMARK  Name = 
REMARK  4 active torsions:
REMARK  status: ('A' for Active; 'I' for Inactive)
REMARK    1  A    between atoms: C_2  and  C_3
REMARK    2  A    between atoms: C_3  and  C_4
REMARK    3  A    between atoms: C_4  and  S_5
REMARK    4  A    between atoms: S_5  and  C_6
REMARK                            x       y       z     vdW  Elec       q    Type
REMARK                         _______ _______ _______ _____ _____    ______ ____
ROOT
ATOM      1  C   UNL     1       6.648   5.870  17.299  0.00  0.00    +0.000 C 
ATOM      2  S   UNL     1       5.041   5.846  16.330  0.00  0.00    +0.000 S 
ATOM      3  C   UNL     1       3.966   6.844  17.341  0.00  0.00    +0.000 A 
ATOM      4  C   UNL     1       3.633   8.102  16.834  0.00  0.00    +0.000 A 
ATOM      5  C   UNL     1       2.703   8.906  17.489  0.00  0.00    +0.000 A 
ATOM      6  C   UNL     1       2.104   8.472  18.671  0.00  0.00    +0.000 A 
ATOM      7  C   UNL     1       1.128   9.282  19.275  0.00  0.00    +0.000 A 
ATOM      8  C   UNL     1       0.490   8.886  20.446  0.00  0.00    +0.000 A 
ATOM      9  C   UNL     1       0.861   7.698  21.055  0.00  0.00    +0.000 A 
ATOM     10  C   UNL     1       1.848   6.895  20.475  0.00  0.00    +0.000 A 
ATOM     11  C   UNL     1       2.465   7.222  19.241  0.00  0.00    +0.000 A 
ATOM     12  C   UNL     1       3.382   6.361  18.540  0.00  0.00    +0.000 A 
ATOM     13  C   UNL     1       3.694   4.964  19.014  0.00  0.00    +0.000 A 
ATOM     14  C   UNL     1       5.030   4.591  19.317  0.00  0.00    +0.000 A 
ATOM     15  C   UNL     1       5.313   3.342  19.883  0.00  0.00    +0.000 A 
ATOM     16  C   UNL     1       4.295   2.432  20.133  0.00  0.00    +0.000 A 
ATOM     17  C   UNL     1       2.976   2.729  19.791  0.00  0.00    +0.000 A 
ATOM     18  C   UNL     1       1.973   1.784  20.058  0.00  0.00    +0.000 A 
ATOM     19  C   UNL     1       0.644   2.033  19.728  0.00  0.00    +0.000 A 
ATOM     20  C   UNL     1       0.311   3.221  19.096  0.00  0.00    +0.000 A 
ATOM     21  C   UNL     1       1.302   4.166  18.818  0.00  0.00    +0.000 A 
ATOM     22  C   UNL     1       2.657   3.977  19.190  0.00  0.00    +0.000 A 
ATOM     23  S   UNL     1       6.440   5.675  19.144  0.00  0.00    +0.000 S 
ENDROOT
BRANCH   1  24
ATOM     24  C   UNL     1       7.360   7.247  17.120  0.00  0.00    +0.000 C 
BRANCH  24  26
ATOM     25  C   UNL     1       8.532   9.090  18.357  0.00  0.00    +0.000 C 
ATOM     26  C   UNL     1       8.148   7.809  18.281  0.00  0.00    +0.000 C 
ENDBRANCH  24  26
ENDBRANCH   1  24
BRANCH   1  27
ATOM     27  S   UNL     1       7.558   4.395  16.572  0.00  0.00    +0.000 S 
BRANCH  27  28
ATOM     28  C   UNL     1       7.246   4.521  14.838  0.00  0.00    +0.000 A 
ATOM     29  C   UNL     1       6.227   3.760  14.274  0.00  0.00    +0.000 A 
ATOM     30  C   UNL     1       5.970   3.889  12.912  0.00  0.00    +0.000 A 
ATOM     31  C   UNL     1       6.716   4.790  12.165  0.00  0.00    +0.000 A 
ATOM     32  C   UNL     1       7.677   5.541  12.817  0.00  0.00    +0.000 A 
ATOM     33  N   UNL     1       7.949   5.431  14.135  0.00  0.00    +0.000 NA
ENDBRANCH  27  28
ENDBRANCH   1  27
TORSDOF 4
ENDMDL
MODEL 2
REMARK VINA RESULT:      -6.9      8.015     10.547
REMARK  Name = 
REMARK  4 active torsions:
REMARK  status: ('A' for Active; 'I' for Inactive)
REMARK    1  A    between atoms: C_2  and  C_3
REMARK    2  A    between atoms: C_3  and  C_4
REMARK    3  A    between atoms: C_4  and  S_5
REMARK    4  A    between atoms: S_5  and  C_6
REMARK                            x       y       z     vdW  Elec       q    Type
REMARK                         _______ _______ _______ _____ _____    ______ ____
ROOT
ATOM      1  C   UNL     1       1.388  16.652  19.499  0.00  0.00    +0.000 C 
ATOM      2  S   UNL     1      -0.380  16.503  18.889  0.00  0.00    +0.000 S 
ATOM      3  C   UNL     1      -1.220  15.815  20.301  0.00  0.00    +0.000 A 
ATOM      4  C   UNL     1      -2.090  16.671  20.980  0.00  0.00    +0.000 A 
ATOM      5  C   UNL     1      -2.884  16.195  22.020  0.00  0.00    +0.000 A 
ATOM      6  C   UNL     1      -2.809  14.858  22.410  0.00  0.00    +0.000 A 
ATOM      7  C   UNL     1      -3.665  14.396  23.423  0.00  0.00    +0.000 A 
ATOM      8  C   UNL     1      -3.640  13.068  23.836  0.00  0.00    +0.000 A 
ATOM      9  C   UNL     1      -2.718  12.199  23.274  0.00  0.00    +0.000 A 
ATOM     10  C   UNL     1      -1.845  12.653  22.281  0.00  0.00    +0.000 A 
ATOM     11  C   UNL     1      -1.893  13.977  21.775  0.00  0.00    +0.000 A 
ATOM     12  C   UNL     1      -1.111  14.448  20.662  0.00  0.00    +0.000 A 
ATOM     13  C   UNL     1      -0.229  13.529  19.854  0.00  0.00    +0.000 A 
ATOM     14  C   UNL     1       1.163  13.786  19.742  0.00  0.00    +0.000 A 
ATOM     15  C   UNL     1       2.009  12.869  19.108  0.00  0.00    +0.000 A 
ATOM     16  C   UNL     1       1.500  11.705  18.548  0.00  0.00    +0.000 A 
ATOM     17  C   UNL     1       0.130  11.444  18.576  0.00  0.00    +0.000 A 
ATOM     18  C   UNL     1      -0.349  10.257  18.000  0.00  0.00    +0.000 A 
ATOM     19  C   UNL     1      -1.707   9.957  17.997  0.00  0.00    +0.000 A 
ATOM     20  C   UNL     1      -2.606  10.860  18.544  0.00  0.00    +0.000 A 
ATOM     21  C   UNL     1      -2.141  12.048  19.113  0.00  0.00    +0.000 A 
ATOM     22  C   UNL     1      -0.761  12.365  19.190  0.00  0.00    +0.000 A 
ATOM     23  S   UNL     1       1.990  15.184  20.485  0.00  0.00    +0.000 S 
ENDROOT
BRANCH   1  24
ATOM     24  C   UNL     1       1.518  17.867  20.471  0.00  0.00    +0.000 C 
BRANCH  24  26
ATOM     25  C   UNL     1       0.770  18.017  22.862  0.00  0.00    +0.000 C 
ATOM     26  C   UNL     1       1.658  17.596  21.951  0.00  0.00    +0.000 C 
ENDBRANCH  24  26
ENDBRANCH   1  24
BRANCH   1  27
ATOM     27  S   UNL     1       2.340  16.807  17.887  0.00  0.00    +0.000 S 
BRANCH  27  28
ATOM     28  C   UNL     1       3.993  16.370  18.332  0.00  0.00    +0.000 A 
ATOM     29  C   UNL     1       4.540  15.190  17.838  0.00  0.00    +0.000 A 
ATOM     30  C   UNL     1       5.854  14.871  18.170  0.00  0.00    +0.000 A 
ATOM     31  C   UNL     1       6.586  15.748  18.959  0.00  0.00    +0.000 A 
ATOM     32  C   UNL     1       5.978  16.920  19.367  0.00  0.00    +0.000 A 
ATOM     33  N   UNL     1       4.704  17.251  19.063  0.00  0.00    +0.000 NA
ENDBRANCH  27  28
ENDBRANCH   1  27
TORSDOF 4
ENDMDL
MODEL 3
REMARK VINA RESULT:      -6.9      8.434     11.433
REMARK  Name = 
REMARK  4 active torsions:
REMARK  status: ('A' for Active; 'I' for Inactive)
REMARK    1  A    between atoms: C_2  and  C_3
REMARK    2  A    between atoms: C_3  and  C_4
REMARK    3  A    between atoms: C_4  and  S_5
REMARK    4  A    between atoms: S_5  and  C_6
REMARK                            x       y       z     vdW  Elec       q    Type
REMARK                         _______ _______ _______ _____ _____    ______ ____
ROOT
ATOM      1  C   UNL     1      -0.500  14.133  21.859  0.00  0.00    +0.000 C 
ATOM      2  S   UNL     1      -1.434  14.957  20.455  0.00  0.00    +0.000 S 
ATOM      3  C   UNL     1      -3.109  14.426  20.742  0.00  0.00    +0.000 A 
ATOM      4  C   UNL     1      -3.998  15.402  21.196  0.00  0.00    +0.000 A 
ATOM      5  C   UNL     1      -5.355  15.117  21.332  0.00  0.00    +0.000 A 
ATOM      6  C   UNL     1      -5.841  13.845  21.033  0.00  0.00    +0.000 A 
ATOM      7  C   UNL     1      -7.223  13.607  21.125  0.00  0.00    +0.000 A 
ATOM      8  C   UNL     1      -7.759  12.361  20.821  0.00  0.00    +0.000 A 
ATOM      9  C   UNL     1      -6.911  11.322  20.472  0.00  0.00    +0.000 A 
ATOM     10  C   UNL     1      -5.532  11.541  20.399  0.00  0.00    +0.000 A 
ATOM     11  C   UNL     1      -4.953  12.816  20.622  0.00  0.00    +0.000 A 
ATOM     12  C   UNL     1      -3.559  13.119  20.424  0.00  0.00    +0.000 A 
ATOM     13  C   UNL     1      -2.593  12.113  19.852  0.00  0.00    +0.000 A 
ATOM     14  C   UNL     1      -1.445  11.721  20.591  0.00  0.00    +0.000 A 
ATOM     15  C   UNL     1      -0.615  10.693  20.129  0.00  0.00    +0.000 A 
ATOM     16  C   UNL     1      -0.880  10.056  18.923  0.00  0.00    +0.000 A 
ATOM     17  C   UNL     1      -1.958  10.453  18.133  0.00  0.00    +0.000 A 
ATOM     18  C   UNL     1      -2.196   9.787  16.920  0.00  0.00    +0.000 A 
ATOM     19  C   UNL     1      -3.255  10.153  16.095  0.00  0.00    +0.000 A 
ATOM     20  C   UNL     1      -4.069  11.214  16.461  0.00  0.00    +0.000 A 
ATOM     21  C   UNL     1      -3.837  11.889  17.661  0.00  0.00    +0.000 A 
ATOM     22  C   UNL     1      -2.806  11.511  18.559  0.00  0.00    +0.000 A 
ATOM     23  S   UNL     1      -1.014  12.370  22.198  0.00  0.00    +0.000 S 
ENDROOT
BRANCH   1  24
ATOM     24  C   UNL     1      -0.767  14.892  23.197  0.00  0.00    +0.000 C 
BRANCH  24  26
ATOM     25  C   UNL     1      -2.781  15.060  24.686  0.00  0.00    +0.000 C 
ATOM     26  C   UNL     1      -1.792  14.329  24.154  0.00  0.00    +0.000 C 
ENDBRANCH  24  26
ENDBRANCH   1  24
BRANCH   1  27
ATOM     27  S   UNL     1       1.272  14.202  21.237  0.00  0.00    +0.000 S 
BRANCH  27  28
ATOM     28  C   UNL     1       1.380  15.781  20.451  0.00  0.00    +0.000 A 
ATOM     29  C   UNL     1       1.480  15.844  19.065  0.00  0.00    +0.000 A 
ATOM     30  C   UNL     1       1.535  17.093  18.453  0.00  0.00    +0.000 A 
ATOM     31  C   UNL     1       1.460  18.235  19.239  0.00  0.00    +0.000 A 
ATOM     32  C   UNL     1       1.313  18.079  20.605  0.00  0.00    +0.000 A 
ATOM     33  N   UNL     1       1.263  16.880  21.222  0.00  0.00    +0.000 NA
ENDBRANCH  27  28
ENDBRANCH   1  27
TORSDOF 4
ENDMDL
MODEL 4
REMARK VINA RESULT:      -6.9      8.812     12.792
REMARK  Name = 
REMARK  4 active torsions:
REMARK  status: ('A' for Active; 'I' for Inactive)
REMARK    1  A    between atoms: C_2  and  C_3
REMARK    2  A    between atoms: C_3  and  C_4
REMARK    3  A    between atoms: C_4  and  S_5
REMARK    4  A    between atoms: S_5  and  C_6
REMARK                            x       y       z     vdW  Elec       q    Type
REMARK                         _______ _______ _______ _____ _____    ______ ____
ROOT
ATOM      1  C   UNL     1       5.124  15.627  20.119  0.00  0.00    +0.000 C 
ATOM      2  S   UNL     1       6.156  16.022  18.602  0.00  0.00    +0.000 S 
ATOM      3  C   UNL     1       7.316  14.672  18.563  0.00  0.00    +0.000 A 
ATOM      4  C   UNL     1       7.140  13.735  17.543  0.00  0.00    +0.000 A 
ATOM      5  C   UNL     1       8.066  12.712  17.352  0.00  0.00    +0.000 A 
ATOM      6  C   UNL     1       9.175  12.600  18.190  0.00  0.00    +0.000 A 
ATOM      7  C   UNL     1      10.120  11.592  17.935  0.00  0.00    +0.000 A 
ATOM      8  C   UNL     1      11.251  11.449  18.732  0.00  0.00    +0.000 A 
ATOM      9  C   UNL     1      11.420  12.281  19.827  0.00  0.00    +0.000 A 
ATOM     10  C   UNL     1      10.475  13.272  20.105  0.00  0.00    +0.000 A 
ATOM     11  C   UNL     1       9.351  13.504  19.271  0.00  0.00    +0.000 A 
ATOM     12  C   UNL     1       8.429  14.597  19.439  0.00  0.00    +0.000 A 
ATOM     13  C   UNL     1       8.640  15.673  20.474  0.00  0.00    +0.000 A 
ATOM     14  C   UNL     1       7.657  15.912  21.471  0.00  0.00    +0.000 A 
ATOM     15  C   UNL     1       7.901  16.814  22.513  0.00  0.00    +0.000 A 
ATOM     16  C   UNL     1       9.097  17.516  22.576  0.00  0.00    +0.000 A 
ATOM     17  C   UNL     1      10.064  17.363  21.583  0.00  0.00    +0.000 A 
ATOM     18  C   UNL     1      11.261  18.089  21.680  0.00  0.00    +0.000 A 
ATOM     19  C   UNL     1      12.251  17.975  20.709  0.00  0.00    +0.000 A 
ATOM     20  C   UNL     1      12.039  17.154  19.613  0.00  0.00    +0.000 A 
ATOM     21  C   UNL     1      10.848  16.432  19.502  0.00  0.00    +0.000 A 
ATOM     22  C   UNL     1       9.838  16.475  20.497  0.00  0.00    +0.000 A 
ATOM     23  S   UNL     1       6.109  15.028  21.588  0.00  0.00    +0.000 S 
ENDROOT
BRANCH   1  24
ATOM     24  C   UNL     1       4.130  14.466  19.803  0.00  0.00    +0.000 C 
BRANCH  24  26
ATOM     25  C   UNL     1       2.485  13.804  18.027  0.00  0.00    +0.000 C 
ATOM     26  C   UNL     1       3.699  14.254  18.370  0.00  0.00    +0.000 C 
ENDBRANCH  24  26
ENDBRANCH   1  24
BRANCH   1  27
ATOM     27  S   UNL     1       4.326  17.289  20.486  0.00  0.00    +0.000 S 
BRANCH  27  28
ATOM     28  C   UNL     1       2.777  17.207  19.641  0.00  0.00    +0.000 A 
ATOM     29  C   UNL     1       1.631  16.870  20.353  0.00  0.00    +0.000 A 
ATOM     30  C   UNL     1       0.411  16.838  19.684  0.00  0.00    +0.000 A 
ATOM     31  C   UNL     1       0.369  17.170  18.337  0.00  0.00    +0.000 A 
ATOM     32  C   UNL     1       1.550  17.539  17.719  0.00  0.00    +0.000 A 
ATOM     33  N   UNL     1       2.746  17.573  18.344  0.00  0.00    +0.000 NA
ENDBRANCH  27  28
ENDBRANCH   1  27
TORSDOF 4
ENDMDL
MODEL 5
REMARK VINA RESULT:      -6.8      7.848      9.894
REMARK  Name = 
REMARK  4 active torsions:
REMARK  status: ('A' for Active; 'I' for Inactive)
REMARK    1  A    between atoms: C_2  and  C_3
REMARK    2  A    between atoms: C_3  and  C_4
REMARK    3  A    between atoms: C_4  and  S_5
REMARK    4  A    between atoms: S_5  and  C_6
REMARK                            x       y       z     vdW  Elec       q    Type
REMARK                         _______ _______ _______ _____ _____    ______ ____
ROOT
ATOM      1  C   UNL     1       2.022  14.635  19.742  0.00  0.00    +0.000 C 
ATOM      2  S   UNL     1       0.373  15.458  19.389  0.00  0.00    +0.000 S 
ATOM      3  C   UNL     1      -0.585  15.037  20.830  0.00  0.00    +0.000 A 
ATOM      4  C   UNL     1      -0.859  16.080  21.717  0.00  0.00    +0.000 A 
ATOM      5  C   UNL     1      -1.702  15.880  22.808  0.00  0.00    +0.000 A 
ATOM      6  C   UNL     1      -2.271  14.629  23.039  0.00  0.00    +0.000 A 
ATOM      7  C   UNL     1      -3.163  14.476  24.114  0.00  0.00    +0.000 A 
ATOM      8  C   UNL     1      -3.770  13.252  24.375  0.00  0.00    +0.000 A 
ATOM      9  C   UNL     1      -3.449  12.153  23.595  0.00  0.00    +0.000 A 
ATOM     10  C   UNL     1      -2.546  12.288  22.537  0.00  0.00    +0.000 A 
ATOM     11  C   UNL     1      -1.968  13.534  22.186  0.00  0.00    +0.000 A 
ATOM     12  C   UNL     1      -1.143  13.747  21.025  0.00  0.00    +0.000 A 
ATOM     13  C   UNL     1      -0.901  12.666  20.003  0.00  0.00    +0.000 A 
ATOM     14  C   UNL     1       0.421  12.235  19.712  0.00  0.00    +0.000 A 
ATOM     15  C   UNL     1       0.647  11.144  18.866  0.00  0.00    +0.000 A 
ATOM     16  C   UNL     1      -0.416  10.479  18.269  0.00  0.00    +0.000 A 
ATOM     17  C   UNL     1      -1.727  10.908  18.472  0.00  0.00    +0.000 A 
ATOM     18  C   UNL     1      -2.776  10.212  17.852  0.00  0.00    +0.000 A 
ATOM     19  C   UNL     1      -4.100  10.607  18.020  0.00  0.00    +0.000 A 
ATOM     20  C   UNL     1      -4.384  11.727  18.786  0.00  0.00    +0.000 A 
ATOM     21  C   UNL     1      -3.347  12.433  19.402  0.00  0.00    +0.000 A 
ATOM     22  C   UNL     1      -1.991  12.029  19.305  0.00  0.00    +0.000 A 
ATOM     23  S   UNL     1       1.888  12.919  20.467  0.00  0.00    +0.000 S 
ENDROOT
BRANCH   1  24
ATOM     24  C   UNL     1       2.814  15.458  20.806  0.00  0.00    +0.000 C 
BRANCH  24  26
ATOM     25  C   UNL     1       4.966  14.715  21.862  0.00  0.00    +0.000 C 
ATOM     26  C   UNL     1       3.627  14.711  21.838  0.00  0.00    +0.000 C 
ENDBRANCH  24  26
ENDBRANCH   1  24
BRANCH   1  27
ATOM     27  S   UNL     1       2.798  14.576  18.032  0.00  0.00    +0.000 S 
BRANCH  27  28
ATOM     28  C   UNL     1       4.414  15.244  18.280  0.00  0.00    +0.000 A 
ATOM     29  C   UNL     1       5.525  14.448  18.021  0.00  0.00    +0.000 A 
ATOM     30  C   UNL     1       6.795  14.994  18.191  0.00  0.00    +0.000 A 
ATOM     31  C   UNL     1       6.915  16.318  18.587  0.00  0.00    +0.000 A 
ATOM     32  C   UNL     1       5.757  17.050  18.777  0.00  0.00    +0.000 A 
ATOM     33  N   UNL     1       4.515  16.543  18.624  0.00  0.00    +0.000 NA
ENDBRANCH  27  28
ENDBRANCH   1  27
TORSDOF 4
ENDMDL
MODEL 6
REMARK VINA RESULT:      -6.8      8.434     11.661
REMARK  Name = 
REMARK  4 active torsions:
REMARK  status: ('A' for Active; 'I' for Inactive)
REMARK    1  A    between atoms: C_2  and  C_3
REMARK    2  A    between atoms: C_3  and  C_4
REMARK    3  A    between atoms: C_4  and  S_5
REMARK    4  A    between atoms: S_5  and  C_6
REMARK                            x       y       z     vdW  Elec       q    Type
REMARK                         _______ _______ _______ _____ _____    ______ ____
ROOT
ATOM      1  C   UNL     1      -0.325  14.313  21.864  0.00  0.00    +0.000 C 
ATOM      2  S   UNL     1      -1.236  15.091  20.420  0.00  0.00    +0.000 S 
ATOM      3  C   UNL     1      -2.927  14.633  20.739  0.00  0.00    +0.000 A 
ATOM      4  C   UNL     1      -3.781  15.662  21.142  0.00  0.00    +0.000 A 
ATOM      5  C   UNL     1      -5.146  15.431  21.296  0.00  0.00    +0.000 A 
ATOM      6  C   UNL     1      -5.676  14.162  21.067  0.00  0.00    +0.000 A 
ATOM      7  C   UNL     1      -7.065  13.977  21.174  0.00  0.00    +0.000 A 
ATOM      8  C   UNL     1      -7.645  12.735  20.939  0.00  0.00    +0.000 A 
ATOM      9  C   UNL     1      -6.833  11.651  20.645  0.00  0.00    +0.000 A 
ATOM     10  C   UNL     1      -5.448  11.818  20.557  0.00  0.00    +0.000 A 
ATOM     11  C   UNL     1      -4.825  13.083  20.710  0.00  0.00    +0.000 A 
ATOM     12  C   UNL     1      -3.423  13.327  20.493  0.00  0.00    +0.000 A 
ATOM     13  C   UNL     1      -2.493  12.260  19.974  0.00  0.00    +0.000 A 
ATOM     14  C   UNL     1      -1.356  11.869  20.730  0.00  0.00    +0.000 A 
ATOM     15  C   UNL     1      -0.564  10.790  20.321  0.00  0.00    +0.000 A 
ATOM     16  C   UNL     1      -0.855  10.099  19.153  0.00  0.00    +0.000 A 
ATOM     17  C   UNL     1      -1.923  10.490  18.345  0.00  0.00    +0.000 A 
ATOM     18  C   UNL     1      -2.188   9.768  17.170  0.00  0.00    +0.000 A 
ATOM     19  C   UNL     1      -3.237  10.125  16.329  0.00  0.00    +0.000 A 
ATOM     20  C   UNL     1      -4.013  11.231  16.639  0.00  0.00    +0.000 A 
ATOM     21  C   UNL     1      -3.753  11.961  17.801  0.00  0.00    +0.000 A 
ATOM     22  C   UNL     1      -2.733  11.597  18.715  0.00  0.00    +0.000 A 
ATOM     23  S   UNL     1      -0.897  12.589  22.299  0.00  0.00    +0.000 S 
ENDROOT
BRANCH   1  24
ATOM     24  C   UNL     1      -0.561  15.151  23.160  0.00  0.00    +0.000 C 
BRANCH  24  26
ATOM     25  C   UNL     1      -2.537  15.410  24.686  0.00  0.00    +0.000 C 
ATOM     26  C   UNL     1      -1.562  14.647  24.174  0.00  0.00    +0.000 C 
ENDBRANCH  24  26
ENDBRANCH   1  24
BRANCH   1  27
ATOM     27  S   UNL     1       1.445  14.288  21.235  0.00  0.00    +0.000 S 
BRANCH  27  28
ATOM     28  C   UNL     1       2.157  15.750  21.925  0.00  0.00    +0.000 A 
ATOM     29  C   UNL     1       1.893  16.980  21.332  0.00  0.00    +0.000 A 
ATOM     30  C   UNL     1       2.435  18.129  21.901  0.00  0.00    +0.000 A 
ATOM     31  C   UNL     1       3.197  18.017  23.056  0.00  0.00    +0.000 A 
ATOM     32  C   UNL     1       3.369  16.760  23.605  0.00  0.00    +0.000 A 
ATOM     33  N   UNL     1       2.859  15.630  23.070  0.00  0.00    +0.000 NA
ENDBRANCH  27  28
ENDBRANCH   1  27
TORSDOF 4
ENDMDL
MODEL 7
REMARK VINA RESULT:      -6.8      7.860     10.829
REMARK  Name = 
REMARK  4 active torsions:
REMARK  status: ('A' for Active; 'I' for Inactive)
REMARK    1  A    between atoms: C_2  and  C_3
REMARK    2  A    between atoms: C_3  and  C_4
REMARK    3  A    between atoms: C_4  and  S_5
REMARK    4  A    between atoms: S_5  and  C_6
REMARK                            x       y       z     vdW  Elec       q    Type
REMARK                         _______ _______ _______ _____ _____    ______ ____
ROOT
ATOM      1  C   UNL     1       1.691  14.469  20.138  0.00  0.00    +0.000 C 
ATOM      2  S   UNL     1       1.110  12.997  21.147  0.00  0.00    +0.000 S 
ATOM      3  C   UNL     1       0.040  12.145  20.006  0.00  0.00    +0.000 A 
ATOM      4  C   UNL     1       0.515  10.934  19.500  0.00  0.00    +0.000 A 
ATOM      5  C   UNL     1      -0.296  10.133  18.699  0.00  0.00    +0.000 A 
ATOM      6  C   UNL     1      -1.590  10.541  18.376  0.00  0.00    +0.000 A 
ATOM      7  C   UNL     1      -2.401   9.683  17.615  0.00  0.00    +0.000 A 
ATOM      8  C   UNL     1      -3.704  10.036  17.281  0.00  0.00    +0.000 A 
ATOM      9  C   UNL     1      -4.192  11.277  17.661  0.00  0.00    +0.000 A 
ATOM     10  C   UNL     1      -3.385  12.148  18.399  0.00  0.00    +0.000 A 
ATOM     11  C   UNL     1      -2.081  11.793  18.830  0.00  0.00    +0.000 A 
ATOM     12  C   UNL     1      -1.270  12.599  19.705  0.00  0.00    +0.000 A 
ATOM     13  C   UNL     1      -1.786  13.867  20.337  0.00  0.00    +0.000 A 
ATOM     14  C   UNL     1      -1.123  15.103  20.110  0.00  0.00    +0.000 A 
ATOM     15  C   UNL     1      -1.669  16.303  20.582  0.00  0.00    +0.000 A 
ATOM     16  C   UNL     1      -2.853  16.306  21.306  0.00  0.00    +0.000 A 
ATOM     17  C   UNL     1      -3.503  15.110  21.609  0.00  0.00    +0.000 A 
ATOM     18  C   UNL     1      -4.698  15.151  22.344  0.00  0.00    +0.000 A 
ATOM     19  C   UNL     1      -5.378  13.984  22.677  0.00  0.00    +0.000 A 
ATOM     20  C   UNL     1      -4.850  12.758  22.303  0.00  0.00    +0.000 A 
ATOM     21  C   UNL     1      -3.657  12.704  21.579  0.00  0.00    +0.000 A 
ATOM     22  C   UNL     1      -2.963  13.871  21.169  0.00  0.00    +0.000 A 
ATOM     23  S   UNL     1       0.354  15.285  19.122  0.00  0.00    +0.000 S 
ENDROOT
BRANCH   1  24
ATOM     24  C   UNL     1       2.763  14.014  19.098  0.00  0.00    +0.000 C 
BRANCH  24  26
ATOM     25  C   UNL     1       4.297  15.339  17.617  0.00  0.00    +0.000 C 
ATOM     26  C   UNL     1       3.062  14.922  17.926  0.00  0.00    +0.000 C 
ENDBRANCH  24  26
ENDBRANCH   1  24
BRANCH   1  27
ATOM     27  S   UNL     1       2.314  15.632  21.476  0.00  0.00    +0.000 S 
BRANCH  27  28
ATOM     28  C   UNL     1       3.977  15.104  21.752  0.00  0.00    +0.000 A 
ATOM     29  C   UNL     1       5.018  15.789  21.136  0.00  0.00    +0.000 A 
ATOM     30  C   UNL     1       6.327  15.384  21.384  0.00  0.00    +0.000 A 
ATOM     31  C   UNL     1       6.554  14.329  22.257  0.00  0.00    +0.000 A 
ATOM     32  C   UNL     1       5.462  13.735  22.862  0.00  0.00    +0.000 A 
ATOM     33  N   UNL     1       4.184  14.106  22.634  0.00  0.00    +0.000 NA
ENDBRANCH  27  28
ENDBRANCH   1  27
TORSDOF 4
ENDMDL
MODEL 8
REMARK VINA RESULT:      -6.8      8.725     12.268
REMARK  Name = 
REMARK  4 active torsions:
REMARK  status: ('A' for Active; 'I' for Inactive)
REMARK    1  A    between atoms: C_2  and  C_3
REMARK    2  A    between atoms: C_3  and  C_4
REMARK    3  A    between atoms: C_4  and  S_5
REMARK    4  A    between atoms: S_5  and  C_6
REMARK                            x       y       z     vdW  Elec       q    Type
REMARK                         _______ _______ _______ _____ _____    ______ ____
ROOT
ATOM      1  C   UNL     1       4.342  15.837  19.574  0.00  0.00    +0.000 C 
ATOM      2  S   UNL     1       5.984  16.601  19.083  0.00  0.00    +0.000 S 
ATOM      3  C   UNL     1       7.068  15.188  19.034  0.00  0.00    +0.000 A 
ATOM      4  C   UNL     1       7.488  14.776  17.767  0.00  0.00    +0.000 A 
ATOM      5  C   UNL     1       8.432  13.760  17.630  0.00  0.00    +0.000 A 
ATOM      6  C   UNL     1       8.957  13.129  18.756  0.00  0.00    +0.000 A 
ATOM      7  C   UNL     1       9.949  12.149  18.585  0.00  0.00    +0.000 A 
ATOM      8  C   UNL     1      10.516  11.502  19.677  0.00  0.00    +0.000 A 
ATOM      9  C   UNL     1      10.058  11.791  20.953  0.00  0.00    +0.000 A 
ATOM     10  C   UNL     1       9.055  12.748  21.134  0.00  0.00    +0.000 A 
ATOM     11  C   UNL     1       8.508  13.488  20.055  0.00  0.00    +0.000 A 
ATOM     12  C   UNL     1       7.576  14.575  20.207  0.00  0.00    +0.000 A 
ATOM     13  C   UNL     1       7.171  15.101  21.561  0.00  0.00    +0.000 A 
ATOM     14  C   UNL     1       5.805  15.103  21.951  0.00  0.00    +0.000 A 
ATOM     15  C   UNL     1       5.433  15.464  23.251  0.00  0.00    +0.000 A 
ATOM     16  C   UNL     1       6.390  15.856  24.178  0.00  0.00    +0.000 A 
ATOM     17  C   UNL     1       7.736  15.931  23.820  0.00  0.00    +0.000 A 
ATOM     18  C   UNL     1       8.675  16.332  24.783  0.00  0.00    +0.000 A 
ATOM     19  C   UNL     1      10.028  16.429  24.471  0.00  0.00    +0.000 A 
ATOM     20  C   UNL     1      10.450  16.158  23.179  0.00  0.00    +0.000 A 
ATOM     21  C   UNL     1       9.523  15.767  22.210  0.00  0.00    +0.000 A 
ATOM     22  C   UNL     1       8.145  15.598  22.501  0.00  0.00    +0.000 A 
ATOM     23  S   UNL     1       4.463  14.541  20.913  0.00  0.00    +0.000 S 
ENDROOT
BRANCH   1  24
ATOM     24  C   UNL     1       3.712  15.094  18.355  0.00  0.00    +0.000 C 
BRANCH  24  26
ATOM     25  C   UNL     1       1.902  13.357  18.247  0.00  0.00    +0.000 C 
ATOM     26  C   UNL     1       3.157  13.703  18.564  0.00  0.00    +0.000 C 
ENDBRANCH  24  26
ENDBRANCH   1  24
BRANCH   1  27
ATOM     27  S   UNL     1       3.386  17.335  20.183  0.00  0.00    +0.000 S 
BRANCH  27  28
ATOM     28  C   UNL     1       1.903  17.305  19.224  0.00  0.00    +0.000 A 
ATOM     29  C   UNL     1       0.808  16.583  19.688  0.00  0.00    +0.000 A 
ATOM     30  C   UNL     1      -0.366  16.590  18.939  0.00  0.00    +0.000 A 
ATOM     31  C   UNL     1      -0.419  17.338  17.771  0.00  0.00    +0.000 A 
ATOM     32  C   UNL     1       0.701  18.065  17.410  0.00  0.00    +0.000 A 
ATOM     33  N   UNL     1       1.852  18.070  18.115  0.00  0.00    +0.000 NA
ENDBRANCH  27  28
ENDBRANCH   1  27
TORSDOF 4
ENDMDL
MODEL 9
REMARK VINA RESULT:      -6.8      6.499      9.951
REMARK  Name = 
REMARK  4 active torsions:
REMARK  status: ('A' for Active; 'I' for Inactive)
REMARK    1  A    between atoms: C_2  and  C_3
REMARK    2  A    between atoms: C_3  and  C_4
REMARK    3  A    between atoms: C_4  and  S_5
REMARK    4  A    between atoms: S_5  and  C_6
REMARK                            x       y       z     vdW  Elec       q    Type
REMARK                         _______ _______ _______ _____ _____    ______ ____
ROOT
ATOM      1  C   UNL     1       0.600  12.123  18.984  0.00  0.00    +0.000 C 
ATOM      2  S   UNL     1      -0.686  13.445  18.640  0.00  0.00    +0.000 S 
ATOM      3  C   UNL     1      -0.116  14.806  19.637  0.00  0.00    +0.000 A 
ATOM      4  C   UNL     1       0.416  15.898  18.947  0.00  0.00    +0.000 A 
ATOM      5  C   UNL     1       0.775  17.059  19.626  0.00  0.00    +0.000 A 
ATOM      6  C   UNL     1       0.624  17.142  21.010  0.00  0.00    +0.000 A 
ATOM      7  C   UNL     1       0.941  18.348  21.657  0.00  0.00    +0.000 A 
ATOM      8  C   UNL     1       0.792  18.486  23.033  0.00  0.00    +0.000 A 
ATOM      9  C   UNL     1       0.374  17.399  23.784  0.00  0.00    +0.000 A 
ATOM     10  C   UNL     1       0.078  16.187  23.154  0.00  0.00    +0.000 A 
ATOM     11  C   UNL     1       0.138  16.029  21.746  0.00  0.00    +0.000 A 
ATOM     12  C   UNL     1      -0.288  14.846  21.044  0.00  0.00    +0.000 A 
ATOM     13  C   UNL     1      -0.947  13.688  21.750  0.00  0.00    +0.000 A 
ATOM     14  C   UNL     1      -0.373  12.389  21.687  0.00  0.00    +0.000 A 
ATOM     15  C   UNL     1      -0.901  11.338  22.445  0.00  0.00    +0.000 A 
ATOM     16  C   UNL     1      -2.014  11.535  23.251  0.00  0.00    +0.000 A 
ATOM     17  C   UNL     1      -2.650  12.776  23.293  0.00  0.00    +0.000 A 
ATOM     18  C   UNL     1      -3.773  12.939  24.119  0.00  0.00    +0.000 A 
ATOM     19  C   UNL     1      -4.444  14.156  24.189  0.00  0.00    +0.000 A 
ATOM     20  C   UNL     1      -4.016  15.216  23.404  0.00  0.00    +0.000 A 
ATOM     21  C   UNL     1      -2.904  15.063  22.572  0.00  0.00    +0.000 A 
ATOM     22  C   UNL     1      -2.156  13.859  22.516  0.00  0.00    +0.000 A 
ATOM     23  S   UNL     1       1.110  11.990  20.776  0.00  0.00    +0.000 S 
ENDROOT
BRANCH   1  24
ATOM     24  C   UNL     1       1.920  12.447  18.216  0.00  0.00    +0.000 C 
BRANCH  24  26
ATOM     25  C   UNL     1       3.619  14.293  18.269  0.00  0.00    +0.000 C 
ATOM     26  C   UNL     1       2.957  13.311  18.895  0.00  0.00    +0.000 C 
ENDBRANCH  24  26
ENDBRANCH   1  24
BRANCH   1  27
ATOM     27  S   UNL     1      -0.291  10.564  18.428  0.00  0.00    +0.000 S 
BRANCH  27  28
ATOM     28  C   UNL     1       0.879   9.278  18.740  0.00  0.00    +0.000 A 
ATOM     29  C   UNL     1       1.754   8.896  17.729  0.00  0.00    +0.000 A 
ATOM     30  C   UNL     1       2.692   7.902  17.995  0.00  0.00    +0.000 A 
ATOM     31  C   UNL     1       2.744   7.342  19.264  0.00  0.00    +0.000 A 
ATOM     32  C   UNL     1       1.866   7.815  20.222  0.00  0.00    +0.000 A 
ATOM     33  N   UNL     1       0.945   8.774  19.989  0.00  0.00    +0.000 NA
ENDBRANCH  27  28
ENDBRANCH   1  27
TORSDOF 4
ENDMDL
