MODEL 1
REMARK VINA RESULT:      -6.0      0.000      0.000
REMARK  Name = 
REMARK  11 active torsions:
REMARK  status: ('A' for Active; 'I' for Inactive)
REMARK    1  A    between atoms: C_1  and  O_2
REMARK    2  A    between atoms: O_2  and  P_3
REMARK    3  A    between atoms: P_3  and  O_5
REMARK    4  A    between atoms: P_3  and  C_7
REMARK    5  A    between atoms: O_5  and  C_6
REMARK    6  A    between atoms: C_7  and  O_8
REMARK    7  A    between atoms: C_7  and  C_20
REMARK    8  A    between atoms: O_8  and  C_9
REMARK    9  A    between atoms: C_9  and  C_11
REMARK   10  A    between atoms: C_11  and  O_12
REMARK   11  A    between atoms: O_12  and  C_13
REMARK                            x       y       z     vdW  Elec       q    Type
REMARK                         _______ _______ _______ _____ _____    ______ ____
ROOT
ATOM      1  O   UNL     1       3.005   6.376  18.345  0.00  0.00    +0.000 OA
ENDROOT
BRANCH   1   2
ATOM      2  C   UNL     1       2.374   7.439  18.925  0.00  0.00    +0.000 C 
ATOM      3  O   UNL     1       2.176   7.564  20.124  0.00  0.00    +0.000 OA
BRANCH   2   4
ATOM      4  C   UNL     1       1.978   8.448  17.867  0.00  0.00    +0.000 C 
BRANCH   4   5
ATOM      5  O   UNL     1       1.875   9.678  18.565  0.00  0.00    +0.000 OA
BRANCH   5   6
ATOM      6  C   UNL     1       0.641  10.221  18.713  0.00  0.00    +0.000 A 
ATOM      7  C   UNL     1      -0.478   9.997  17.914  0.00  0.00    +0.000 A 
ATOM      8  C   UNL     1      -1.685  10.641  18.218  0.00  0.00    +0.000 A 
ATOM      9  C   UNL     1      -1.761  11.506  19.310  0.00  0.00    +0.000 A 
ATOM     10 CL   UNL     1      -3.245  12.293  19.678  0.00  0.00    +0.000 Cl
ATOM     11  C   UNL     1      -0.646  11.733  20.109  0.00  0.00    +0.000 A 
ATOM     12  C   UNL     1       0.550  11.096  19.802  0.00  0.00    +0.000 A 
ENDBRANCH   5   6
ENDBRANCH   4   5
ENDBRANCH   2   4
ENDBRANCH   1   2
BRANCH   1  13
ATOM     13  C   UNL     1       3.377   5.267  19.229  0.00  0.00    +0.000 C 
BRANCH  13  14
ATOM     14  C   UNL     1       2.304   4.164  19.180  0.00  0.00    +0.000 C 
ATOM     15 CL   UNL     1       1.072   4.264  20.486  0.00  0.00    +0.000 Cl
ATOM     16 CL   UNL     1       1.419   4.218  17.606  0.00  0.00    +0.000 Cl
ATOM     17 CL   UNL     1       3.007   2.493  19.299  0.00  0.00    +0.000 Cl
ENDBRANCH  13  14
BRANCH  13  18
ATOM     18  P   UNL     1       5.033   4.661  18.737  0.00  0.00    +0.000 P 
ATOM     19  O   UNL     1       5.672   5.746  19.609  0.00  0.00    +0.000 OA
BRANCH  18  21
ATOM     20  C   UNL     1       7.613   5.071  18.369  0.00  0.00    +0.000 C 
ATOM     21  O   UNL     1       6.597   4.087  18.274  0.00  0.00    +0.000 OA
ENDBRANCH  18  21
BRANCH  18  22
ATOM     22  O   UNL     1       4.900   5.191  17.174  0.00  0.00    +0.000 OA
ATOM     23  C   UNL     1       4.891   4.223  16.137  0.00  0.00    +0.000 C 
ENDBRANCH  18  22
ENDBRANCH  13  18
ENDBRANCH   1  13
TORSDOF 9
ENDMDL
MODEL 2
REMARK VINA RESULT:      -6.0      1.780      2.296
REMARK  Name = 
REMARK  11 active torsions:
REMARK  status: ('A' for Active; 'I' for Inactive)
REMARK    1  A    between atoms: C_1  and  O_2
REMARK    2  A    between atoms: O_2  and  P_3
REMARK    3  A    between atoms: P_3  and  O_5
REMARK    4  A    between atoms: P_3  and  C_7
REMARK    5  A    between atoms: O_5  and  C_6
REMARK    6  A    between atoms: C_7  and  O_8
REMARK    7  A    between atoms: C_7  and  C_20
REMARK    8  A    between atoms: O_8  and  C_9
REMARK    9  A    between atoms: C_9  and  C_11
REMARK   10  A    between atoms: C_11  and  O_12
REMARK   11  A    between atoms: O_12  and  C_13
REMARK                            x       y       z     vdW  Elec       q    Type
REMARK                         _______ _______ _______ _____ _____    ______ ____
ROOT
ATOM      1  O   UNL     1       2.793   5.666  19.066  0.00  0.00    +0.000 OA
ENDROOT
BRANCH   1   2
ATOM      2  C   UNL     1       2.204   6.052  20.236  0.00  0.00    +0.000 C 
ATOM      3  O   UNL     1       1.987   5.313  21.186  0.00  0.00    +0.000 OA
BRANCH   2   4
ATOM      4  C   UNL     1       1.878   7.530  20.191  0.00  0.00    +0.000 C 
BRANCH   4   5
ATOM      5  O   UNL     1       1.336   7.817  21.469  0.00  0.00    +0.000 OA
BRANCH   5   6
ATOM      6  C   UNL     1       0.585   8.940  21.601  0.00  0.00    +0.000 A 
ATOM      7  C   UNL     1       0.033   9.449  22.773  0.00  0.00    +0.000 A 
ATOM      8  C   UNL     1      -0.716  10.634  22.726  0.00  0.00    +0.000 A 
ATOM      9  C   UNL     1      -0.911  11.292  21.511  0.00  0.00    +0.000 A 
ATOM     10 CL   UNL     1      -1.830  12.744  21.461  0.00  0.00    +0.000 Cl
ATOM     11  C   UNL     1      -0.362  10.784  20.339  0.00  0.00    +0.000 A 
ATOM     12  C   UNL     1       0.377   9.608  20.388  0.00  0.00    +0.000 A 
ENDBRANCH   5   6
ENDBRANCH   4   5
ENDBRANCH   2   4
ENDBRANCH   1   2
BRANCH   1  13
ATOM     13  C   UNL     1       3.512   4.388  19.080  0.00  0.00    +0.000 C 
BRANCH  13  14
ATOM     14  C   UNL     1       2.591   3.254  18.597  0.00  0.00    +0.000 C 
ATOM     15 CL   UNL     1       1.727   2.385  19.913  0.00  0.00    +0.000 Cl
ATOM     16 CL   UNL     1       1.335   3.900  17.471  0.00  0.00    +0.000 Cl
ATOM     17 CL   UNL     1       3.481   1.971  17.668  0.00  0.00    +0.000 Cl
ENDBRANCH  13  14
BRANCH  13  18
ATOM     18  P   UNL     1       5.018   4.557  18.053  0.00  0.00    +0.000 P 
ATOM     19  O   UNL     1       5.876   4.351  19.305  0.00  0.00    +0.000 OA
BRANCH  18  21
ATOM     20  C   UNL     1       7.646   4.627  17.824  0.00  0.00    +0.000 C 
ATOM     21  O   UNL     1       6.441   4.715  17.083  0.00  0.00    +0.000 OA
ENDBRANCH  18  21
BRANCH  18  22
ATOM     22  O   UNL     1       4.798   6.175  17.774  0.00  0.00    +0.000 OA
ATOM     23  C   UNL     1       4.901   6.644  16.440  0.00  0.00    +0.000 C 
ENDBRANCH  18  22
ENDBRANCH  13  18
ENDBRANCH   1  13
TORSDOF 9
ENDMDL
MODEL 3
REMARK VINA RESULT:      -6.0      0.146      1.069
REMARK  Name = 
REMARK  11 active torsions:
REMARK  status: ('A' for Active; 'I' for Inactive)
REMARK    1  A    between atoms: C_1  and  O_2
REMARK    2  A    between atoms: O_2  and  P_3
REMARK    3  A    between atoms: P_3  and  O_5
REMARK    4  A    between atoms: P_3  and  C_7
REMARK    5  A    between atoms: O_5  and  C_6
REMARK    6  A    between atoms: C_7  and  O_8
REMARK    7  A    between atoms: C_7  and  C_20
REMARK    8  A    between atoms: O_8  and  C_9
REMARK    9  A    between atoms: C_9  and  C_11
REMARK   10  A    between atoms: C_11  and  O_12
REMARK   11  A    between atoms: O_12  and  C_13
REMARK                            x       y       z     vdW  Elec       q    Type
REMARK                         _______ _______ _______ _____ _____    ______ ____
ROOT
ATOM      1  O   UNL     1       2.903   6.224  18.364  0.00  0.00    +0.000 OA
ENDROOT
BRANCH   1   2
ATOM      2  C   UNL     1       2.381   7.343  18.946  0.00  0.00    +0.000 C 
ATOM      3  O   UNL     1       2.235   7.501  20.150  0.00  0.00    +0.000 OA
BRANCH   2   4
ATOM      4  C   UNL     1       2.029   8.364  17.885  0.00  0.00    +0.000 C 
BRANCH   4   5
ATOM      5  O   UNL     1       1.908   9.588  18.591  0.00  0.00    +0.000 OA
BRANCH   5   6
ATOM      6  C   UNL     1       0.672  10.138  18.697  0.00  0.00    +0.000 A 
ATOM      7  C   UNL     1      -0.422   9.915  17.865  0.00  0.00    +0.000 A 
ATOM      8  C   UNL     1      -1.635  10.567  18.127  0.00  0.00    +0.000 A 
ATOM      9  C   UNL     1      -1.741  11.439  19.212  0.00  0.00    +0.000 A 
ATOM     10 CL   UNL     1      -3.231  12.235  19.528  0.00  0.00    +0.000 Cl
ATOM     11  C   UNL     1      -0.650  11.664  20.043  0.00  0.00    +0.000 A 
ATOM     12  C   UNL     1       0.552  11.019  19.778  0.00  0.00    +0.000 A 
ENDBRANCH   5   6
ENDBRANCH   4   5
ENDBRANCH   2   4
ENDBRANCH   1   2
BRANCH   1  13
ATOM     13  C   UNL     1       3.359   5.162  19.267  0.00  0.00    +0.000 C 
BRANCH  13  14
ATOM     14  C   UNL     1       2.364   3.988  19.254  0.00  0.00    +0.000 C 
ATOM     15 CL   UNL     1       3.129   2.362  19.317  0.00  0.00    +0.000 Cl
ATOM     16 CL   UNL     1       1.238   4.102  20.662  0.00  0.00    +0.000 Cl
ATOM     17 CL   UNL     1       1.311   3.974  17.773  0.00  0.00    +0.000 Cl
ENDBRANCH  13  14
BRANCH  13  18
ATOM     18  P   UNL     1       5.047   4.659  18.768  0.00  0.00    +0.000 P 
ATOM     19  O   UNL     1       5.621   5.793  19.623  0.00  0.00    +0.000 OA
BRANCH  18  21
ATOM     20  C   UNL     1       7.618   5.191  18.501  0.00  0.00    +0.000 C 
ATOM     21  O   UNL     1       6.642   4.184  18.297  0.00  0.00    +0.000 OA
ENDBRANCH  18  21
BRANCH  18  22
ATOM     22  O   UNL     1       4.869   5.163  17.200  0.00  0.00    +0.000 OA
ATOM     23  C   UNL     1       4.931   4.189  16.172  0.00  0.00    +0.000 C 
ENDBRANCH  18  22
ENDBRANCH  13  18
ENDBRANCH   1  13
TORSDOF 9
ENDMDL
MODEL 4
REMARK VINA RESULT:      -6.0      1.634      2.090
REMARK  Name = 
REMARK  11 active torsions:
REMARK  status: ('A' for Active; 'I' for Inactive)
REMARK    1  A    between atoms: C_1  and  O_2
REMARK    2  A    between atoms: O_2  and  P_3
REMARK    3  A    between atoms: P_3  and  O_5
REMARK    4  A    between atoms: P_3  and  C_7
REMARK    5  A    between atoms: O_5  and  C_6
REMARK    6  A    between atoms: C_7  and  O_8
REMARK    7  A    between atoms: C_7  and  C_20
REMARK    8  A    between atoms: O_8  and  C_9
REMARK    9  A    between atoms: C_9  and  C_11
REMARK   10  A    between atoms: C_11  and  O_12
REMARK   11  A    between atoms: O_12  and  C_13
REMARK                            x       y       z     vdW  Elec       q    Type
REMARK                         _______ _______ _______ _____ _____    ______ ____
ROOT
ATOM      1  O   UNL     1       2.789   5.758  18.188  0.00  0.00    +0.000 OA
ENDROOT
BRANCH   1   2
ATOM      2  C   UNL     1       2.654   7.102  18.388  0.00  0.00    +0.000 C 
ATOM      3  O   UNL     1       2.931   7.962  17.564  0.00  0.00    +0.000 OA
BRANCH   2   4
ATOM      4  C   UNL     1       2.093   7.368  19.769  0.00  0.00    +0.000 C 
BRANCH   4   5
ATOM      5  O   UNL     1       1.964   8.778  19.839  0.00  0.00    +0.000 OA
BRANCH   5   6
ATOM      6  C   UNL     1       1.103   9.291  20.753  0.00  0.00    +0.000 A 
ATOM      7  C   UNL     1       0.993   8.937  22.096  0.00  0.00    +0.000 A 
ATOM      8  C   UNL     1       0.045   9.579  22.905  0.00  0.00    +0.000 A 
ATOM      9  C   UNL     1      -0.786  10.561  22.364  0.00  0.00    +0.000 A 
ATOM     10 CL   UNL     1      -1.946  11.345  23.362  0.00  0.00    +0.000 Cl
ATOM     11  C   UNL     1      -0.679  10.916  21.024  0.00  0.00    +0.000 A 
ATOM     12  C   UNL     1       0.259  10.275  20.224  0.00  0.00    +0.000 A 
ENDBRANCH   5   6
ENDBRANCH   4   5
ENDBRANCH   2   4
ENDBRANCH   1   2
BRANCH   1  13
ATOM     13  C   UNL     1       3.360   4.981  19.294  0.00  0.00    +0.000 C 
BRANCH  13  14
ATOM     14  C   UNL     1       2.499   3.734  19.567  0.00  0.00    +0.000 C 
ATOM     15 CL   UNL     1       1.622   3.763  21.136  0.00  0.00    +0.000 Cl
ATOM     16 CL   UNL     1       1.261   3.527  18.268  0.00  0.00    +0.000 Cl
ATOM     17 CL   UNL     1       3.470   2.198  19.579  0.00  0.00    +0.000 Cl
ENDBRANCH  13  14
BRANCH  13  18
ATOM     18  P   UNL     1       5.092   4.563  18.878  0.00  0.00    +0.000 P 
ATOM     19  O   UNL     1       5.562   5.779  19.683  0.00  0.00    +0.000 OA
BRANCH  18  21
ATOM     20  C   UNL     1       7.577   5.299  18.380  0.00  0.00    +0.000 C 
ATOM     21  O   UNL     1       6.730   4.167  18.487  0.00  0.00    +0.000 OA
ENDBRANCH  18  21
BRANCH  18  22
ATOM     22  O   UNL     1       4.937   4.964  17.279  0.00  0.00    +0.000 OA
ATOM     23  C   UNL     1       4.891   3.915  16.326  0.00  0.00    +0.000 C 
ENDBRANCH  18  22
ENDBRANCH  13  18
ENDBRANCH   1  13
TORSDOF 9
ENDMDL
MODEL 5
REMARK VINA RESULT:      -5.9      1.607      2.417
REMARK  Name = 
REMARK  11 active torsions:
REMARK  status: ('A' for Active; 'I' for Inactive)
REMARK    1  A    between atoms: C_1  and  O_2
REMARK    2  A    between atoms: O_2  and  P_3
REMARK    3  A    between atoms: P_3  and  O_5
REMARK    4  A    between atoms: P_3  and  C_7
REMARK    5  A    between atoms: O_5  and  C_6
REMARK    6  A    between atoms: C_7  and  O_8
REMARK    7  A    between atoms: C_7  and  C_20
REMARK    8  A    between atoms: O_8  and  C_9
REMARK    9  A    between atoms: C_9  and  C_11
REMARK   10  A    between atoms: C_11  and  O_12
REMARK   11  A    between atoms: O_12  and  C_13
REMARK                            x       y       z     vdW  Elec       q    Type
REMARK                         _______ _______ _______ _____ _____    ______ ____
ROOT
ATOM      1  O   UNL     1       2.858   5.569  19.187  0.00  0.00    +0.000 OA
ENDROOT
BRANCH   1   2
ATOM      2  C   UNL     1       2.105   6.020  20.233  0.00  0.00    +0.000 C 
ATOM      3  O   UNL     1       1.631   5.311  21.109  0.00  0.00    +0.000 OA
BRANCH   2   4
ATOM      4  C   UNL     1       1.963   7.526  20.160  0.00  0.00    +0.000 C 
BRANCH   4   5
ATOM      5  O   UNL     1       1.505   7.906  21.447  0.00  0.00    +0.000 OA
BRANCH   5   6
ATOM      6  C   UNL     1       0.701   8.995  21.536  0.00  0.00    +0.000 A 
ATOM      7  C   UNL     1       0.173   9.558  22.696  0.00  0.00    +0.000 A 
ATOM      8  C   UNL     1      -0.639  10.697  22.603  0.00  0.00    +0.000 A 
ATOM      9  C   UNL     1      -0.921  11.256  21.356  0.00  0.00    +0.000 A 
ATOM     10 CL   UNL     1      -1.918  12.653  21.251  0.00  0.00    +0.000 Cl
ATOM     11  C   UNL     1      -0.396  10.696  20.198  0.00  0.00    +0.000 A 
ATOM     12  C   UNL     1       0.406   9.565  20.292  0.00  0.00    +0.000 A 
ENDBRANCH   5   6
ENDBRANCH   4   5
ENDBRANCH   2   4
ENDBRANCH   1   2
BRANCH   1  13
ATOM     13  C   UNL     1       3.501   4.262  19.353  0.00  0.00    +0.000 C 
BRANCH  13  14
ATOM     14  C   UNL     1       2.669   3.167  18.660  0.00  0.00    +0.000 C 
ATOM     15 CL   UNL     1       3.642   1.895  17.845  0.00  0.00    +0.000 Cl
ATOM     16 CL   UNL     1       1.601   2.337  19.858  0.00  0.00    +0.000 Cl
ATOM     17 CL   UNL     1       1.562   3.830  17.380  0.00  0.00    +0.000 Cl
ENDBRANCH  13  14
BRANCH  13  18
ATOM     18  P   UNL     1       5.208   4.366  18.699  0.00  0.00    +0.000 P 
ATOM     19  O   UNL     1       5.539   5.407  19.774  0.00  0.00    +0.000 OA
BRANCH  18  21
ATOM     20  C   UNL     1       7.599   5.483  18.689  0.00  0.00    +0.000 C 
ATOM     21  O   UNL     1       6.821   4.465  18.083  0.00  0.00    +0.000 OA
ENDBRANCH  18  21
BRANCH  18  22
ATOM     22  O   UNL     1       4.758   5.121  17.296  0.00  0.00    +0.000 OA
ATOM     23  C   UNL     1       5.163   4.544  16.065  0.00  0.00    +0.000 C 
ENDBRANCH  18  22
ENDBRANCH  13  18
ENDBRANCH   1  13
TORSDOF 9
ENDMDL
MODEL 6
REMARK VINA RESULT:      -5.9      0.527      1.488
REMARK  Name = 
REMARK  11 active torsions:
REMARK  status: ('A' for Active; 'I' for Inactive)
REMARK    1  A    between atoms: C_1  and  O_2
REMARK    2  A    between atoms: O_2  and  P_3
REMARK    3  A    between atoms: P_3  and  O_5
REMARK    4  A    between atoms: P_3  and  C_7
REMARK    5  A    between atoms: O_5  and  C_6
REMARK    6  A    between atoms: C_7  and  O_8
REMARK    7  A    between atoms: C_7  and  C_20
REMARK    8  A    between atoms: O_8  and  C_9
REMARK    9  A    between atoms: C_9  and  C_11
REMARK   10  A    between atoms: C_11  and  O_12
REMARK   11  A    between atoms: O_12  and  C_13
REMARK                            x       y       z     vdW  Elec       q    Type
REMARK                         _______ _______ _______ _____ _____    ______ ____
ROOT
ATOM      1  O   UNL     1       2.805   5.944  18.452  0.00  0.00    +0.000 OA
ENDROOT
BRANCH   1   2
ATOM      2  C   UNL     1       2.363   7.092  19.044  0.00  0.00    +0.000 C 
ATOM      3  O   UNL     1       2.214   7.245  20.248  0.00  0.00    +0.000 OA
BRANCH   2   4
ATOM      4  C   UNL     1       2.105   8.152  17.993  0.00  0.00    +0.000 C 
BRANCH   4   5
ATOM      5  O   UNL     1       2.036   9.368  18.720  0.00  0.00    +0.000 OA
BRANCH   5   6
ATOM      6  C   UNL     1       0.823   9.960  18.848  0.00  0.00    +0.000 A 
ATOM      7  C   UNL     1       0.390  10.775  19.892  0.00  0.00    +0.000 A 
ATOM      8  C   UNL     1      -0.904  11.313  19.858  0.00  0.00    +0.000 A 
ATOM      9  C   UNL     1      -1.753  11.027  18.789  0.00  0.00    +0.000 A 
ATOM     10 CL   UNL     1      -3.339  11.691  18.754  0.00  0.00    +0.000 Cl
ATOM     11  C   UNL     1      -1.325  10.214  17.746  0.00  0.00    +0.000 A 
ATOM     12  C   UNL     1      -0.043   9.679  17.784  0.00  0.00    +0.000 A 
ENDBRANCH   5   6
ENDBRANCH   4   5
ENDBRANCH   2   4
ENDBRANCH   1   2
BRANCH   1  13
ATOM     13  C   UNL     1       3.403   4.936  19.333  0.00  0.00    +0.000 C 
BRANCH  13  14
ATOM     14  C   UNL     1       2.521   3.674  19.374  0.00  0.00    +0.000 C 
ATOM     15 CL   UNL     1       1.331   3.554  18.032  0.00  0.00    +0.000 Cl
ATOM     16 CL   UNL     1       3.546   2.188  19.313  0.00  0.00    +0.000 Cl
ATOM     17 CL   UNL     1       1.548   3.546  20.903  0.00  0.00    +0.000 Cl
ENDBRANCH  13  14
BRANCH  13  18
ATOM     18  P   UNL     1       5.102   4.587  18.750  0.00  0.00    +0.000 P 
ATOM     19  O   UNL     1       5.625   5.713  19.648  0.00  0.00    +0.000 OA
BRANCH  18  21
ATOM     20  C   UNL     1       7.623   5.310  18.455  0.00  0.00    +0.000 C 
ATOM     21  O   UNL     1       6.709   4.258  18.199  0.00  0.00    +0.000 OA
ENDBRANCH  18  21
BRANCH  18  22
ATOM     22  O   UNL     1       4.829   5.160  17.220  0.00  0.00    +0.000 OA
ATOM     23  C   UNL     1       4.917   4.248  16.137  0.00  0.00    +0.000 C 
ENDBRANCH  18  22
ENDBRANCH  13  18
ENDBRANCH   1  13
TORSDOF 9
ENDMDL
MODEL 7
REMARK VINA RESULT:      -5.9      1.257      1.689
REMARK  Name = 
REMARK  11 active torsions:
REMARK  status: ('A' for Active; 'I' for Inactive)
REMARK    1  A    between atoms: C_1  and  O_2
REMARK    2  A    between atoms: O_2  and  P_3
REMARK    3  A    between atoms: P_3  and  O_5
REMARK    4  A    between atoms: P_3  and  C_7
REMARK    5  A    between atoms: O_5  and  C_6
REMARK    6  A    between atoms: C_7  and  O_8
REMARK    7  A    between atoms: C_7  and  C_20
REMARK    8  A    between atoms: O_8  and  C_9
REMARK    9  A    between atoms: C_9  and  C_11
REMARK   10  A    between atoms: C_11  and  O_12
REMARK   11  A    between atoms: O_12  and  C_13
REMARK                            x       y       z     vdW  Elec       q    Type
REMARK                         _______ _______ _______ _____ _____    ______ ____
ROOT
ATOM      1  O   UNL     1       2.594   5.213  18.959  0.00  0.00    +0.000 OA
ENDROOT
BRANCH   1   2
ATOM      2  C   UNL     1       2.105   6.241  19.713  0.00  0.00    +0.000 C 
ATOM      3  O   UNL     1       1.611   6.118  20.825  0.00  0.00    +0.000 OA
BRANCH   2   4
ATOM      4  C   UNL     1       2.285   7.554  18.981  0.00  0.00    +0.000 C 
BRANCH   4   5
ATOM      5  O   UNL     1       1.979   8.548  19.945  0.00  0.00    +0.000 OA
BRANCH   5   6
ATOM      6  C   UNL     1       0.945   9.386  19.684  0.00  0.00    +0.000 A 
ATOM      7  C   UNL     1       0.454   9.752  18.434  0.00  0.00    +0.000 A 
ATOM      8  C   UNL     1      -0.635  10.630  18.348  0.00  0.00    +0.000 A 
ATOM      9  C   UNL     1      -1.218  11.138  19.510  0.00  0.00    +0.000 A 
ATOM     10 CL   UNL     1      -2.554  12.214  19.398  0.00  0.00    +0.000 Cl
ATOM     11  C   UNL     1      -0.730  10.775  20.760  0.00  0.00    +0.000 A 
ATOM     12  C   UNL     1       0.353   9.907  20.841  0.00  0.00    +0.000 A 
ENDBRANCH   5   6
ENDBRANCH   4   5
ENDBRANCH   2   4
ENDBRANCH   1   2
BRANCH   1  13
ATOM     13  C   UNL     1       3.689   4.430  19.542  0.00  0.00    +0.000 C 
BRANCH  13  14
ATOM     14  C   UNL     1       3.196   3.016  19.903  0.00  0.00    +0.000 C 
ATOM     15 CL   UNL     1       1.954   2.352  18.787  0.00  0.00    +0.000 Cl
ATOM     16 CL   UNL     1       4.579   1.853  19.916  0.00  0.00    +0.000 Cl
ATOM     17 CL   UNL     1       2.458   2.931  21.562  0.00  0.00    +0.000 Cl
ENDBRANCH  13  14
BRANCH  13  18
ATOM     18  P   UNL     1       5.084   4.407  18.357  0.00  0.00    +0.000 P 
ATOM     19  O   UNL     1       5.814   5.439  19.223  0.00  0.00    +0.000 OA
BRANCH  18  21
ATOM     20  C   UNL     1       7.665   4.598  17.847  0.00  0.00    +0.000 C 
ATOM     21  O   UNL     1       6.403   4.386  17.239  0.00  0.00    +0.000 OA
ENDBRANCH  18  21
BRANCH  18  22
ATOM     22  O   UNL     1       4.238   5.169  17.154  0.00  0.00    +0.000 OA
ATOM     23  C   UNL     1       4.842   6.279  16.510  0.00  0.00    +0.000 C 
ENDBRANCH  18  22
ENDBRANCH  13  18
ENDBRANCH   1  13
TORSDOF 9
ENDMDL
MODEL 8
REMARK VINA RESULT:      -5.9      2.678      3.866
REMARK  Name = 
REMARK  11 active torsions:
REMARK  status: ('A' for Active; 'I' for Inactive)
REMARK    1  A    between atoms: C_1  and  O_2
REMARK    2  A    between atoms: O_2  and  P_3
REMARK    3  A    between atoms: P_3  and  O_5
REMARK    4  A    between atoms: P_3  and  C_7
REMARK    5  A    between atoms: O_5  and  C_6
REMARK    6  A    between atoms: C_7  and  O_8
REMARK    7  A    between atoms: C_7  and  C_20
REMARK    8  A    between atoms: O_8  and  C_9
REMARK    9  A    between atoms: C_9  and  C_11
REMARK   10  A    between atoms: C_11  and  O_12
REMARK   11  A    between atoms: O_12  and  C_13
REMARK                            x       y       z     vdW  Elec       q    Type
REMARK                         _______ _______ _______ _____ _____    ______ ____
ROOT
ATOM      1  O   UNL     1       3.005   6.468  19.305  0.00  0.00    +0.000 OA
ENDROOT
BRANCH   1   2
ATOM      2  C   UNL     1       2.313   7.620  19.064  0.00  0.00    +0.000 C 
ATOM      3  O   UNL     1       2.200   8.152  17.969  0.00  0.00    +0.000 OA
BRANCH   2   4
ATOM      4  C   UNL     1       1.692   8.131  20.348  0.00  0.00    +0.000 C 
BRANCH   4   5
ATOM      5  O   UNL     1       1.011   9.315  19.970  0.00  0.00    +0.000 OA
BRANCH   5   6
ATOM      6  C   UNL     1       0.224   9.916  20.898  0.00  0.00    +0.000 A 
ATOM      7  C   UNL     1       0.027   9.519  22.218  0.00  0.00    +0.000 A 
ATOM      8  C   UNL     1      -0.822  10.267  23.046  0.00  0.00    +0.000 A 
ATOM      9  C   UNL     1      -1.469  11.397  22.547  0.00  0.00    +0.000 A 
ATOM     10 CL   UNL     1      -2.509  12.310  23.568  0.00  0.00    +0.000 Cl
ATOM     11  C   UNL     1      -1.275  11.796  21.229  0.00  0.00    +0.000 A 
ATOM     12  C   UNL     1      -0.436  11.050  20.410  0.00  0.00    +0.000 A 
ENDBRANCH   5   6
ENDBRANCH   4   5
ENDBRANCH   2   4
ENDBRANCH   1   2
BRANCH   1  13
ATOM     13  C   UNL     1       3.089   5.507  18.201  0.00  0.00    +0.000 C 
BRANCH  13  14
ATOM     14  C   UNL     1       4.541   5.396  17.701  0.00  0.00    +0.000 C 
ATOM     15 CL   UNL     1       5.782   5.441  19.001  0.00  0.00    +0.000 Cl
ATOM     16 CL   UNL     1       4.777   3.853  16.792  0.00  0.00    +0.000 Cl
ATOM     17 CL   UNL     1       4.992   6.728  16.550  0.00  0.00    +0.000 Cl
ENDBRANCH  13  14
BRANCH  13  18
ATOM     18  P   UNL     1       2.418   3.903  18.773  0.00  0.00    +0.000 P 
ATOM     19  O   UNL     1       1.332   3.991  17.696  0.00  0.00    +0.000 OA
BRANCH  18  21
ATOM     20  C   UNL     1       0.512   2.077  18.769  0.00  0.00    +0.000 C 
ATOM     21  O   UNL     1       1.784   2.386  19.312  0.00  0.00    +0.000 OA
ENDBRANCH  18  21
BRANCH  18  22
ATOM     22  O   UNL     1       1.850   4.509  20.206  0.00  0.00    +0.000 OA
ATOM     23  C   UNL     1       2.180   3.822  21.402  0.00  0.00    +0.000 C 
ENDBRANCH  18  22
ENDBRANCH  13  18
ENDBRANCH   1  13
TORSDOF 9
ENDMDL
MODEL 9
REMARK VINA RESULT:      -5.8      1.768      2.386
REMARK  Name = 
REMARK  11 active torsions:
REMARK  status: ('A' for Active; 'I' for Inactive)
REMARK    1  A    between atoms: C_1  and  O_2
REMARK    2  A    between atoms: O_2  and  P_3
REMARK    3  A    between atoms: P_3  and  O_5
REMARK    4  A    between atoms: P_3  and  C_7
REMARK    5  A    between atoms: O_5  and  C_6
REMARK    6  A    between atoms: C_7  and  O_8
REMARK    7  A    between atoms: C_7  and  C_20
REMARK    8  A    between atoms: O_8  and  C_9
REMARK    9  A    between atoms: C_9  and  C_11
REMARK   10  A    between atoms: C_11  and  O_12
REMARK   11  A    between atoms: O_12  and  C_13
REMARK                            x       y       z     vdW  Elec       q    Type
REMARK                         _______ _______ _______ _____ _____    ______ ____
ROOT
ATOM      1  O   UNL     1       2.873   5.847  19.081  0.00  0.00    +0.000 OA
ENDROOT
BRANCH   1   2
ATOM      2  C   UNL     1       2.201   6.193  20.218  0.00  0.00    +0.000 C 
ATOM      3  O   UNL     1       1.990   5.444  21.161  0.00  0.00    +0.000 OA
BRANCH   2   4
ATOM      4  C   UNL     1       1.775   7.645  20.147  0.00  0.00    +0.000 C 
BRANCH   4   5
ATOM      5  O   UNL     1       1.466   7.994  21.487  0.00  0.00    +0.000 OA
BRANCH   5   6
ATOM      6  C   UNL     1       0.648   9.056  21.692  0.00  0.00    +0.000 A 
ATOM      7  C   UNL     1       0.049   9.438  22.889  0.00  0.00    +0.000 A 
ATOM      8  C   UNL     1      -0.768  10.577  22.922  0.00  0.00    +0.000 A 
ATOM      9  C   UNL     1      -0.983  11.318  21.759  0.00  0.00    +0.000 A 
ATOM     10 CL   UNL     1      -1.985  12.714  21.806  0.00  0.00    +0.000 Cl
ATOM     11  C   UNL     1      -0.386  10.939  20.561  0.00  0.00    +0.000 A 
ATOM     12  C   UNL     1       0.420   9.807  20.532  0.00  0.00    +0.000 A 
ENDBRANCH   5   6
ENDBRANCH   4   5
ENDBRANCH   2   4
ENDBRANCH   1   2
BRANCH   1  13
ATOM     13  C   UNL     1       3.504   4.523  19.065  0.00  0.00    +0.000 C 
BRANCH  13  14
ATOM     14  C   UNL     1       2.509   3.466  18.551  0.00  0.00    +0.000 C 
ATOM     15 CL   UNL     1       1.190   4.124  17.522  0.00  0.00    +0.000 Cl
ATOM     16 CL   UNL     1       3.371   2.214  17.576  0.00  0.00    +0.000 Cl
ATOM     17 CL   UNL     1       1.678   2.568  19.894  0.00  0.00    +0.000 Cl
ENDBRANCH  13  14
BRANCH  13  18
ATOM     18  P   UNL     1       5.023   4.613  18.048  0.00  0.00    +0.000 P 
ATOM     19  O   UNL     1       5.689   5.450  19.145  0.00  0.00    +0.000 OA
BRANCH  18  21
ATOM     20  C   UNL     1       7.653   4.661  17.849  0.00  0.00    +0.000 C 
ATOM     21  O   UNL     1       6.459   4.698  17.087  0.00  0.00    +0.000 OA
ENDBRANCH  18  21
BRANCH  18  22
ATOM     22  O   UNL     1       4.349   5.606  16.906  0.00  0.00    +0.000 OA
ATOM     23  C   UNL     1       5.194   6.524  16.233  0.00  0.00    +0.000 C 
ENDBRANCH  18  22
ENDBRANCH  13  18
ENDBRANCH   1  13
TORSDOF 9
ENDMDL
