MODEL 1
REMARK VINA RESULT:      -8.4      0.000      0.000
REMARK  Name = 
REMARK  11 active torsions:
REMARK  status: ('A' for Active; 'I' for Inactive)
REMARK    1  A    between atoms: C_1  and  C_2
REMARK    2  A    between atoms: N_5  and  C_6
REMARK    3  A    between atoms: C_7  and  C_8
REMARK    4  A    between atoms: C_8  and  N_9
REMARK    5  A    between atoms: N_9  and  C_10
REMARK    6  A    between atoms: C_12  and  O_13
REMARK    7  A    between atoms: O_13  and  C_14
REMARK    8  A    between atoms: C_14  and  C_15
REMARK    9  A    between atoms: C_17  and  C_18
REMARK   10  A    between atoms: N_21  and  C_22
REMARK   11  A    between atoms: N_25  and  C_26
REMARK                            x       y       z     vdW  Elec       q    Type
REMARK                         _______ _______ _______ _____ _____    ______ ____
ROOT
ATOM      1  C   UNL     1       6.327   4.679  18.153  0.00  0.00    +0.000 A 
ATOM      2  C   UNL     1       6.941   5.784  18.590  0.00  0.00    +0.000 A 
ATOM      3  C   UNL     1       7.533   6.670  17.592  0.00  0.00    +0.000 A 
ATOM      4  N   UNL     1       7.548   6.509  16.315  0.00  0.00    +0.000 NA
ATOM      5  N   UNL     1       6.944   5.366  15.847  0.00  0.00    +0.000 N 
ATOM      6  C   UNL     1       6.922   5.173  14.409  0.00  0.00    +0.000 C 
ATOM      7  C   UNL     1       6.318   4.416  16.656  0.00  0.00    +0.000 A 
ATOM      8  O   UNL     1       5.772   3.417  16.191  0.00  0.00    +0.000 OA
ENDROOT
BRANCH   1   9
ATOM      9  N   UNL     1       5.641   3.791  18.992  0.00  0.00    +0.000 N 
ATOM     10  H   UNL     1       5.465   2.904  18.528  0.00  0.00    +0.000 HD
BRANCH   9  11
ATOM     11  C   UNL     1       4.424   4.206  19.686  0.00  0.00    +0.000 C 
BRANCH  11  18
ATOM     12  C   UNL     1       2.749   6.705  18.295  0.00  0.00    +0.000 C 
ATOM     13  C   UNL     1       2.503   5.247  18.226  0.00  0.00    +0.000 A 
ATOM     14  C   UNL     1       1.449   4.603  17.541  0.00  0.00    +0.000 A 
ATOM     15  N   UNL     1       1.463   3.282  17.698  0.00  0.00    +0.000 NA
ATOM     16  N   UNL     1       2.552   3.060  18.457  0.00  0.00    +0.000 N 
ATOM     17  C   UNL     1       2.858   1.704  18.844  0.00  0.00    +0.000 C 
ATOM     18  C   UNL     1       3.215   4.210  18.815  0.00  0.00    +0.000 A 
ENDBRANCH  11  18
ENDBRANCH   9  11
ENDBRANCH   1   9
BRANCH   3  19
ATOM     19  O   UNL     1       8.067   7.741  18.228  0.00  0.00    +0.000 OA
BRANCH  19  20
ATOM     20  C   UNL     1       8.146   8.948  17.457  0.00  0.00    +0.000 C 
BRANCH  20  21
ATOM     21  C   UNL     1       8.364  10.095  18.391  0.00  0.00    +0.000 C 
ATOM     22  C   UNL     1       9.326  10.000  19.531  0.00  0.00    +0.000 C 
ATOM     23  C   UNL     1       9.677  10.858  18.329  0.00  0.00    +0.000 C 
BRANCH  23  24
ATOM     24  C   UNL     1       9.638  12.367  18.459  0.00  0.00    +0.000 A 
ATOM     25  C   UNL     1       9.935  13.247  17.398  0.00  0.00    +0.000 A 
ATOM     26  C   UNL     1       9.793  14.504  17.940  0.00  0.00    +0.000 A 
ATOM     27  N   UNL     1       9.457  14.314  19.248  0.00  0.00    +0.000 N 
ATOM     28  C   UNL     1       9.267  15.331  20.254  0.00  0.00    +0.000 C 
ATOM     29  N   UNL     1       9.334  13.018  19.587  0.00  0.00    +0.000 NA
ENDBRANCH  23  24
ENDBRANCH  20  21
ENDBRANCH  19  20
ENDBRANCH   3  19
TORSDOF 7
ENDMDL
MODEL 2
REMARK VINA RESULT:      -8.1      1.224      1.820
REMARK  Name = 
REMARK  11 active torsions:
REMARK  status: ('A' for Active; 'I' for Inactive)
REMARK    1  A    between atoms: C_1  and  C_2
REMARK    2  A    between atoms: N_5  and  C_6
REMARK    3  A    between atoms: C_7  and  C_8
REMARK    4  A    between atoms: C_8  and  N_9
REMARK    5  A    between atoms: N_9  and  C_10
REMARK    6  A    between atoms: C_12  and  O_13
REMARK    7  A    between atoms: O_13  and  C_14
REMARK    8  A    between atoms: C_14  and  C_15
REMARK    9  A    between atoms: C_17  and  C_18
REMARK   10  A    between atoms: N_21  and  C_22
REMARK   11  A    between atoms: N_25  and  C_26
REMARK                            x       y       z     vdW  Elec       q    Type
REMARK                         _______ _______ _______ _____ _____    ______ ____
ROOT
ATOM      1  C   UNL     1       6.232   4.597  18.070  0.00  0.00    +0.000 A 
ATOM      2  C   UNL     1       6.842   5.696  18.526  0.00  0.00    +0.000 A 
ATOM      3  C   UNL     1       7.482   6.572  17.549  0.00  0.00    +0.000 A 
ATOM      4  N   UNL     1       7.544   6.406  16.274  0.00  0.00    +0.000 NA
ATOM      5  N   UNL     1       6.944   5.268  15.786  0.00  0.00    +0.000 N 
ATOM      6  C   UNL     1       6.973   5.070  14.349  0.00  0.00    +0.000 C 
ATOM      7  C   UNL     1       6.276   4.329  16.574  0.00  0.00    +0.000 A 
ATOM      8  O   UNL     1       5.737   3.334  16.092  0.00  0.00    +0.000 OA
ENDROOT
BRANCH   1   9
ATOM      9  N   UNL     1       5.505   3.721  18.885  0.00  0.00    +0.000 N 
ATOM     10  H   UNL     1       5.139   2.936  18.352  0.00  0.00    +0.000 HD
BRANCH   9  11
ATOM     11  C   UNL     1       4.452   4.218  19.768  0.00  0.00    +0.000 C 
BRANCH  11  18
ATOM     12  C   UNL     1       3.647   1.380  18.256  0.00  0.00    +0.000 C 
ATOM     13  C   UNL     1       2.777   2.384  18.910  0.00  0.00    +0.000 A 
ATOM     14  C   UNL     1       1.369   2.340  19.008  0.00  0.00    +0.000 A 
ATOM     15  N   UNL     1       0.862   3.410  19.615  0.00  0.00    +0.000 NA
ATOM     16  N   UNL     1       1.946   4.135  19.949  0.00  0.00    +0.000 N 
ATOM     17  C   UNL     1       1.750   5.398  20.619  0.00  0.00    +0.000 C 
ATOM     18  C   UNL     1       3.130   3.569  19.541  0.00  0.00    +0.000 A 
ENDBRANCH  11  18
ENDBRANCH   9  11
ENDBRANCH   1   9
BRANCH   3  19
ATOM     19  O   UNL     1       8.004   7.639  18.200  0.00  0.00    +0.000 OA
BRANCH  19  20
ATOM     20  C   UNL     1       8.020   8.871  17.466  0.00  0.00    +0.000 C 
BRANCH  20  21
ATOM     21  C   UNL     1       8.298   9.989  18.420  0.00  0.00    +0.000 C 
ATOM     22  C   UNL     1       9.495   9.972  19.315  0.00  0.00    +0.000 C 
ATOM     23  C   UNL     1       9.458  10.929  18.138  0.00  0.00    +0.000 C 
BRANCH  23  24
ATOM     24  C   UNL     1       9.261  12.410  18.393  0.00  0.00    +0.000 A 
ATOM     25  C   UNL     1       9.950  13.125  19.394  0.00  0.00    +0.000 A 
ATOM     26  C   UNL     1       9.473  14.411  19.292  0.00  0.00    +0.000 A 
ATOM     27  N   UNL     1       8.544  14.390  18.292  0.00  0.00    +0.000 N 
ATOM     28  C   UNL     1       7.713  15.485  17.854  0.00  0.00    +0.000 C 
ATOM     29  N   UNL     1       8.410  13.184  17.712  0.00  0.00    +0.000 NA
ENDBRANCH  23  24
ENDBRANCH  20  21
ENDBRANCH  19  20
ENDBRANCH   3  19
TORSDOF 7
ENDMDL
MODEL 3
REMARK VINA RESULT:      -8.1      0.885      1.026
REMARK  Name = 
REMARK  11 active torsions:
REMARK  status: ('A' for Active; 'I' for Inactive)
REMARK    1  A    between atoms: C_1  and  C_2
REMARK    2  A    between atoms: N_5  and  C_6
REMARK    3  A    between atoms: C_7  and  C_8
REMARK    4  A    between atoms: C_8  and  N_9
REMARK    5  A    between atoms: N_9  and  C_10
REMARK    6  A    between atoms: C_12  and  O_13
REMARK    7  A    between atoms: O_13  and  C_14
REMARK    8  A    between atoms: C_14  and  C_15
REMARK    9  A    between atoms: C_17  and  C_18
REMARK   10  A    between atoms: N_21  and  C_22
REMARK   11  A    between atoms: N_25  and  C_26
REMARK                            x       y       z     vdW  Elec       q    Type
REMARK                         _______ _______ _______ _____ _____    ______ ____
ROOT
ATOM      1  C   UNL     1       6.389   4.697  18.135  0.00  0.00    +0.000 A 
ATOM      2  C   UNL     1       6.993   5.826  18.521  0.00  0.00    +0.000 A 
ATOM      3  C   UNL     1       7.566   6.678  17.483  0.00  0.00    +0.000 A 
ATOM      4  N   UNL     1       7.573   6.466  16.214  0.00  0.00    +0.000 NA
ATOM      5  N   UNL     1       6.978   5.297  15.797  0.00  0.00    +0.000 N 
ATOM      6  C   UNL     1       6.946   5.046  14.368  0.00  0.00    +0.000 C 
ATOM      7  C   UNL     1       6.371   4.373  16.650  0.00  0.00    +0.000 A 
ATOM      8  O   UNL     1       5.833   3.350  16.230  0.00  0.00    +0.000 OA
ENDROOT
BRANCH   1   9
ATOM      9  N   UNL     1       5.721   3.836  19.015  0.00  0.00    +0.000 N 
ATOM     10  H   UNL     1       5.557   2.926  18.590  0.00  0.00    +0.000 HD
BRANCH   9  11
ATOM     11  C   UNL     1       4.501   4.261  19.696  0.00  0.00    +0.000 C 
BRANCH  11  18
ATOM     12  C   UNL     1       2.599   6.692  18.488  0.00  0.00    +0.000 C 
ATOM     13  C   UNL     1       2.483   5.226  18.316  0.00  0.00    +0.000 A 
ATOM     14  C   UNL     1       1.486   4.540  17.589  0.00  0.00    +0.000 A 
ATOM     15  N   UNL     1       1.619   3.217  17.653  0.00  0.00    +0.000 NA
ATOM     16  N   UNL     1       2.730   3.041  18.393  0.00  0.00    +0.000 N 
ATOM     17  C   UNL     1       3.158   1.694  18.682  0.00  0.00    +0.000 C 
ATOM     18  C   UNL     1       3.290   4.218  18.829  0.00  0.00    +0.000 A 
ENDBRANCH  11  18
ENDBRANCH   9  11
ENDBRANCH   1   9
BRANCH   3  19
ATOM     19  O   UNL     1       8.092   7.780  18.070  0.00  0.00    +0.000 OA
BRANCH  19  20
ATOM     20  C   UNL     1       7.577   9.037  17.610  0.00  0.00    +0.000 C 
BRANCH  20  21
ATOM     21  C   UNL     1       8.266  10.134  18.356  0.00  0.00    +0.000 C 
ATOM     22  C   UNL     1       9.388   9.850  19.303  0.00  0.00    +0.000 C 
ATOM     23  C   UNL     1       9.687  10.512  17.971  0.00  0.00    +0.000 C 
BRANCH  23  24
ATOM     24  C   UNL     1      10.057  11.981  17.939  0.00  0.00    +0.000 A 
ATOM     25  C   UNL     1       9.115  13.017  17.777  0.00  0.00    +0.000 A 
ATOM     26  C   UNL     1       9.863  14.171  17.793  0.00  0.00    +0.000 A 
ATOM     27  N   UNL     1      11.162  13.777  17.934  0.00  0.00    +0.000 N 
ATOM     28  C   UNL     1      12.332  14.621  17.935  0.00  0.00    +0.000 C 
ATOM     29  N   UNL     1      11.307  12.445  18.047  0.00  0.00    +0.000 NA
ENDBRANCH  23  24
ENDBRANCH  20  21
ENDBRANCH  19  20
ENDBRANCH   3  19
TORSDOF 7
ENDMDL
MODEL 4
REMARK VINA RESULT:      -8.0      0.720      1.505
REMARK  Name = 
REMARK  11 active torsions:
REMARK  status: ('A' for Active; 'I' for Inactive)
REMARK    1  A    between atoms: C_1  and  C_2
REMARK    2  A    between atoms: N_5  and  C_6
REMARK    3  A    between atoms: C_7  and  C_8
REMARK    4  A    between atoms: C_8  and  N_9
REMARK    5  A    between atoms: N_9  and  C_10
REMARK    6  A    between atoms: C_12  and  O_13
REMARK    7  A    between atoms: O_13  and  C_14
REMARK    8  A    between atoms: C_14  and  C_15
REMARK    9  A    between atoms: C_17  and  C_18
REMARK   10  A    between atoms: N_21  and  C_22
REMARK   11  A    between atoms: N_25  and  C_26
REMARK                            x       y       z     vdW  Elec       q    Type
REMARK                         _______ _______ _______ _____ _____    ______ ____
ROOT
ATOM      1  C   UNL     1       6.351   4.605  18.188  0.00  0.00    +0.000 A 
ATOM      2  C   UNL     1       6.957   5.713  18.626  0.00  0.00    +0.000 A 
ATOM      3  C   UNL     1       7.499   6.631  17.627  0.00  0.00    +0.000 A 
ATOM      4  N   UNL     1       7.475   6.494  16.348  0.00  0.00    +0.000 NA
ATOM      5  N   UNL     1       6.878   5.348  15.877  0.00  0.00    +0.000 N 
ATOM      6  C   UNL     1       6.812   5.182  14.436  0.00  0.00    +0.000 C 
ATOM      7  C   UNL     1       6.297   4.371  16.687  0.00  0.00    +0.000 A 
ATOM      8  O   UNL     1       5.756   3.370  16.220  0.00  0.00    +0.000 OA
ENDROOT
BRANCH   1   9
ATOM      9  N   UNL     1       5.710   3.688  19.031  0.00  0.00    +0.000 N 
ATOM     10  H   UNL     1       5.548   2.802  18.559  0.00  0.00    +0.000 HD
BRANCH   9  11
ATOM     11  C   UNL     1       4.500   4.059  19.760  0.00  0.00    +0.000 C 
BRANCH  11  18
ATOM     12  C   UNL     1       2.858   1.835  17.931  0.00  0.00    +0.000 C 
ATOM     13  C   UNL     1       2.603   3.281  18.115  0.00  0.00    +0.000 A 
ATOM     14  C   UNL     1       1.578   4.039  17.508  0.00  0.00    +0.000 A 
ATOM     15  N   UNL     1       1.629   5.328  17.833  0.00  0.00    +0.000 NA
ATOM     16  N   UNL     1       2.668   5.405  18.685  0.00  0.00    +0.000 N 
ATOM     17  C   UNL     1       3.023   6.696  19.224  0.00  0.00    +0.000 C 
ATOM     18  C   UNL     1       3.301   4.202  18.887  0.00  0.00    +0.000 A 
ENDBRANCH  11  18
ENDBRANCH   9  11
ENDBRANCH   1   9
BRANCH   3  19
ATOM     19  O   UNL     1       8.033   7.699  18.266  0.00  0.00    +0.000 OA
BRANCH  19  20
ATOM     20  C   UNL     1       8.188   8.885  17.474  0.00  0.00    +0.000 C 
BRANCH  20  21
ATOM     21  C   UNL     1       8.384  10.048  18.393  0.00  0.00    +0.000 C 
ATOM     22  C   UNL     1       9.376  10.001  19.511  0.00  0.00    +0.000 C 
ATOM     23  C   UNL     1       9.665  10.861  18.294  0.00  0.00    +0.000 C 
BRANCH  23  24
ATOM     24  C   UNL     1       9.571  12.368  18.412  0.00  0.00    +0.000 A 
ATOM     25  C   UNL     1       9.984  13.255  17.398  0.00  0.00    +0.000 A 
ATOM     26  C   UNL     1       9.739  14.508  17.911  0.00  0.00    +0.000 A 
ATOM     27  N   UNL     1       9.236  14.309  19.164  0.00  0.00    +0.000 N 
ATOM     28  C   UNL     1       8.888  15.321  20.132  0.00  0.00    +0.000 C 
ATOM     29  N   UNL     1       9.103  13.011  19.488  0.00  0.00    +0.000 NA
ENDBRANCH  23  24
ENDBRANCH  20  21
ENDBRANCH  19  20
ENDBRANCH   3  19
TORSDOF 7
ENDMDL
MODEL 5
REMARK VINA RESULT:      -7.9      1.015      1.423
REMARK  Name = 
REMARK  11 active torsions:
REMARK  status: ('A' for Active; 'I' for Inactive)
REMARK    1  A    between atoms: C_1  and  C_2
REMARK    2  A    between atoms: N_5  and  C_6
REMARK    3  A    between atoms: C_7  and  C_8
REMARK    4  A    between atoms: C_8  and  N_9
REMARK    5  A    between atoms: N_9  and  C_10
REMARK    6  A    between atoms: C_12  and  O_13
REMARK    7  A    between atoms: O_13  and  C_14
REMARK    8  A    between atoms: C_14  and  C_15
REMARK    9  A    between atoms: C_17  and  C_18
REMARK   10  A    between atoms: N_21  and  C_22
REMARK   11  A    between atoms: N_25  and  C_26
REMARK                            x       y       z     vdW  Elec       q    Type
REMARK                         _______ _______ _______ _____ _____    ______ ____
ROOT
ATOM      1  C   UNL     1       6.347   4.698  18.309  0.00  0.00    +0.000 A 
ATOM      2  C   UNL     1       7.052   5.726  18.793  0.00  0.00    +0.000 A 
ATOM      3  C   UNL     1       7.661   6.643  17.834  0.00  0.00    +0.000 A 
ATOM      4  N   UNL     1       7.613   6.574  16.549  0.00  0.00    +0.000 NA
ATOM      5  N   UNL     1       6.914   5.509  16.030  0.00  0.00    +0.000 N 
ATOM      6  C   UNL     1       6.820   5.423  14.585  0.00  0.00    +0.000 C 
ATOM      7  C   UNL     1       6.259   4.546  16.799  0.00  0.00    +0.000 A 
ATOM      8  O   UNL     1       5.628   3.620  16.291  0.00  0.00    +0.000 OA
ENDROOT
BRANCH   1   9
ATOM      9  N   UNL     1       5.638   3.798  19.115  0.00  0.00    +0.000 N 
ATOM     10  H   UNL     1       5.465   2.922  18.628  0.00  0.00    +0.000 HD
BRANCH   9  11
ATOM     11  C   UNL     1       4.410   4.207  19.793  0.00  0.00    +0.000 C 
BRANCH  11  18
ATOM     12  C   UNL     1       2.948   6.712  18.189  0.00  0.00    +0.000 C 
ATOM     13  C   UNL     1       2.594   5.275  18.222  0.00  0.00    +0.000 A 
ATOM     14  C   UNL     1       1.506   4.660  17.564  0.00  0.00    +0.000 A 
ATOM     15  N   UNL     1       1.419   3.357  17.818  0.00  0.00    +0.000 NA
ATOM     16  N   UNL     1       2.477   3.113  18.613  0.00  0.00    +0.000 N 
ATOM     17  C   UNL     1       2.675   1.770  19.104  0.00  0.00    +0.000 C 
ATOM     18  C   UNL     1       3.219   4.235  18.899  0.00  0.00    +0.000 A 
ENDBRANCH  11  18
ENDBRANCH   9  11
ENDBRANCH   1   9
BRANCH   3  19
ATOM     19  O   UNL     1       8.292   7.628  18.517  0.00  0.00    +0.000 OA
BRANCH  19  20
ATOM     20  C   UNL     1       8.167   8.947  17.967  0.00  0.00    +0.000 C 
BRANCH  20  21
ATOM     21  C   UNL     1       9.151   9.842  18.650  0.00  0.00    +0.000 C 
ATOM     22  C   UNL     1      10.049  10.750  17.874  0.00  0.00    +0.000 C 
ATOM     23  C   UNL     1       8.899  11.340  18.668  0.00  0.00    +0.000 C 
BRANCH  23  24
ATOM     24  C   UNL     1       9.192  12.103  19.944  0.00  0.00    +0.000 A 
ATOM     25  C   UNL     1       9.046  11.550  21.232  0.00  0.00    +0.000 A 
ATOM     26  C   UNL     1       9.399  12.567  22.089  0.00  0.00    +0.000 A 
ATOM     27  N   UNL     1       9.702  13.637  21.298  0.00  0.00    +0.000 N 
ATOM     28  C   UNL     1      10.063  14.964  21.732  0.00  0.00    +0.000 C 
ATOM     29  N   UNL     1       9.604  13.375  19.983  0.00  0.00    +0.000 NA
ENDBRANCH  23  24
ENDBRANCH  20  21
ENDBRANCH  19  20
ENDBRANCH   3  19
TORSDOF 7
ENDMDL
MODEL 6
REMARK VINA RESULT:      -7.8      5.159      7.887
REMARK  Name = 
REMARK  11 active torsions:
REMARK  status: ('A' for Active; 'I' for Inactive)
REMARK    1  A    between atoms: C_1  and  C_2
REMARK    2  A    between atoms: N_5  and  C_6
REMARK    3  A    between atoms: C_7  and  C_8
REMARK    4  A    between atoms: C_8  and  N_9
REMARK    5  A    between atoms: N_9  and  C_10
REMARK    6  A    between atoms: C_12  and  O_13
REMARK    7  A    between atoms: O_13  and  C_14
REMARK    8  A    between atoms: C_14  and  C_15
REMARK    9  A    between atoms: C_17  and  C_18
REMARK   10  A    between atoms: N_21  and  C_22
REMARK   11  A    between atoms: N_25  and  C_26
REMARK                            x       y       z     vdW  Elec       q    Type
REMARK                         _______ _______ _______ _____ _____    ______ ____
ROOT
ATOM      1  C   UNL     1       2.822   4.614  18.453  0.00  0.00    +0.000 A 
ATOM      2  C   UNL     1       2.519   5.854  18.854  0.00  0.00    +0.000 A 
ATOM      3  C   UNL     1       1.988   6.019  20.204  0.00  0.00    +0.000 A 
ATOM      4  N   UNL     1       1.757   5.095  21.071  0.00  0.00    +0.000 NA
ATOM      5  N   UNL     1       2.039   3.810  20.669  0.00  0.00    +0.000 N 
ATOM      6  C   UNL     1       1.815   2.752  21.636  0.00  0.00    +0.000 C 
ATOM      7  C   UNL     1       2.563   3.471  19.420  0.00  0.00    +0.000 A 
ATOM      8  O   UNL     1       2.817   2.308  19.110  0.00  0.00    +0.000 OA
ENDROOT
BRANCH   1   9
ATOM      9  N   UNL     1       3.421   4.324  17.220  0.00  0.00    +0.000 N 
ATOM     10  H   UNL     1       3.817   3.387  17.211  0.00  0.00    +0.000 HD
BRANCH   9  11
ATOM     11  C   UNL     1       4.385   5.244  16.621  0.00  0.00    +0.000 C 
BRANCH  11  18
ATOM     12  C   UNL     1       6.110   5.415  19.446  0.00  0.00    +0.000 C 
ATOM     13  C   UNL     1       6.538   4.969  18.101  0.00  0.00    +0.000 A 
ATOM     14  C   UNL     1       7.828   4.526  17.733  0.00  0.00    +0.000 A 
ATOM     15  N   UNL     1       7.922   4.232  16.439  0.00  0.00    +0.000 NA
ATOM     16  N   UNL     1       6.679   4.447  15.969  0.00  0.00    +0.000 N 
ATOM     17  C   UNL     1       6.429   4.241  14.563  0.00  0.00    +0.000 C 
ATOM     18  C   UNL     1       5.802   4.902  16.926  0.00  0.00    +0.000 A 
ENDBRANCH  11  18
ENDBRANCH   9  11
ENDBRANCH   1   9
BRANCH   3  19
ATOM     19  O   UNL     1       1.784   7.338  20.430  0.00  0.00    +0.000 OA
BRANCH  19  20
ATOM     20  C   UNL     1       1.910   8.194  19.285  0.00  0.00    +0.000 C 
BRANCH  20  21
ATOM     21  C   UNL     1       0.907   9.296  19.402  0.00  0.00    +0.000 C 
ATOM     22  C   UNL     1       1.277  10.720  19.134  0.00  0.00    +0.000 C 
ATOM     23  C   UNL     1       0.405   9.976  18.139  0.00  0.00    +0.000 C 
BRANCH  23  24
ATOM     24  C   UNL     1      -1.068  10.318  18.044  0.00  0.00    +0.000 A 
ATOM     25  C   UNL     1      -1.921   9.811  17.043  0.00  0.00    +0.000 A 
ATOM     26  C   UNL     1      -3.148  10.373  17.316  0.00  0.00    +0.000 A 
ATOM     27  N   UNL     1      -2.962  11.172  18.406  0.00  0.00    +0.000 N 
ATOM     28  C   UNL     1      -3.939  12.028  19.033  0.00  0.00    +0.000 C 
ATOM     29  N   UNL     1      -1.706  11.140  18.885  0.00  0.00    +0.000 NA
ENDBRANCH  23  24
ENDBRANCH  20  21
ENDBRANCH  19  20
ENDBRANCH   3  19
TORSDOF 7
ENDMDL
MODEL 7
REMARK VINA RESULT:      -7.7      4.656      7.765
REMARK  Name = 
REMARK  11 active torsions:
REMARK  status: ('A' for Active; 'I' for Inactive)
REMARK    1  A    between atoms: C_1  and  C_2
REMARK    2  A    between atoms: N_5  and  C_6
REMARK    3  A    between atoms: C_7  and  C_8
REMARK    4  A    between atoms: C_8  and  N_9
REMARK    5  A    between atoms: N_9  and  C_10
REMARK    6  A    between atoms: C_12  and  O_13
REMARK    7  A    between atoms: O_13  and  C_14
REMARK    8  A    between atoms: C_14  and  C_15
REMARK    9  A    between atoms: C_17  and  C_18
REMARK   10  A    between atoms: N_21  and  C_22
REMARK   11  A    between atoms: N_25  and  C_26
REMARK                            x       y       z     vdW  Elec       q    Type
REMARK                         _______ _______ _______ _____ _____    ______ ____
ROOT
ATOM      1  C   UNL     1       2.844   4.490  18.273  0.00  0.00    +0.000 A 
ATOM      2  C   UNL     1       2.607   5.780  18.532  0.00  0.00    +0.000 A 
ATOM      3  C   UNL     1       2.106   6.125  19.859  0.00  0.00    +0.000 A 
ATOM      4  N   UNL     1       1.846   5.319  20.829  0.00  0.00    +0.000 NA
ATOM      5  N   UNL     1       2.059   3.984  20.574  0.00  0.00    +0.000 N 
ATOM      6  C   UNL     1       1.801   3.056  21.660  0.00  0.00    +0.000 C 
ATOM      7  C   UNL     1       2.546   3.479  19.368  0.00  0.00    +0.000 A 
ATOM      8  O   UNL     1       2.740   2.277  19.191  0.00  0.00    +0.000 OA
ENDROOT
BRANCH   1   9
ATOM      9  N   UNL     1       3.408   4.032  17.075  0.00  0.00    +0.000 N 
ATOM     10  H   UNL     1       2.791   3.377  16.601  0.00  0.00    +0.000 HD
BRANCH   9  11
ATOM     11  C   UNL     1       4.768   3.499  17.044  0.00  0.00    +0.000 C 
BRANCH  11  18
ATOM     12  C   UNL     1       6.239   5.388  19.336  0.00  0.00    +0.000 C 
ATOM     13  C   UNL     1       6.441   5.350  17.870  0.00  0.00    +0.000 A 
ATOM     14  C   UNL     1       7.324   6.158  17.121  0.00  0.00    +0.000 A 
ATOM     15  N   UNL     1       7.253   5.924  15.813  0.00  0.00    +0.000 NA
ATOM     16  N   UNL     1       6.348   4.932  15.712  0.00  0.00    +0.000 N 
ATOM     17  C   UNL     1       6.008   4.441  14.399  0.00  0.00    +0.000 C 
ATOM     18  C   UNL     1       5.816   4.550  16.921  0.00  0.00    +0.000 A 
ENDBRANCH  11  18
ENDBRANCH   9  11
ENDBRANCH   1   9
BRANCH   3  19
ATOM     19  O   UNL     1       1.968   7.470  19.934  0.00  0.00    +0.000 OA
BRANCH  19  20
ATOM     20  C   UNL     1       1.596   7.988  21.219  0.00  0.00    +0.000 C 
BRANCH  20  21
ATOM     21  C   UNL     1       0.300   8.720  21.079  0.00  0.00    +0.000 C 
ATOM     22  C   UNL     1      -0.153   9.709  22.105  0.00  0.00    +0.000 C 
ATOM     23  C   UNL     1       0.321  10.204  20.751  0.00  0.00    +0.000 C 
BRANCH  23  24
ATOM     24  C   UNL     1      -0.694  10.735  19.759  0.00  0.00    +0.000 A 
ATOM     25  C   UNL     1      -1.570  11.804  20.039  0.00  0.00    +0.000 A 
ATOM     26  C   UNL     1      -2.315  11.950  18.892  0.00  0.00    +0.000 A 
ATOM     27  N   UNL     1      -1.879  10.984  18.033  0.00  0.00    +0.000 N 
ATOM     28  C   UNL     1      -2.401  10.686  16.721  0.00  0.00    +0.000 C 
ATOM     29  N   UNL     1      -0.874  10.241  18.529  0.00  0.00    +0.000 NA
ENDBRANCH  23  24
ENDBRANCH  20  21
ENDBRANCH  19  20
ENDBRANCH   3  19
TORSDOF 7
ENDMDL
MODEL 8
REMARK VINA RESULT:      -7.7      1.146      1.306
REMARK  Name = 
REMARK  11 active torsions:
REMARK  status: ('A' for Active; 'I' for Inactive)
REMARK    1  A    between atoms: C_1  and  C_2
REMARK    2  A    between atoms: N_5  and  C_6
REMARK    3  A    between atoms: C_7  and  C_8
REMARK    4  A    between atoms: C_8  and  N_9
REMARK    5  A    between atoms: N_9  and  C_10
REMARK    6  A    between atoms: C_12  and  O_13
REMARK    7  A    between atoms: O_13  and  C_14
REMARK    8  A    between atoms: C_14  and  C_15
REMARK    9  A    between atoms: C_17  and  C_18
REMARK   10  A    between atoms: N_21  and  C_22
REMARK   11  A    between atoms: N_25  and  C_26
REMARK                            x       y       z     vdW  Elec       q    Type
REMARK                         _______ _______ _______ _____ _____    ______ ____
ROOT
ATOM      1  C   UNL     1       5.957   4.859  18.421  0.00  0.00    +0.000 A 
ATOM      2  C   UNL     1       6.708   5.910  18.766  0.00  0.00    +0.000 A 
ATOM      3  C   UNL     1       7.402   6.627  17.699  0.00  0.00    +0.000 A 
ATOM      4  N   UNL     1       7.390   6.357  16.441  0.00  0.00    +0.000 NA
ATOM      5  N   UNL     1       6.643   5.263  16.068  0.00  0.00    +0.000 N 
ATOM      6  C   UNL     1       6.589   4.953  14.652  0.00  0.00    +0.000 C 
ATOM      7  C   UNL     1       5.907   4.472  16.952  0.00  0.00    +0.000 A 
ATOM      8  O   UNL     1       5.237   3.514  16.571  0.00  0.00    +0.000 OA
ENDROOT
BRANCH   1   9
ATOM      9  N   UNL     1       5.170   4.139  19.329  0.00  0.00    +0.000 N 
ATOM     10  H   UNL     1       5.033   3.179  19.021  0.00  0.00    +0.000 HD
BRANCH   9  11
ATOM     11  C   UNL     1       3.889   4.668  19.793  0.00  0.00    +0.000 C 
BRANCH  11  18
ATOM     12  C   UNL     1       1.710   4.650  17.296  0.00  0.00    +0.000 C 
ATOM     13  C   UNL     1       1.815   3.750  18.467  0.00  0.00    +0.000 A 
ATOM     14  C   UNL     1       0.959   2.671  18.778  0.00  0.00    +0.000 A 
ATOM     15  N   UNL     1       1.279   2.073  19.923  0.00  0.00    +0.000 NA
ATOM     16  N   UNL     1       2.370   2.741  20.341  0.00  0.00    +0.000 N 
ATOM     17  C   UNL     1       2.976   2.356  21.593  0.00  0.00    +0.000 C 
ATOM     18  C   UNL     1       2.736   3.770  19.507  0.00  0.00    +0.000 A 
ENDBRANCH  11  18
ENDBRANCH   9  11
ENDBRANCH   1   9
BRANCH   3  19
ATOM     19  O   UNL     1       8.070   7.672  18.244  0.00  0.00    +0.000 OA
BRANCH  19  20
ATOM     20  C   UNL     1       8.209   8.828  17.406  0.00  0.00    +0.000 C 
BRANCH  20  21
ATOM     21  C   UNL     1       8.364  10.031  18.279  0.00  0.00    +0.000 C 
ATOM     22  C   UNL     1       9.347  10.059  19.404  0.00  0.00    +0.000 C 
ATOM     23  C   UNL     1       9.620  10.878  18.156  0.00  0.00    +0.000 C 
BRANCH  23  24
ATOM     24  C   UNL     1       9.480  12.385  18.213  0.00  0.00    +0.000 A 
ATOM     25  C   UNL     1       8.317  13.074  17.812  0.00  0.00    +0.000 A 
ATOM     26  C   UNL     1       8.614  14.402  18.012  0.00  0.00    +0.000 A 
ATOM     27  N   UNL     1       9.895  14.435  18.480  0.00  0.00    +0.000 N 
ATOM     28  C   UNL     1      10.684  15.607  18.775  0.00  0.00    +0.000 C 
ATOM     29  N   UNL     1      10.441  13.216  18.632  0.00  0.00    +0.000 NA
ENDBRANCH  23  24
ENDBRANCH  20  21
ENDBRANCH  19  20
ENDBRANCH   3  19
TORSDOF 7
ENDMDL
MODEL 9
REMARK VINA RESULT:      -7.7      4.921      7.968
REMARK  Name = 
REMARK  11 active torsions:
REMARK  status: ('A' for Active; 'I' for Inactive)
REMARK    1  A    between atoms: C_1  and  C_2
REMARK    2  A    between atoms: N_5  and  C_6
REMARK    3  A    between atoms: C_7  and  C_8
REMARK    4  A    between atoms: C_8  and  N_9
REMARK    5  A    between atoms: N_9  and  C_10
REMARK    6  A    between atoms: C_12  and  O_13
REMARK    7  A    between atoms: O_13  and  C_14
REMARK    8  A    between atoms: C_14  and  C_15
REMARK    9  A    between atoms: C_17  and  C_18
REMARK   10  A    between atoms: N_21  and  C_22
REMARK   11  A    between atoms: N_25  and  C_26
REMARK                            x       y       z     vdW  Elec       q    Type
REMARK                         _______ _______ _______ _____ _____    ______ ____
ROOT
ATOM      1  C   UNL     1       2.860   4.631  18.095  0.00  0.00    +0.000 A 
ATOM      2  C   UNL     1       2.805   5.914  18.465  0.00  0.00    +0.000 A 
ATOM      3  C   UNL     1       2.274   6.215  19.792  0.00  0.00    +0.000 A 
ATOM      4  N   UNL     1       1.831   5.379  20.664  0.00  0.00    +0.000 NA
ATOM      5  N   UNL     1       1.856   4.054  20.293  0.00  0.00    +0.000 N 
ATOM      6  C   UNL     1       1.388   3.086  21.268  0.00  0.00    +0.000 C 
ATOM      7  C   UNL     1       2.340   3.587  19.070  0.00  0.00    +0.000 A 
ATOM      8  O   UNL     1       2.360   2.390  18.788  0.00  0.00    +0.000 OA
ENDROOT
BRANCH   1   9
ATOM      9  N   UNL     1       3.426   4.196  16.890  0.00  0.00    +0.000 N 
ATOM     10  H   UNL     1       2.772   3.631  16.355  0.00  0.00    +0.000 HD
BRANCH   9  11
ATOM     11  C   UNL     1       4.733   3.544  16.869  0.00  0.00    +0.000 C 
BRANCH  11  18
ATOM     12  C   UNL     1       5.334   3.677  13.612  0.00  0.00    +0.000 C 
ATOM     13  C   UNL     1       6.025   4.358  14.730  0.00  0.00    +0.000 A 
ATOM     14  C   UNL     1       7.137   5.223  14.631  0.00  0.00    +0.000 A 
ATOM     15  N   UNL     1       7.567   5.648  15.816  0.00  0.00    +0.000 NA
ATOM     16  N   UNL     1       6.708   5.090  16.689  0.00  0.00    +0.000 N 
ATOM     17  C   UNL     1       6.904   5.332  18.098  0.00  0.00    +0.000 C 
ATOM     18  C   UNL     1       5.760   4.293  16.092  0.00  0.00    +0.000 A 
ENDBRANCH  11  18
ENDBRANCH   9  11
ENDBRANCH   1   9
BRANCH   3  19
ATOM     19  O   UNL     1       2.338   7.554  19.990  0.00  0.00    +0.000 OA
BRANCH  19  20
ATOM     20  C   UNL     1       1.943   8.368  18.876  0.00  0.00    +0.000 C 
BRANCH  20  21
ATOM     21  C   UNL     1       0.742   9.165  19.272  0.00  0.00    +0.000 C 
ATOM     22  C   UNL     1       0.866  10.569  19.771  0.00  0.00    +0.000 C 
ATOM     23  C   UNL     1       0.294  10.316  18.387  0.00  0.00    +0.000 C 
BRANCH  23  24
ATOM     24  C   UNL     1      -1.190  10.507  18.152  0.00  0.00    +0.000 A 
ATOM     25  C   UNL     1      -1.893   9.907  17.088  0.00  0.00    +0.000 A 
ATOM     26  C   UNL     1      -3.188  10.346  17.237  0.00  0.00    +0.000 A 
ATOM     27  N   UNL     1      -3.185  11.170  18.324  0.00  0.00    +0.000 N 
ATOM     28  C   UNL     1      -4.295  11.931  18.842  0.00  0.00    +0.000 C 
ATOM     29  N   UNL     1      -1.981  11.270  18.915  0.00  0.00    +0.000 NA
ENDBRANCH  23  24
ENDBRANCH  20  21
ENDBRANCH  19  20
ENDBRANCH   3  19
TORSDOF 7
ENDMDL
