MODEL 1
REMARK VINA RESULT:      -8.1      0.000      0.000
REMARK  Name = 
REMARK  3 active torsions:
REMARK  status: ('A' for Active; 'I' for Inactive)
REMARK    1  A    between atoms: C_4  and  C_5
REMARK    2  A    between atoms: C_8  and  C_9
REMARK    3  A    between atoms: C_9  and  N_10
REMARK                            x       y       z     vdW  Elec       q    Type
REMARK                         _______ _______ _______ _____ _____    ______ ____
ROOT
ATOM      1  C   UNL     1       2.495   6.969  18.671  0.00  0.00    +0.000 A 
ATOM      2  C   UNL     1       2.153   7.016  20.033  0.00  0.00    +0.000 A 
ATOM      3  C   UNL     1       1.507   8.123  20.599  0.00  0.00    +0.000 A 
ATOM      4  C   UNL     1       1.145   9.218  19.810  0.00  0.00    +0.000 A 
ATOM      5  C   UNL     1       1.509   9.211  18.460  0.00  0.00    +0.000 A 
ATOM      6  C   UNL     1       2.179   8.109  17.907  0.00  0.00    +0.000 A 
ENDROOT
BRANCH   1  10
ATOM      7  F   UNL     1       2.128   2.318  17.318  0.00  0.00    +0.000 F 
ATOM      8  C   UNL     1       2.883   3.422  17.392  0.00  0.00    +0.000 A 
ATOM      9  C   UNL     1       2.362   4.574  17.959  0.00  0.00    +0.000 A 
ATOM     10  C   UNL     1       3.122   5.762  18.044  0.00  0.00    +0.000 A 
ATOM     11  C   UNL     1       4.452   5.755  17.548  0.00  0.00    +0.000 A 
ATOM     12  N   UNL     1       5.244   6.853  17.592  0.00  0.00    +0.000 NA
ATOM     13  C   UNL     1       6.510   6.794  17.125  0.00  0.00    +0.000 A 
ATOM     14  C   UNL     1       7.071   5.661  16.579  0.00  0.00    +0.000 A 
ATOM     15  C   UNL     1       6.280   4.526  16.508  0.00  0.00    +0.000 A 
ATOM     16  C   UNL     1       4.964   4.553  16.988  0.00  0.00    +0.000 A 
ATOM     17  C   UNL     1       4.175   3.398  16.909  0.00  0.00    +0.000 A 
ENDBRANCH   1  10
BRANCH   4  18
ATOM     18  C   UNL     1       0.342  10.351  20.391  0.00  0.00    +0.000 C 
BRANCH  18  19
ATOM     19  N   UNL     1      -0.221  11.227  19.382  0.00  0.00    +0.000 N 
ATOM     20  C   UNL     1       0.257  12.456  19.015  0.00  0.00    +0.000 A 
ATOM     21  C   UNL     1      -0.703  12.972  18.176  0.00  0.00    +0.000 A 
ATOM     22  N   UNL     1      -1.741  12.091  18.021  0.00  0.00    +0.000 NA
ATOM     23  C   UNL     1      -1.422  11.048  18.754  0.00  0.00    +0.000 A 
ENDBRANCH  18  19
ENDBRANCH   4  18
TORSDOF 3
ENDMDL
MODEL 2
REMARK VINA RESULT:      -8.1      1.772      2.883
REMARK  Name = 
REMARK  3 active torsions:
REMARK  status: ('A' for Active; 'I' for Inactive)
REMARK    1  A    between atoms: C_4  and  C_5
REMARK    2  A    between atoms: C_8  and  C_9
REMARK    3  A    between atoms: C_9  and  N_10
REMARK                            x       y       z     vdW  Elec       q    Type
REMARK                         _______ _______ _______ _____ _____    ______ ____
ROOT
ATOM      1  C   UNL     1       2.449   7.302  18.591  0.00  0.00    +0.000 A 
ATOM      2  C   UNL     1       2.138   7.372  19.960  0.00  0.00    +0.000 A 
ATOM      3  C   UNL     1       1.434   8.453  20.507  0.00  0.00    +0.000 A 
ATOM      4  C   UNL     1       0.978   9.494  19.693  0.00  0.00    +0.000 A 
ATOM      5  C   UNL     1       1.308   9.464  18.335  0.00  0.00    +0.000 A 
ATOM      6  C   UNL     1       2.037   8.391  17.800  0.00  0.00    +0.000 A 
ENDROOT
BRANCH   1  10
ATOM      7  F   UNL     1       6.062   5.541  15.863  0.00  0.00    +0.000 F 
ATOM      8  C   UNL     1       4.971   5.291  16.601  0.00  0.00    +0.000 A 
ATOM      9  C   UNL     1       4.287   6.342  17.191  0.00  0.00    +0.000 A 
ATOM     10  C   UNL     1       3.140   6.119  17.986  0.00  0.00    +0.000 A 
ATOM     11  C   UNL     1       2.682   4.787  18.161  0.00  0.00    +0.000 A 
ATOM     12  N   UNL     1       1.593   4.491  18.908  0.00  0.00    +0.000 NA
ATOM     13  C   UNL     1       1.182   3.209  19.031  0.00  0.00    +0.000 A 
ATOM     14  C   UNL     1       1.821   2.143  18.438  0.00  0.00    +0.000 A 
ATOM     15  C   UNL     1       2.948   2.414  17.679  0.00  0.00    +0.000 A 
ATOM     16  C   UNL     1       3.396   3.733  17.528  0.00  0.00    +0.000 A 
ATOM     17  C   UNL     1       4.538   3.992  16.758  0.00  0.00    +0.000 A 
ENDBRANCH   1  10
BRANCH   4  18
ATOM     18  C   UNL     1       0.116  10.589  20.258  0.00  0.00    +0.000 C 
BRANCH  18  19
ATOM     19  N   UNL     1       0.231  11.838  19.531  0.00  0.00    +0.000 N 
ATOM     20  C   UNL     1       1.234  12.761  19.656  0.00  0.00    +0.000 A 
ATOM     21  C   UNL     1       0.814  13.842  18.918  0.00  0.00    +0.000 A 
ATOM     22  N   UNL     1      -0.409  13.598  18.348  0.00  0.00    +0.000 NA
ATOM     23  C   UNL     1      -0.733  12.384  18.731  0.00  0.00    +0.000 A 
ENDBRANCH  18  19
ENDBRANCH   4  18
TORSDOF 3
ENDMDL
MODEL 3
REMARK VINA RESULT:      -8.1      0.197      1.018
REMARK  Name = 
REMARK  3 active torsions:
REMARK  status: ('A' for Active; 'I' for Inactive)
REMARK    1  A    between atoms: C_4  and  C_5
REMARK    2  A    between atoms: C_8  and  C_9
REMARK    3  A    between atoms: C_9  and  N_10
REMARK                            x       y       z     vdW  Elec       q    Type
REMARK                         _______ _______ _______ _____ _____    ______ ____
ROOT
ATOM      1  C   UNL     1       2.457   6.926  18.552  0.00  0.00    +0.000 A 
ATOM      2  C   UNL     1       2.150   8.063  17.786  0.00  0.00    +0.000 A 
ATOM      3  C   UNL     1       1.565   9.204  18.352  0.00  0.00    +0.000 A 
ATOM      4  C   UNL     1       1.297   9.263  19.723  0.00  0.00    +0.000 A 
ATOM      5  C   UNL     1       1.559   8.129  20.498  0.00  0.00    +0.000 A 
ATOM      6  C   UNL     1       2.120   6.982  19.918  0.00  0.00    +0.000 A 
ENDROOT
BRANCH   1  10
ATOM      7  F   UNL     1       2.281   2.248  17.251  0.00  0.00    +0.000 F 
ATOM      8  C   UNL     1       3.001   3.375  17.341  0.00  0.00    +0.000 A 
ATOM      9  C   UNL     1       2.422   4.518  17.868  0.00  0.00    +0.000 A 
ATOM     10  C   UNL     1       3.144   5.729  17.969  0.00  0.00    +0.000 A 
ATOM     11  C   UNL     1       4.494   5.754  17.532  0.00  0.00    +0.000 A 
ATOM     12  N   UNL     1       5.253   6.874  17.595  0.00  0.00    +0.000 NA
ATOM     13  C   UNL     1       6.540   6.846  17.185  0.00  0.00    +0.000 A 
ATOM     14  C   UNL     1       7.155   5.723  16.680  0.00  0.00    +0.000 A 
ATOM     15  C   UNL     1       6.401   4.564  16.591  0.00  0.00    +0.000 A 
ATOM     16  C   UNL     1       5.064   4.560  17.012  0.00  0.00    +0.000 A 
ATOM     17  C   UNL     1       4.312   3.382  16.916  0.00  0.00    +0.000 A 
ENDBRANCH   1  10
BRANCH   4  18
ATOM     18  C   UNL     1       0.787  10.531  20.351  0.00  0.00    +0.000 C 
BRANCH  18  19
ATOM     19  N   UNL     1       0.034  11.361  19.430  0.00  0.00    +0.000 N 
ATOM     20  C   UNL     1       0.427  12.569  18.919  0.00  0.00    +0.000 A 
ATOM     21  C   UNL     1      -0.680  13.049  18.258  0.00  0.00    +0.000 A 
ATOM     22  N   UNL     1      -1.724  12.167  18.351  0.00  0.00    +0.000 NA
ATOM     23  C   UNL     1      -1.265  11.158  19.057  0.00  0.00    +0.000 A 
ENDBRANCH  18  19
ENDBRANCH   4  18
TORSDOF 3
ENDMDL
MODEL 4
REMARK VINA RESULT:      -8.1      1.672      2.914
REMARK  Name = 
REMARK  3 active torsions:
REMARK  status: ('A' for Active; 'I' for Inactive)
REMARK    1  A    between atoms: C_4  and  C_5
REMARK    2  A    between atoms: C_8  and  C_9
REMARK    3  A    between atoms: C_9  and  N_10
REMARK                            x       y       z     vdW  Elec       q    Type
REMARK                         _______ _______ _______ _____ _____    ______ ____
ROOT
ATOM      1  C   UNL     1       2.525   7.165  18.678  0.00  0.00    +0.000 A 
ATOM      2  C   UNL     1       2.131   7.174  20.026  0.00  0.00    +0.000 A 
ATOM      3  C   UNL     1       1.471   8.270  20.600  0.00  0.00    +0.000 A 
ATOM      4  C   UNL     1       1.147   9.390  19.829  0.00  0.00    +0.000 A 
ATOM      5  C   UNL     1       1.564   9.420  18.495  0.00  0.00    +0.000 A 
ATOM      6  C   UNL     1       2.246   8.329  17.937  0.00  0.00    +0.000 A 
ENDROOT
BRANCH   1  10
ATOM      7  F   UNL     1       6.016   5.344  15.833  0.00  0.00    +0.000 F 
ATOM      8  C   UNL     1       4.939   5.114  16.596  0.00  0.00    +0.000 A 
ATOM      9  C   UNL     1       4.299   6.175  17.217  0.00  0.00    +0.000 A 
ATOM     10  C   UNL     1       3.168   5.972  18.040  0.00  0.00    +0.000 A 
ATOM     11  C   UNL     1       2.679   4.650  18.209  0.00  0.00    +0.000 A 
ATOM     12  N   UNL     1       1.601   4.373  18.981  0.00  0.00    +0.000 NA
ATOM     13  C   UNL     1       1.160   3.102  19.099  0.00  0.00    +0.000 A 
ATOM     14  C   UNL     1       1.754   2.028  18.476  0.00  0.00    +0.000 A 
ATOM     15  C   UNL     1       2.867   2.278  17.690  0.00  0.00    +0.000 A 
ATOM     16  C   UNL     1       3.347   3.586  17.544  0.00  0.00    +0.000 A 
ATOM     17  C   UNL     1       4.475   3.825  16.748  0.00  0.00    +0.000 A 
ENDBRANCH   1  10
BRANCH   4  18
ATOM     18  C   UNL     1       0.330  10.511  20.412  0.00  0.00    +0.000 C 
BRANCH  18  19
ATOM     19  N   UNL     1      -0.511  11.173  19.433  0.00  0.00    +0.000 N 
ATOM     20  C   UNL     1      -1.552  10.610  18.745  0.00  0.00    +0.000 A 
ATOM     21  C   UNL     1      -1.911  11.556  17.813  0.00  0.00    +0.000 A 
ATOM     22  N   UNL     1      -1.123  12.672  17.922  0.00  0.00    +0.000 NA
ATOM     23  C   UNL     1      -0.293  12.415  18.907  0.00  0.00    +0.000 A 
ENDBRANCH  18  19
ENDBRANCH   4  18
TORSDOF 3
ENDMDL
MODEL 5
REMARK VINA RESULT:      -8.0      1.825      3.027
REMARK  Name = 
REMARK  3 active torsions:
REMARK  status: ('A' for Active; 'I' for Inactive)
REMARK    1  A    between atoms: C_4  and  C_5
REMARK    2  A    between atoms: C_8  and  C_9
REMARK    3  A    between atoms: C_9  and  N_10
REMARK                            x       y       z     vdW  Elec       q    Type
REMARK                         _______ _______ _______ _____ _____    ______ ____
ROOT
ATOM      1  C   UNL     1       2.403   7.460  18.541  0.00  0.00    +0.000 A 
ATOM      2  C   UNL     1       1.891   8.515  17.767  0.00  0.00    +0.000 A 
ATOM      3  C   UNL     1       1.138   9.554  18.333  0.00  0.00    +0.000 A 
ATOM      4  C   UNL     1       0.900   9.594  19.710  0.00  0.00    +0.000 A 
ATOM      5  C   UNL     1       1.368   8.535  20.494  0.00  0.00    +0.000 A 
ATOM      6  C   UNL     1       2.097   7.487  19.915  0.00  0.00    +0.000 A 
ENDROOT
BRANCH   1  10
ATOM      7  F   UNL     1       6.482   6.195  16.226  0.00  0.00    +0.000 F 
ATOM      8  C   UNL     1       5.328   5.807  16.785  0.00  0.00    +0.000 A 
ATOM      9  C   UNL     1       4.485   6.754  17.346  0.00  0.00    +0.000 A 
ATOM     10  C   UNL     1       3.265   6.384  17.957  0.00  0.00    +0.000 A 
ATOM     11  C   UNL     1       2.902   5.012  17.973  0.00  0.00    +0.000 A 
ATOM     12  N   UNL     1       1.751   4.577  18.539  0.00  0.00    +0.000 NA
ATOM     13  C   UNL     1       1.437   3.264  18.514  0.00  0.00    +0.000 A 
ATOM     14  C   UNL     1       2.237   2.299  17.943  0.00  0.00    +0.000 A 
ATOM     15  C   UNL     1       3.427   2.712  17.368  0.00  0.00    +0.000 A 
ATOM     16  C   UNL     1       3.780   4.068  17.374  0.00  0.00    +0.000 A 
ATOM     17  C   UNL     1       4.987   4.471  16.790  0.00  0.00    +0.000 A 
ENDBRANCH   1  10
BRANCH   4  18
ATOM     18  C   UNL     1       0.202  10.772  20.333  0.00  0.00    +0.000 C 
BRANCH  18  19
ATOM     19  N   UNL     1       0.340  11.992  19.561  0.00  0.00    +0.000 N 
ATOM     20  C   UNL     1       1.422  12.830  19.554  0.00  0.00    +0.000 A 
ATOM     21  C   UNL     1       1.015  13.926  18.830  0.00  0.00    +0.000 A 
ATOM     22  N   UNL     1      -0.276  13.773  18.397  0.00  0.00    +0.000 NA
ATOM     23  C   UNL     1      -0.655  12.598  18.847  0.00  0.00    +0.000 A 
ENDBRANCH  18  19
ENDBRANCH   4  18
TORSDOF 3
ENDMDL
MODEL 6
REMARK VINA RESULT:      -8.0      1.702      3.038
REMARK  Name = 
REMARK  3 active torsions:
REMARK  status: ('A' for Active; 'I' for Inactive)
REMARK    1  A    between atoms: C_4  and  C_5
REMARK    2  A    between atoms: C_8  and  C_9
REMARK    3  A    between atoms: C_9  and  N_10
REMARK                            x       y       z     vdW  Elec       q    Type
REMARK                         _______ _______ _______ _____ _____    ______ ____
ROOT
ATOM      1  C   UNL     1       2.458   7.244  18.573  0.00  0.00    +0.000 A 
ATOM      2  C   UNL     1       2.078   8.376  17.833  0.00  0.00    +0.000 A 
ATOM      3  C   UNL     1       1.421   9.464  18.424  0.00  0.00    +0.000 A 
ATOM      4  C   UNL     1       1.150   9.474  19.796  0.00  0.00    +0.000 A 
ATOM      5  C   UNL     1       1.485   8.343  20.545  0.00  0.00    +0.000 A 
ATOM      6  C   UNL     1       2.119   7.247  19.940  0.00  0.00    +0.000 A 
ENDROOT
BRANCH   1  10
ATOM      7  F   UNL     1       6.259   5.707  15.968  0.00  0.00    +0.000 F 
ATOM      8  C   UNL     1       5.145   5.394  16.644  0.00  0.00    +0.000 A 
ATOM      9  C   UNL     1       4.395   6.398  17.233  0.00  0.00    +0.000 A 
ATOM     10  C   UNL     1       3.221   6.108  17.965  0.00  0.00    +0.000 A 
ATOM     11  C   UNL     1       2.806   4.755  18.074  0.00  0.00    +0.000 A 
ATOM     12  N   UNL     1       1.694   4.395  18.758  0.00  0.00    +0.000 NA
ATOM     13  C   UNL     1       1.327   3.096  18.820  0.00  0.00    +0.000 A 
ATOM     14  C   UNL     1       2.033   2.074  18.225  0.00  0.00    +0.000 A 
ATOM     15  C   UNL     1       3.183   2.410  17.530  0.00  0.00    +0.000 A 
ATOM     16  C   UNL     1       3.588   3.749  17.444  0.00  0.00    +0.000 A 
ATOM     17  C   UNL     1       4.754   4.075  16.739  0.00  0.00    +0.000 A 
ENDBRANCH   1  10
BRANCH   4  18
ATOM     18  C   UNL     1       0.560  10.693  20.451  0.00  0.00    +0.000 C 
BRANCH  18  19
ATOM     19  N   UNL     1      -0.287  11.465  19.563  0.00  0.00    +0.000 N 
ATOM     20  C   UNL     1      -1.501  11.080  19.059  0.00  0.00    +0.000 A 
ATOM     21  C   UNL     1      -1.822  12.045  18.134  0.00  0.00    +0.000 A 
ATOM     22  N   UNL     1      -0.843  13.002  18.068  0.00  0.00    +0.000 NA
ATOM     23  C   UNL     1       0.065  12.630  18.941  0.00  0.00    +0.000 A 
ENDBRANCH  18  19
ENDBRANCH   4  18
TORSDOF 3
ENDMDL
MODEL 7
REMARK VINA RESULT:      -7.9      1.211      1.656
REMARK  Name = 
REMARK  3 active torsions:
REMARK  status: ('A' for Active; 'I' for Inactive)
REMARK    1  A    between atoms: C_4  and  C_5
REMARK    2  A    between atoms: C_8  and  C_9
REMARK    3  A    between atoms: C_9  and  N_10
REMARK                            x       y       z     vdW  Elec       q    Type
REMARK                         _______ _______ _______ _____ _____    ______ ____
ROOT
ATOM      1  C   UNL     1       2.458   7.171  18.421  0.00  0.00    +0.000 A 
ATOM      2  C   UNL     1       2.111   7.402  19.763  0.00  0.00    +0.000 A 
ATOM      3  C   UNL     1       1.452   8.570  20.169  0.00  0.00    +0.000 A 
ATOM      4  C   UNL     1       1.080   9.541  19.235  0.00  0.00    +0.000 A 
ATOM      5  C   UNL     1       1.448   9.351  17.900  0.00  0.00    +0.000 A 
ATOM      6  C   UNL     1       2.132   8.191  17.506  0.00  0.00    +0.000 A 
ENDROOT
BRANCH   1  10
ATOM      7  F   UNL     1       2.081   2.413  17.519  0.00  0.00    +0.000 F 
ATOM      8  C   UNL     1       2.856   3.506  17.538  0.00  0.00    +0.000 A 
ATOM      9  C   UNL     1       2.321   4.718  17.945  0.00  0.00    +0.000 A 
ATOM     10  C   UNL     1       3.101   5.897  17.967  0.00  0.00    +0.000 A 
ATOM     11  C   UNL     1       4.463   5.817  17.577  0.00  0.00    +0.000 A 
ATOM     12  N   UNL     1       5.276   6.900  17.570  0.00  0.00    +0.000 NA
ATOM     13  C   UNL     1       6.572   6.774  17.209  0.00  0.00    +0.000 A 
ATOM     14  C   UNL     1       7.144   5.582  16.824  0.00  0.00    +0.000 A 
ATOM     15  C   UNL     1       6.333   4.459  16.808  0.00  0.00    +0.000 A 
ATOM     16  C   UNL     1       4.986   4.556  17.181  0.00  0.00    +0.000 A 
ATOM     17  C   UNL     1       4.178   3.412  17.160  0.00  0.00    +0.000 A 
ENDBRANCH   1  10
BRANCH   4  18
ATOM     18  C   UNL     1       0.262  10.733  19.652  0.00  0.00    +0.000 C 
BRANCH  18  19
ATOM     19  N   UNL     1       1.065  11.911  19.916  0.00  0.00    +0.000 N 
ATOM     20  C   UNL     1       1.765  12.640  18.993  0.00  0.00    +0.000 A 
ATOM     21  C   UNL     1       2.508  13.529  19.734  0.00  0.00    +0.000 A 
ATOM     22  N   UNL     1       2.273  13.362  21.074  0.00  0.00    +0.000 NA
ATOM     23  C   UNL     1       1.398  12.385  21.153  0.00  0.00    +0.000 A 
ENDBRANCH  18  19
ENDBRANCH   4  18
TORSDOF 3
ENDMDL
MODEL 8
REMARK VINA RESULT:      -7.9      2.092      3.196
REMARK  Name = 
REMARK  3 active torsions:
REMARK  status: ('A' for Active; 'I' for Inactive)
REMARK    1  A    between atoms: C_4  and  C_5
REMARK    2  A    between atoms: C_8  and  C_9
REMARK    3  A    between atoms: C_9  and  N_10
REMARK                            x       y       z     vdW  Elec       q    Type
REMARK                         _______ _______ _______ _____ _____    ______ ____
ROOT
ATOM      1  C   UNL     1       2.383   7.660  18.549  0.00  0.00    +0.000 A 
ATOM      2  C   UNL     1       2.023   7.708  19.906  0.00  0.00    +0.000 A 
ATOM      3  C   UNL     1       1.161   8.691  20.412  0.00  0.00    +0.000 A 
ATOM      4  C   UNL     1       0.594   9.647  19.565  0.00  0.00    +0.000 A 
ATOM      5  C   UNL     1       0.968   9.643  18.218  0.00  0.00    +0.000 A 
ATOM      6  C   UNL     1       1.852   8.672  17.725  0.00  0.00    +0.000 A 
ENDROOT
BRANCH   1  10
ATOM      7  F   UNL     1       6.504   6.347  16.337  0.00  0.00    +0.000 F 
ATOM      8  C   UNL     1       5.331   5.973  16.867  0.00  0.00    +0.000 A 
ATOM      9  C   UNL     1       4.486   6.929  17.407  0.00  0.00    +0.000 A 
ATOM     10  C   UNL     1       3.247   6.574  17.986  0.00  0.00    +0.000 A 
ATOM     11  C   UNL     1       2.867   5.206  17.993  0.00  0.00    +0.000 A 
ATOM     12  N   UNL     1       1.697   4.785  18.530  0.00  0.00    +0.000 NA
ATOM     13  C   UNL     1       1.368   3.475  18.496  0.00  0.00    +0.000 A 
ATOM     14  C   UNL     1       2.170   2.501  17.946  0.00  0.00    +0.000 A 
ATOM     15  C   UNL     1       3.380   2.900  17.401  0.00  0.00    +0.000 A 
ATOM     16  C   UNL     1       3.748   4.252  17.416  0.00  0.00    +0.000 A 
ATOM     17  C   UNL     1       4.975   4.641  16.863  0.00  0.00    +0.000 A 
ENDBRANCH   1  10
BRANCH   4  18
ATOM     18  C   UNL     1      -0.426  10.623  20.085  0.00  0.00    +0.000 C 
BRANCH  18  19
ATOM     19  N   UNL     1       0.166  11.774  20.738  0.00  0.00    +0.000 N 
ATOM     20  C   UNL     1      -0.483  12.677  21.537  0.00  0.00    +0.000 A 
ATOM     21  C   UNL     1       0.436  13.675  21.761  0.00  0.00    +0.000 A 
ATOM     22  N   UNL     1       1.620  13.399  21.127  0.00  0.00    +0.000 NA
ATOM     23  C   UNL     1       1.429  12.248  20.524  0.00  0.00    +0.000 A 
ENDBRANCH  18  19
ENDBRANCH   4  18
TORSDOF 3
ENDMDL
MODEL 9
REMARK VINA RESULT:      -7.8      4.169      7.956
REMARK  Name = 
REMARK  3 active torsions:
REMARK  status: ('A' for Active; 'I' for Inactive)
REMARK    1  A    between atoms: C_4  and  C_5
REMARK    2  A    between atoms: C_8  and  C_9
REMARK    3  A    between atoms: C_9  and  N_10
REMARK                            x       y       z     vdW  Elec       q    Type
REMARK                         _______ _______ _______ _____ _____    ______ ____
ROOT
ATOM      1  C   UNL     1       4.456   5.311  17.239  0.00  0.00    +0.000 A 
ATOM      2  C   UNL     1       4.834   6.317  16.335  0.00  0.00    +0.000 A 
ATOM      3  C   UNL     1       5.627   6.046  15.211  0.00  0.00    +0.000 A 
ATOM      4  C   UNL     1       6.042   4.741  14.929  0.00  0.00    +0.000 A 
ATOM      5  C   UNL     1       5.709   3.730  15.835  0.00  0.00    +0.000 A 
ATOM      6  C   UNL     1       4.938   4.016  16.972  0.00  0.00    +0.000 A 
ENDROOT
BRANCH   1  10
ATOM      7  F   UNL     1       1.667   8.428  19.711  0.00  0.00    +0.000 F 
ATOM      8  C   UNL     1       2.171   7.190  19.610  0.00  0.00    +0.000 A 
ATOM      9  C   UNL     1       3.011   6.876  18.553  0.00  0.00    +0.000 A 
ATOM     10  C   UNL     1       3.553   5.580  18.404  0.00  0.00    +0.000 A 
ATOM     11  C   UNL     1       3.235   4.594  19.375  0.00  0.00    +0.000 A 
ATOM     12  N   UNL     1       3.713   3.329  19.302  0.00  0.00    +0.000 NA
ATOM     13  C   UNL     1       3.399   2.429  20.260  0.00  0.00    +0.000 A 
ATOM     14  C   UNL     1       2.589   2.713  21.336  0.00  0.00    +0.000 A 
ATOM     15  C   UNL     1       2.073   3.995  21.430  0.00  0.00    +0.000 A 
ATOM     16  C   UNL     1       2.384   4.953  20.456  0.00  0.00    +0.000 A 
ATOM     17  C   UNL     1       1.855   6.245  20.562  0.00  0.00    +0.000 A 
ENDBRANCH   1  10
BRANCH   4  18
ATOM     18  C   UNL     1       6.784   4.430  13.658  0.00  0.00    +0.000 C 
BRANCH  18  19
ATOM     19  N   UNL     1       6.051   3.549  12.770  0.00  0.00    +0.000 N 
ATOM     20  C   UNL     1       6.561   2.478  12.086  0.00  0.00    +0.000 A 
ATOM     21  C   UNL     1       5.547   2.081  11.246  0.00  0.00    +0.000 A 
ATOM     22  N   UNL     1       4.441   2.875  11.406  0.00  0.00    +0.000 NA
ATOM     23  C   UNL     1       4.772   3.746  12.332  0.00  0.00    +0.000 A 
ENDBRANCH  18  19
ENDBRANCH   4  18
TORSDOF 3
ENDMDL
