MODEL 1
REMARK VINA RESULT:      -7.1      0.000      0.000
REMARK  Name = 
REMARK  2 active torsions:
REMARK  status: ('A' for Active; 'I' for Inactive)
REMARK    1  A    between atoms: C_2  and  C_3
REMARK    2  A    between atoms: N_12  and  C_13
REMARK                            x       y       z     vdW  Elec       q    Type
REMARK                         _______ _______ _______ _____ _____    ______ ____
ROOT
ATOM      1  O   UNL     1       4.658   3.637  20.106  0.00  0.00    +0.000 OA
ATOM      2  C   UNL     1       4.142   4.388  19.273  0.00  0.00    +0.000 C 
ATOM      3  N   UNL     1       4.759   4.619  18.047  0.00  0.00    +0.000 N 
ATOM      4  C   UNL     1       4.205   5.383  16.914  0.00  0.00    +0.000 C 
ATOM      5  C   UNL     1       5.282   6.173  16.144  0.00  0.00    +0.000 C 
ATOM      6  N   UNL     1       6.435   5.331  15.791  0.00  0.00    +0.000 N 
ATOM      7  C   UNL     1       7.022   4.590  16.925  0.00  0.00    +0.000 C 
ATOM      8  C   UNL     1       5.938   3.806  17.696  0.00  0.00    +0.000 C 
ENDROOT
BRANCH   6   9
ATOM      9  C   UNL     1       6.739   4.976  14.488  0.00  0.00    +0.000 A 
ATOM     10  C   UNL     1       7.782   5.619  13.803  0.00  0.00    +0.000 A 
ATOM     11  C   UNL     1       8.106   5.315  12.474  0.00  0.00    +0.000 A 
ATOM     12  C   UNL     1       7.386   4.345  11.780  0.00  0.00    +0.000 A 
ATOM     13  C   UNL     1       6.344   3.692  12.424  0.00  0.00    +0.000 A 
ATOM     14  C   UNL     1       6.026   4.006  13.747  0.00  0.00    +0.000 A 
ATOM     15  F   UNL     1       5.028   3.314  14.324  0.00  0.00    +0.000 F 
ENDBRANCH   6   9
BRANCH   2  16
ATOM     16  C   UNL     1       2.809   5.095  19.595  0.00  0.00    +0.000 C 
ATOM     17  C   UNL     1       1.711   4.801  18.566  0.00  0.00    +0.000 C 
ATOM     18  C   UNL     1       1.228   3.357  18.631  0.00  0.00    +0.000 C 
ATOM     19  C   UNL     1       0.703   2.981  20.009  0.00  0.00    +0.000 C 
ATOM     20  C   UNL     1       1.625   3.385  21.155  0.00  0.00    +0.000 C 
ATOM     21  C   UNL     1       2.280   4.761  21.005  0.00  0.00    +0.000 C 
ENDBRANCH   2  16
TORSDOF 2
ENDMDL
MODEL 2
REMARK VINA RESULT:      -7.1      1.044      1.477
REMARK  Name = 
REMARK  2 active torsions:
REMARK  status: ('A' for Active; 'I' for Inactive)
REMARK    1  A    between atoms: C_2  and  C_3
REMARK    2  A    between atoms: N_12  and  C_13
REMARK                            x       y       z     vdW  Elec       q    Type
REMARK                         _______ _______ _______ _____ _____    ______ ____
ROOT
ATOM      1  O   UNL     1       4.889   3.669  19.992  0.00  0.00    +0.000 OA
ATOM      2  C   UNL     1       4.314   4.383  19.165  0.00  0.00    +0.000 C 
ATOM      3  N   UNL     1       4.832   4.543  17.883  0.00  0.00    +0.000 N 
ATOM      4  C   UNL     1       4.194   5.254  16.760  0.00  0.00    +0.000 C 
ATOM      5  C   UNL     1       5.213   5.989  15.866  0.00  0.00    +0.000 C 
ATOM      6  N   UNL     1       6.326   5.116  15.465  0.00  0.00    +0.000 N 
ATOM      7  C   UNL     1       6.996   4.426  16.585  0.00  0.00    +0.000 C 
ATOM      8  C   UNL     1       5.971   3.697  17.481  0.00  0.00    +0.000 C 
ENDROOT
BRANCH   6   9
ATOM      9  C   UNL     1       6.519   4.690  14.162  0.00  0.00    +0.000 A 
ATOM     10  C   UNL     1       5.654   3.744  13.590  0.00  0.00    +0.000 A 
ATOM     11  C   UNL     1       5.827   3.261  12.286  0.00  0.00    +0.000 A 
ATOM     12  C   UNL     1       6.887   3.716  11.504  0.00  0.00    +0.000 A 
ATOM     13  C   UNL     1       7.766   4.648  12.039  0.00  0.00    +0.000 A 
ATOM     14  C   UNL     1       7.586   5.119  13.341  0.00  0.00    +0.000 A 
ATOM     15  F   UNL     1       8.453   6.046  13.788  0.00  0.00    +0.000 F 
ENDBRANCH   6   9
BRANCH   2  16
ATOM     16  C   UNL     1       3.018   5.122  19.556  0.00  0.00    +0.000 C 
ATOM     17  C   UNL     1       1.874   4.895  18.561  0.00  0.00    +0.000 C 
ATOM     18  C   UNL     1       1.346   3.465  18.603  0.00  0.00    +0.000 C 
ATOM     19  C   UNL     1       0.859   3.066  19.989  0.00  0.00    +0.000 C 
ATOM     20  C   UNL     1       1.835   3.406  21.111  0.00  0.00    +0.000 C 
ATOM     21  C   UNL     1       2.529   4.765  20.975  0.00  0.00    +0.000 C 
ENDBRANCH   2  16
TORSDOF 2
ENDMDL
MODEL 3
REMARK VINA RESULT:      -6.9      6.140      9.403
REMARK  Name = 
REMARK  2 active torsions:
REMARK  status: ('A' for Active; 'I' for Inactive)
REMARK    1  A    between atoms: C_2  and  C_3
REMARK    2  A    between atoms: N_12  and  C_13
REMARK                            x       y       z     vdW  Elec       q    Type
REMARK                         _______ _______ _______ _____ _____    ______ ____
ROOT
ATOM      1  O   UNL     1       2.719   7.548  17.778  0.00  0.00    +0.000 OA
ATOM      2  C   UNL     1       2.423   7.313  18.953  0.00  0.00    +0.000 C 
ATOM      3  N   UNL     1       1.721   8.247  19.709  0.00  0.00    +0.000 N 
ATOM      4  C   UNL     1       1.191   8.057  21.071  0.00  0.00    +0.000 C 
ATOM      5  C   UNL     1       1.264   9.340  21.923  0.00  0.00    +0.000 C 
ATOM      6  N   UNL     1       0.700  10.502  21.220  0.00  0.00    +0.000 N 
ATOM      7  C   UNL     1       1.249  10.724  19.868  0.00  0.00    +0.000 C 
ATOM      8  C   UNL     1       1.180   9.434  19.021  0.00  0.00    +0.000 C 
ENDROOT
BRANCH   6   9
ATOM      9  C   UNL     1      -0.473  11.125  21.613  0.00  0.00    +0.000 A 
ATOM     10  C   UNL     1      -1.123  12.020  20.749  0.00  0.00    +0.000 A 
ATOM     11  C   UNL     1      -2.294  12.698  21.113  0.00  0.00    +0.000 A 
ATOM     12  C   UNL     1      -2.858  12.498  22.371  0.00  0.00    +0.000 A 
ATOM     13  C   UNL     1      -2.239  11.622  23.254  0.00  0.00    +0.000 A 
ATOM     14  C   UNL     1      -1.070  10.956  22.882  0.00  0.00    +0.000 A 
ATOM     15  F   UNL     1      -0.539  10.098  23.770  0.00  0.00    +0.000 F 
ENDBRANCH   6   9
BRANCH   2  16
ATOM     16  C   UNL     1       2.849   5.980  19.603  0.00  0.00    +0.000 C 
ATOM     17  C   UNL     1       1.828   4.857  19.392  0.00  0.00    +0.000 C 
ATOM     18  C   UNL     1       1.766   4.396  17.940  0.00  0.00    +0.000 C 
ATOM     19  C   UNL     1       3.115   3.918  17.425  0.00  0.00    +0.000 C 
ATOM     20  C   UNL     1       4.269   4.867  17.731  0.00  0.00    +0.000 C 
ATOM     21  C   UNL     1       4.235   5.497  19.126  0.00  0.00    +0.000 C 
ENDBRANCH   2  16
TORSDOF 2
ENDMDL
MODEL 4
REMARK VINA RESULT:      -6.8      5.492      8.277
REMARK  Name = 
REMARK  2 active torsions:
REMARK  status: ('A' for Active; 'I' for Inactive)
REMARK    1  A    between atoms: C_2  and  C_3
REMARK    2  A    between atoms: N_12  and  C_13
REMARK                            x       y       z     vdW  Elec       q    Type
REMARK                         _______ _______ _______ _____ _____    ______ ____
ROOT
ATOM      1  O   UNL     1       3.888   7.128  17.336  0.00  0.00    +0.000 OA
ATOM      2  C   UNL     1       3.221   7.026  18.370  0.00  0.00    +0.000 C 
ATOM      3  N   UNL     1       2.276   7.992  18.704  0.00  0.00    +0.000 N 
ATOM      4  C   UNL     1       1.326   7.940  19.830  0.00  0.00    +0.000 C 
ATOM      5  C   UNL     1       1.068   9.326  20.455  0.00  0.00    +0.000 C 
ATOM      6  N   UNL     1       0.736  10.336  19.439  0.00  0.00    +0.000 N 
ATOM      7  C   UNL     1       1.701  10.423  18.325  0.00  0.00    +0.000 C 
ATOM      8  C   UNL     1       1.961   9.032  17.707  0.00  0.00    +0.000 C 
ENDROOT
BRANCH   6   9
ATOM      9  C   UNL     1      -0.519  10.910  19.327  0.00  0.00    +0.000 A 
ATOM     10  C   UNL     1      -0.927  11.903  20.231  0.00  0.00    +0.000 A 
ATOM     11  C   UNL     1      -2.197  12.491  20.177  0.00  0.00    +0.000 A 
ATOM     12  C   UNL     1      -3.112  12.098  19.202  0.00  0.00    +0.000 A 
ATOM     13  C   UNL     1      -2.744  11.114  18.293  0.00  0.00    +0.000 A 
ATOM     14  C   UNL     1      -1.477  10.532  18.360  0.00  0.00    +0.000 A 
ATOM     15  F   UNL     1      -1.172   9.609  17.430  0.00  0.00    +0.000 F 
ENDBRANCH   6   9
BRANCH   2  16
ATOM     16  C   UNL     1       3.445   5.828  19.317  0.00  0.00    +0.000 C 
ATOM     17  C   UNL     1       2.388   4.731  19.157  0.00  0.00    +0.000 C 
ATOM     18  C   UNL     1       2.509   3.999  17.825  0.00  0.00    +0.000 C 
ATOM     19  C   UNL     1       3.882   3.371  17.631  0.00  0.00    +0.000 C 
ATOM     20  C   UNL     1       5.043   4.310  17.937  0.00  0.00    +0.000 C 
ATOM     21  C   UNL     1       4.848   5.202  19.167  0.00  0.00    +0.000 C 
ENDBRANCH   2  16
TORSDOF 2
ENDMDL
MODEL 5
REMARK VINA RESULT:      -6.7      5.646      8.369
REMARK  Name = 
REMARK  2 active torsions:
REMARK  status: ('A' for Active; 'I' for Inactive)
REMARK    1  A    between atoms: C_2  and  C_3
REMARK    2  A    between atoms: N_12  and  C_13
REMARK                            x       y       z     vdW  Elec       q    Type
REMARK                         _______ _______ _______ _____ _____    ______ ____
ROOT
ATOM      1  O   UNL     1       3.996   7.004  17.342  0.00  0.00    +0.000 OA
ATOM      2  C   UNL     1       3.325   6.902  18.372  0.00  0.00    +0.000 C 
ATOM      3  N   UNL     1       2.357   7.852  18.686  0.00  0.00    +0.000 N 
ATOM      4  C   UNL     1       1.399   7.796  19.805  0.00  0.00    +0.000 C 
ATOM      5  C   UNL     1       1.106   9.184  20.409  0.00  0.00    +0.000 C 
ATOM      6  N   UNL     1       0.761  10.172  19.376  0.00  0.00    +0.000 N 
ATOM      7  C   UNL     1       1.731  10.264  18.268  0.00  0.00    +0.000 C 
ATOM      8  C   UNL     1       2.026   8.870  17.671  0.00  0.00    +0.000 C 
ENDROOT
BRANCH   6   9
ATOM      9  C   UNL     1      -0.506  10.717  19.247  0.00  0.00    +0.000 A 
ATOM     10  C   UNL     1      -1.351  10.305  18.205  0.00  0.00    +0.000 A 
ATOM     11  C   UNL     1      -2.629  10.849  18.016  0.00  0.00    +0.000 A 
ATOM     12  C   UNL     1      -3.106  11.836  18.876  0.00  0.00    +0.000 A 
ATOM     13  C   UNL     1      -2.294  12.272  19.916  0.00  0.00    +0.000 A 
ATOM     14  C   UNL     1      -1.021  11.726  20.091  0.00  0.00    +0.000 A 
ATOM     15  F   UNL     1      -0.299  12.167  21.137  0.00  0.00    +0.000 F 
ENDBRANCH   6   9
BRANCH   2  16
ATOM     16  C   UNL     1       3.567   5.723  19.337  0.00  0.00    +0.000 C 
ATOM     17  C   UNL     1       2.532   4.603  19.189  0.00  0.00    +0.000 C 
ATOM     18  C   UNL     1       2.674   3.854  17.869  0.00  0.00    +0.000 C 
ATOM     19  C   UNL     1       4.059   3.250  17.690  0.00  0.00    +0.000 C 
ATOM     20  C   UNL     1       5.201   4.216  17.987  0.00  0.00    +0.000 C 
ATOM     21  C   UNL     1       4.982   5.122  19.203  0.00  0.00    +0.000 C 
ENDBRANCH   2  16
TORSDOF 2
ENDMDL
MODEL 6
REMARK VINA RESULT:      -6.7      5.636      7.698
REMARK  Name = 
REMARK  2 active torsions:
REMARK  status: ('A' for Active; 'I' for Inactive)
REMARK    1  A    between atoms: C_2  and  C_3
REMARK    2  A    between atoms: N_12  and  C_13
REMARK                            x       y       z     vdW  Elec       q    Type
REMARK                         _______ _______ _______ _____ _____    ______ ____
ROOT
ATOM      1  O   UNL     1       2.045   5.655  20.808  0.00  0.00    +0.000 OA
ATOM      2  C   UNL     1       2.298   6.123  19.695  0.00  0.00    +0.000 C 
ATOM      3  N   UNL     1       2.017   7.455  19.404  0.00  0.00    +0.000 N 
ATOM      4  C   UNL     1       2.378   8.181  18.173  0.00  0.00    +0.000 C 
ATOM      5  C   UNL     1       1.307   9.208  17.753  0.00  0.00    +0.000 C 
ATOM      6  N   UNL     1       0.914  10.082  18.868  0.00  0.00    +0.000 N 
ATOM      7  C   UNL     1       0.516   9.365  20.096  0.00  0.00    +0.000 C 
ATOM      8  C   UNL     1       1.588   8.333  20.508  0.00  0.00    +0.000 C 
ENDROOT
BRANCH   6   9
ATOM      9  C   UNL     1       1.214  11.433  18.910  0.00  0.00    +0.000 A 
ATOM     10  C   UNL     1       2.378  11.920  18.296  0.00  0.00    +0.000 A 
ATOM     11  C   UNL     1       2.740  13.273  18.338  0.00  0.00    +0.000 A 
ATOM     12  C   UNL     1       1.935  14.194  19.005  0.00  0.00    +0.000 A 
ATOM     13  C   UNL     1       0.776  13.748  19.629  0.00  0.00    +0.000 A 
ATOM     14  C   UNL     1       0.430  12.396  19.585  0.00  0.00    +0.000 A 
ATOM     15  F   UNL     1      -0.721  12.034  20.180  0.00  0.00    +0.000 F 
ENDBRANCH   6   9
BRANCH   2  16
ATOM     16  C   UNL     1       2.916   5.225  18.604  0.00  0.00    +0.000 C 
ATOM     17  C   UNL     1       3.947   4.234  19.155  0.00  0.00    +0.000 C 
ATOM     18  C   UNL     1       3.306   3.148  20.012  0.00  0.00    +0.000 C 
ATOM     19  C   UNL     1       2.246   2.362  19.255  0.00  0.00    +0.000 C 
ATOM     20  C   UNL     1       1.248   3.233  18.500  0.00  0.00    +0.000 C 
ATOM     21  C   UNL     1       1.855   4.449  17.795  0.00  0.00    +0.000 C 
ENDBRANCH   2  16
TORSDOF 2
ENDMDL
MODEL 7
REMARK VINA RESULT:      -6.6      6.064      9.364
REMARK  Name = 
REMARK  2 active torsions:
REMARK  status: ('A' for Active; 'I' for Inactive)
REMARK    1  A    between atoms: C_2  and  C_3
REMARK    2  A    between atoms: N_12  and  C_13
REMARK                            x       y       z     vdW  Elec       q    Type
REMARK                         _______ _______ _______ _____ _____    ______ ____
ROOT
ATOM      1  O   UNL     1       2.738   7.582  17.826  0.00  0.00    +0.000 OA
ATOM      2  C   UNL     1       2.404   7.354  18.992  0.00  0.00    +0.000 C 
ATOM      3  N   UNL     1       1.688   8.298  19.723  0.00  0.00    +0.000 N 
ATOM      4  C   UNL     1       1.115   8.117  21.069  0.00  0.00    +0.000 C 
ATOM      5  C   UNL     1       1.176   9.402  21.920  0.00  0.00    +0.000 C 
ATOM      6  N   UNL     1       0.646  10.567  21.196  0.00  0.00    +0.000 N 
ATOM      7  C   UNL     1       1.239  10.780  19.861  0.00  0.00    +0.000 C 
ATOM      8  C   UNL     1       1.182   9.488  19.016  0.00  0.00    +0.000 C 
ENDROOT
BRANCH   6   9
ATOM      9  C   UNL     1      -0.531  11.205  21.551  0.00  0.00    +0.000 A 
ATOM     10  C   UNL     1      -1.002  11.138  22.871  0.00  0.00    +0.000 A 
ATOM     11  C   UNL     1      -2.202  11.741  23.271  0.00  0.00    +0.000 A 
ATOM     12  C   UNL     1      -2.978  12.439  22.348  0.00  0.00    +0.000 A 
ATOM     13  C   UNL     1      -2.545  12.522  21.031  0.00  0.00    +0.000 A 
ATOM     14  C   UNL     1      -1.350  11.913  20.643  0.00  0.00    +0.000 A 
ATOM     15  F   UNL     1      -0.971  12.058  19.361  0.00  0.00    +0.000 F 
ENDBRANCH   6   9
BRANCH   2  16
ATOM     16  C   UNL     1       2.794   6.018  19.658  0.00  0.00    +0.000 C 
ATOM     17  C   UNL     1       1.760   4.910  19.432  0.00  0.00    +0.000 C 
ATOM     18  C   UNL     1       1.721   4.441  17.982  0.00  0.00    +0.000 C 
ATOM     19  C   UNL     1       3.073   3.939  17.497  0.00  0.00    +0.000 C 
ATOM     20  C   UNL     1       4.235   4.871  17.823  0.00  0.00    +0.000 C 
ATOM     21  C   UNL     1       4.182   5.510  19.214  0.00  0.00    +0.000 C 
ENDBRANCH   2  16
TORSDOF 2
ENDMDL
MODEL 8
REMARK VINA RESULT:      -6.6      5.157      7.774
REMARK  Name = 
REMARK  2 active torsions:
REMARK  status: ('A' for Active; 'I' for Inactive)
REMARK    1  A    between atoms: C_2  and  C_3
REMARK    2  A    between atoms: N_12  and  C_13
REMARK                            x       y       z     vdW  Elec       q    Type
REMARK                         _______ _______ _______ _____ _____    ______ ____
ROOT
ATOM      1  O   UNL     1       3.679   5.540  17.810  0.00  0.00    +0.000 OA
ATOM      2  C   UNL     1       3.086   5.757  18.871  0.00  0.00    +0.000 C 
ATOM      3  N   UNL     1       2.330   6.914  19.038  0.00  0.00    +0.000 N 
ATOM      4  C   UNL     1       1.472   7.244  20.190  0.00  0.00    +0.000 C 
ATOM      5  C   UNL     1       1.481   8.749  20.527  0.00  0.00    +0.000 C 
ATOM      6  N   UNL     1       1.234   9.581  19.339  0.00  0.00    +0.000 N 
ATOM      7  C   UNL     1       2.112   9.284  18.191  0.00  0.00    +0.000 C 
ATOM      8  C   UNL     1       2.105   7.775  17.862  0.00  0.00    +0.000 C 
ENDROOT
BRANCH   6   9
ATOM      9  C   UNL     1       0.078  10.324  19.166  0.00  0.00    +0.000 A 
ATOM     10  C   UNL     1      -0.805  10.024  18.117  0.00  0.00    +0.000 A 
ATOM     11  C   UNL     1      -1.971  10.766  17.883  0.00  0.00    +0.000 A 
ATOM     12  C   UNL     1      -2.292  11.846  18.703  0.00  0.00    +0.000 A 
ATOM     13  C   UNL     1      -1.438  12.174  19.748  0.00  0.00    +0.000 A 
ATOM     14  C   UNL     1      -0.277  11.431  19.968  0.00  0.00    +0.000 A 
ATOM     15  F   UNL     1       0.490  11.780  21.017  0.00  0.00    +0.000 F 
ENDBRANCH   6   9
BRANCH   2  16
ATOM     16  C   UNL     1       3.192   4.748  20.033  0.00  0.00    +0.000 C 
ATOM     17  C   UNL     1       1.827   4.282  20.550  0.00  0.00    +0.000 C 
ATOM     18  C   UNL     1       1.097   3.399  19.545  0.00  0.00    +0.000 C 
ATOM     19  C   UNL     1       1.906   2.169  19.158  0.00  0.00    +0.000 C 
ATOM     20  C   UNL     1       3.355   2.470  18.790  0.00  0.00    +0.000 C 
ATOM     21  C   UNL     1       4.044   3.512  19.677  0.00  0.00    +0.000 C 
ENDBRANCH   2  16
TORSDOF 2
ENDMDL
MODEL 9
REMARK VINA RESULT:      -6.5      5.986      8.381
REMARK  Name = 
REMARK  2 active torsions:
REMARK  status: ('A' for Active; 'I' for Inactive)
REMARK    1  A    between atoms: C_2  and  C_3
REMARK    2  A    between atoms: N_12  and  C_13
REMARK                            x       y       z     vdW  Elec       q    Type
REMARK                         _______ _______ _______ _____ _____    ______ ____
ROOT
ATOM      1  O   UNL     1       2.253   6.003  20.398  0.00  0.00    +0.000 OA
ATOM      2  C   UNL     1       2.335   6.645  19.348  0.00  0.00    +0.000 C 
ATOM      3  N   UNL     1       1.858   7.951  19.274  0.00  0.00    +0.000 N 
ATOM      4  C   UNL     1       2.002   8.876  18.136  0.00  0.00    +0.000 C 
ATOM      5  C   UNL     1       0.772   9.789  17.952  0.00  0.00    +0.000 C 
ATOM      6  N   UNL     1       0.379  10.443  19.208  0.00  0.00    +0.000 N 
ATOM      7  C   UNL     1       0.197   9.522  20.347  0.00  0.00    +0.000 C 
ATOM      8  C   UNL     1       1.428   8.606  20.523  0.00  0.00    +0.000 C 
ENDROOT
BRANCH   6   9
ATOM      9  C   UNL     1       0.505  11.806  19.421  0.00  0.00    +0.000 A 
ATOM     10  C   UNL     1       1.414  12.293  20.373  0.00  0.00    +0.000 A 
ATOM     11  C   UNL     1       1.555  13.661  20.645  0.00  0.00    +0.000 A 
ATOM     12  C   UNL     1       0.779  14.596  19.962  0.00  0.00    +0.000 A 
ATOM     13  C   UNL     1      -0.134  14.149  19.015  0.00  0.00    +0.000 A 
ATOM     14  C   UNL     1      -0.269  12.784  18.757  0.00  0.00    +0.000 A 
ATOM     15  F   UNL     1      -1.147  12.420  17.805  0.00  0.00    +0.000 F 
ENDBRANCH   6   9
BRANCH   2  16
ATOM     16  C   UNL     1       2.956   5.995  18.094  0.00  0.00    +0.000 C 
ATOM     17  C   UNL     1       4.484   6.101  18.057  0.00  0.00    +0.000 C 
ATOM     18  C   UNL     1       5.151   5.235  19.120  0.00  0.00    +0.000 C 
ATOM     19  C   UNL     1       4.771   3.766  18.994  0.00  0.00    +0.000 C 
ATOM     20  C   UNL     1       3.274   3.524  18.838  0.00  0.00    +0.000 C 
ATOM     21  C   UNL     1       2.549   4.516  17.923  0.00  0.00    +0.000 C 
ENDBRANCH   2  16
TORSDOF 2
ENDMDL
