MODEL 1
REMARK VINA RESULT:      -7.4      0.000      0.000
REMARK  Name = 
REMARK  6 active torsions:
REMARK  status: ('A' for Active; 'I' for Inactive)
REMARK    1  A    between atoms: N_1  and  C_2
REMARK    2  A    between atoms: N_4  and  C_5
REMARK    3  A    between atoms: C_10  and  N_11
REMARK    4  A    between atoms: N_11  and  C_12
REMARK    5  A    between atoms: C_19  and  C_20
REMARK    6  A    between atoms: C_32  and  O_33
REMARK                            x       y       z     vdW  Elec       q    Type
REMARK                         _______ _______ _______ _____ _____    ______ ____
ROOT
ATOM      1  N   UNL     1      -1.485  11.705  19.608  0.00  0.00    +0.000 N 
ATOM      2  H   UNL     1      -0.737  12.330  19.294  0.00  0.00    +0.000 HD
ENDROOT
BRANCH   1   3
ATOM      3  C   UNL     1      -2.212  11.217  18.476  0.00  0.00    +0.000 A 
ATOM      4  C   UNL     1      -1.555  10.427  17.512  0.00  0.00    +0.000 A 
ATOM      5  C   UNL     1      -2.212  10.011  16.361  0.00  0.00    +0.000 A 
ATOM      6  C   UNL     1      -3.536  10.382  16.164  0.00  0.00    +0.000 A 
ATOM      7  C   UNL     1      -4.208  11.117  17.155  0.00  0.00    +0.000 A 
ATOM      8  C   UNL     1      -5.525  11.506  17.013  0.00  0.00    +0.000 A 
ATOM      9  N   UNL     1      -6.219  12.145  17.963  0.00  0.00    +0.000 NA
ATOM     10  C   UNL     1      -5.575  12.398  19.114  0.00  0.00    +0.000 A 
ATOM     11  N   UNL     1      -4.267  12.142  19.325  0.00  0.00    +0.000 NA
ATOM     12  C   UNL     1      -3.584  11.509  18.346  0.00  0.00    +0.000 A 
BRANCH  10  13
ATOM     13  C   UNL     1      -6.377  12.928  20.219  0.00  0.00    +0.000 A 
ATOM     14  C   UNL     1      -6.481  14.312  20.448  0.00  0.00    +0.000 A 
ATOM     15  F   UNL     1      -5.882  15.196  19.634  0.00  0.00    +0.000 F 
ATOM     16  C   UNL     1      -7.229  14.842  21.504  0.00  0.00    +0.000 A 
ATOM     17  C   UNL     1      -7.908  13.992  22.367  0.00  0.00    +0.000 A 
ATOM     18  C   UNL     1      -7.838  12.617  22.160  0.00  0.00    +0.000 A 
ATOM     19  C   UNL     1      -7.082  12.101  21.100  0.00  0.00    +0.000 A 
ATOM     20  F   UNL     1      -7.046  10.766  20.968  0.00  0.00    +0.000 F 
ENDBRANCH  10  13
ENDBRANCH   1   3
BRANCH   1  26
ATOM     21  C   UNL     1      -1.287  11.331  22.049  0.00  0.00    +0.000 A 
ATOM     22  C   UNL     1      -0.792  10.500  23.075  0.00  0.00    +0.000 A 
ATOM     23  C   UNL     1      -0.080   9.351  22.772  0.00  0.00    +0.000 A 
ATOM     24  N   UNL     1       0.203   8.969  21.519  0.00  0.00    +0.000 NA
ATOM     25  C   UNL     1      -0.275   9.768  20.536  0.00  0.00    +0.000 A 
ATOM     26  C   UNL     1      -1.045  10.930  20.717  0.00  0.00    +0.000 A 
BRANCH  21  29
ATOM     27  C   UNL     1      -2.578  14.804  22.035  0.00  0.00    +0.000 C 
ATOM     28  C   UNL     1      -1.445  13.811  22.418  0.00  0.00    +0.000 C 
ATOM     29  N   UNL     1      -2.013  12.456  22.445  0.00  0.00    +0.000 N 
ATOM     30  C   UNL     1      -2.988  12.256  23.518  0.00  0.00    +0.000 C 
ATOM     31  C   UNL     1      -4.207  13.124  23.224  0.00  0.00    +0.000 C 
ATOM     32  C   UNL     1      -3.846  14.582  22.912  0.00  0.00    +0.000 C 
BRANCH  27  33
ATOM     33  N   UNL     1      -2.858  14.711  20.580  0.00  0.00    +0.000 NA
ATOM     34  H   UNL     1      -2.325  15.441  20.100  0.00  0.00    +0.000 HD
ATOM     35  H   UNL     1      -2.524  13.827  20.203  0.00  0.00    +0.000 HD
ENDBRANCH  27  33
BRANCH  32  36
ATOM     36  O   UNL     1      -3.742  15.322  24.139  0.00  0.00    +0.000 OA
ATOM     37  H   UNL     1      -4.578  15.226  24.628  0.00  0.00    +0.000 HD
ENDBRANCH  32  36
ENDBRANCH  21  29
ENDBRANCH   1  26
TORSDOF 6
ENDMDL
MODEL 2
REMARK VINA RESULT:      -7.3      0.207      1.453
REMARK  Name = 
REMARK  6 active torsions:
REMARK  status: ('A' for Active; 'I' for Inactive)
REMARK    1  A    between atoms: N_1  and  C_2
REMARK    2  A    between atoms: N_4  and  C_5
REMARK    3  A    between atoms: C_10  and  N_11
REMARK    4  A    between atoms: N_11  and  C_12
REMARK    5  A    between atoms: C_19  and  C_20
REMARK    6  A    between atoms: C_32  and  O_33
REMARK                            x       y       z     vdW  Elec       q    Type
REMARK                         _______ _______ _______ _____ _____    ______ ____
ROOT
ATOM      1  N   UNL     1      -1.474  11.728  19.662  0.00  0.00    +0.000 N 
ATOM      2  H   UNL     1      -0.726  12.348  19.338  0.00  0.00    +0.000 HD
ENDROOT
BRANCH   1   3
ATOM      3  C   UNL     1      -2.212  11.235  18.540  0.00  0.00    +0.000 A 
ATOM      4  C   UNL     1      -1.588  10.372  17.618  0.00  0.00    +0.000 A 
ATOM      5  C   UNL     1      -2.251   9.947  16.474  0.00  0.00    +0.000 A 
ATOM      6  C   UNL     1      -3.550  10.380  16.243  0.00  0.00    +0.000 A 
ATOM      7  C   UNL     1      -4.194  11.190  17.194  0.00  0.00    +0.000 A 
ATOM      8  C   UNL     1      -5.485  11.644  17.017  0.00  0.00    +0.000 A 
ATOM      9  N   UNL     1      -6.156  12.357  17.931  0.00  0.00    +0.000 NA
ATOM     10  C   UNL     1      -5.514  12.622  19.081  0.00  0.00    +0.000 A 
ATOM     11  N   UNL     1      -4.224  12.304  19.321  0.00  0.00    +0.000 NA
ATOM     12  C   UNL     1      -3.564  11.595  18.378  0.00  0.00    +0.000 A 
BRANCH  10  13
ATOM     13  C   UNL     1      -6.299  13.238  20.152  0.00  0.00    +0.000 A 
ATOM     14  C   UNL     1      -7.005  12.456  21.084  0.00  0.00    +0.000 A 
ATOM     15  F   UNL     1      -6.949  11.115  21.046  0.00  0.00    +0.000 F 
ATOM     16  C   UNL     1      -7.772  13.020  22.107  0.00  0.00    +0.000 A 
ATOM     17  C   UNL     1      -7.849  14.402  22.233  0.00  0.00    +0.000 A 
ATOM     18  C   UNL     1      -7.150  15.205  21.337  0.00  0.00    +0.000 A 
ATOM     19  C   UNL     1      -6.389  14.625  20.315  0.00  0.00    +0.000 A 
ATOM     20  F   UNL     1      -5.753  15.459  19.477  0.00  0.00    +0.000 F 
ENDBRANCH  10  13
ENDBRANCH   1   3
BRANCH   1  26
ATOM     21  C   UNL     1      -1.272  11.364  22.105  0.00  0.00    +0.000 A 
ATOM     22  C   UNL     1      -0.771  10.540  23.133  0.00  0.00    +0.000 A 
ATOM     23  C   UNL     1      -0.053   9.395  22.833  0.00  0.00    +0.000 A 
ATOM     24  N   UNL     1       0.231   9.009  21.582  0.00  0.00    +0.000 NA
ATOM     25  C   UNL     1      -0.253   9.802  20.596  0.00  0.00    +0.000 A 
ATOM     26  C   UNL     1      -1.029  10.960  20.774  0.00  0.00    +0.000 A 
BRANCH  21  29
ATOM     27  C   UNL     1      -2.564  14.838  22.094  0.00  0.00    +0.000 C 
ATOM     28  C   UNL     1      -1.436  13.842  22.488  0.00  0.00    +0.000 C 
ATOM     29  N   UNL     1      -2.004  12.487  22.497  0.00  0.00    +0.000 N 
ATOM     30  C   UNL     1      -2.996  12.279  23.554  0.00  0.00    +0.000 C 
ATOM     31  C   UNL     1      -4.210  13.150  23.247  0.00  0.00    +0.000 C 
ATOM     32  C   UNL     1      -3.845  14.610  22.951  0.00  0.00    +0.000 C 
BRANCH  27  33
ATOM     33  N   UNL     1      -2.820  14.755  20.635  0.00  0.00    +0.000 NA
ATOM     34  H   UNL     1      -3.832  14.726  20.484  0.00  0.00    +0.000 HD
ATOM     35  H   UNL     1      -2.491  15.592  20.161  0.00  0.00    +0.000 HD
ENDBRANCH  27  33
BRANCH  32  36
ATOM     36  O   UNL     1      -3.759  15.341  24.184  0.00  0.00    +0.000 OA
ATOM     37  H   UNL     1      -4.084  14.770  24.903  0.00  0.00    +0.000 HD
ENDBRANCH  32  36
ENDBRANCH  21  29
ENDBRANCH   1  26
TORSDOF 6
ENDMDL
MODEL 3
REMARK VINA RESULT:      -6.9      2.380      5.337
REMARK  Name = 
REMARK  6 active torsions:
REMARK  status: ('A' for Active; 'I' for Inactive)
REMARK    1  A    between atoms: N_1  and  C_2
REMARK    2  A    between atoms: N_4  and  C_5
REMARK    3  A    between atoms: C_10  and  N_11
REMARK    4  A    between atoms: N_11  and  C_12
REMARK    5  A    between atoms: C_19  and  C_20
REMARK    6  A    between atoms: C_32  and  O_33
REMARK                            x       y       z     vdW  Elec       q    Type
REMARK                         _______ _______ _______ _____ _____    ______ ____
ROOT
ATOM      1  N   UNL     1      -4.328  12.288  19.116  0.00  0.00    +0.000 N 
ATOM      2  H   UNL     1      -4.366  13.296  18.940  0.00  0.00    +0.000 HD
ENDROOT
BRANCH   1   3
ATOM      3  C   UNL     1      -5.494  11.881  19.840  0.00  0.00    +0.000 A 
ATOM      4  C   UNL     1      -6.306  10.847  19.331  0.00  0.00    +0.000 A 
ATOM      5  C   UNL     1      -7.488  10.490  19.966  0.00  0.00    +0.000 A 
ATOM      6  C   UNL     1      -7.870  11.163  21.119  0.00  0.00    +0.000 A 
ATOM      7  C   UNL     1      -7.029  12.151  21.659  0.00  0.00    +0.000 A 
ATOM      8  C   UNL     1      -7.357  12.846  22.805  0.00  0.00    +0.000 A 
ATOM      9  N   UNL     1      -6.551  13.742  23.389  0.00  0.00    +0.000 NA
ATOM     10  C   UNL     1      -5.356  13.948  22.810  0.00  0.00    +0.000 A 
ATOM     11  N   UNL     1      -4.973  13.389  21.643  0.00  0.00    +0.000 NA
ATOM     12  C   UNL     1      -5.809  12.498  21.066  0.00  0.00    +0.000 A 
BRANCH  10  13
ATOM     13  C   UNL     1      -4.401  14.783  23.540  0.00  0.00    +0.000 A 
ATOM     14  C   UNL     1      -3.655  14.270  24.617  0.00  0.00    +0.000 A 
ATOM     15  F   UNL     1      -3.765  12.984  24.986  0.00  0.00    +0.000 F 
ATOM     16  C   UNL     1      -2.746  15.051  25.338  0.00  0.00    +0.000 A 
ATOM     17  C   UNL     1      -2.551  16.382  24.991  0.00  0.00    +0.000 A 
ATOM     18  C   UNL     1      -3.262  16.917  23.921  0.00  0.00    +0.000 A 
ATOM     19  C   UNL     1      -4.171  16.124  23.211  0.00  0.00    +0.000 A 
ATOM     20  F   UNL     1      -4.833  16.707  22.200  0.00  0.00    +0.000 F 
ENDBRANCH  10  13
ENDBRANCH   1   3
BRANCH   1  26
ATOM     21  C   UNL     1      -2.427  11.142  18.015  0.00  0.00    +0.000 A 
ATOM     22  C   UNL     1      -1.954  10.504  16.850  0.00  0.00    +0.000 A 
ATOM     23  C   UNL     1      -2.768  10.372  15.737  0.00  0.00    +0.000 A 
ATOM     24  N   UNL     1      -4.019  10.849  15.678  0.00  0.00    +0.000 NA
ATOM     25  C   UNL     1      -4.471  11.459  16.800  0.00  0.00    +0.000 A 
ATOM     26  C   UNL     1      -3.758  11.613  18.001  0.00  0.00    +0.000 A 
BRANCH  21  29
ATOM     27  C   UNL     1      -0.940  12.300  21.206  0.00  0.00    +0.000 C 
ATOM     28  C   UNL     1      -1.099  12.486  19.670  0.00  0.00    +0.000 C 
ATOM     29  N   UNL     1      -1.547  11.210  19.098  0.00  0.00    +0.000 N 
ATOM     30  C   UNL     1      -0.544  10.148  19.188  0.00  0.00    +0.000 C 
ATOM     31  C   UNL     1      -0.344   9.803  20.660  0.00  0.00    +0.000 C 
ATOM     32  C   UNL     1      -0.094  11.035  21.538  0.00  0.00    +0.000 C 
BRANCH  27  33
ATOM     33  N   UNL     1      -2.276  12.288  21.851  0.00  0.00    +0.000 NA
ATOM     34  H   UNL     1      -2.752  11.418  21.597  0.00  0.00    +0.000 HD
ATOM     35  H   UNL     1      -2.189  12.273  22.864  0.00  0.00    +0.000 HD
ENDBRANCH  27  33
BRANCH  32  36
ATOM     36  O   UNL     1       1.307  11.354  21.527  0.00  0.00    +0.000 OA
ATOM     37  H   UNL     1       1.622  11.327  20.606  0.00  0.00    +0.000 HD
ENDBRANCH  32  36
ENDBRANCH  21  29
ENDBRANCH   1  26
TORSDOF 6
ENDMDL
MODEL 4
REMARK VINA RESULT:      -6.8      2.160      4.075
REMARK  Name = 
REMARK  6 active torsions:
REMARK  status: ('A' for Active; 'I' for Inactive)
REMARK    1  A    between atoms: N_1  and  C_2
REMARK    2  A    between atoms: N_4  and  C_5
REMARK    3  A    between atoms: C_10  and  N_11
REMARK    4  A    between atoms: N_11  and  C_12
REMARK    5  A    between atoms: C_19  and  C_20
REMARK    6  A    between atoms: C_32  and  O_33
REMARK                            x       y       z     vdW  Elec       q    Type
REMARK                         _______ _______ _______ _____ _____    ______ ____
ROOT
ATOM      1  N   UNL     1      -3.690  12.330  18.831  0.00  0.00    +0.000 N 
ATOM      2  H   UNL     1      -3.833  13.040  18.107  0.00  0.00    +0.000 HD
ENDROOT
BRANCH   1   3
ATOM      3  C   UNL     1      -4.957  11.853  19.295  0.00  0.00    +0.000 A 
ATOM      4  C   UNL     1      -5.661  10.894  18.541  0.00  0.00    +0.000 A 
ATOM      5  C   UNL     1      -6.930  10.477  18.921  0.00  0.00    +0.000 A 
ATOM      6  C   UNL     1      -7.507  11.015  20.063  0.00  0.00    +0.000 A 
ATOM      7  C   UNL     1      -6.780  11.925  20.849  0.00  0.00    +0.000 A 
ATOM      8  C   UNL     1      -7.303  12.486  21.996  0.00  0.00    +0.000 A 
ATOM      9  N   UNL     1      -6.616  13.300  22.807  0.00  0.00    +0.000 NA
ATOM     10  C   UNL     1      -5.343  13.560  22.466  0.00  0.00    +0.000 A 
ATOM     11  N   UNL     1      -4.763  13.137  21.323  0.00  0.00    +0.000 NA
ATOM     12  C   UNL     1      -5.481  12.327  20.514  0.00  0.00    +0.000 A 
BRANCH  10  13
ATOM     13  C   UNL     1      -4.533  14.296  23.438  0.00  0.00    +0.000 A 
ATOM     14  C   UNL     1      -4.423  15.698  23.386  0.00  0.00    +0.000 A 
ATOM     15  F   UNL     1      -5.092  16.411  22.466  0.00  0.00    +0.000 F 
ATOM     16  C   UNL     1      -3.646  16.422  24.294  0.00  0.00    +0.000 A 
ATOM     17  C   UNL     1      -2.954  15.757  25.298  0.00  0.00    +0.000 A 
ATOM     18  C   UNL     1      -3.053  14.372  25.388  0.00  0.00    +0.000 A 
ATOM     19  C   UNL     1      -3.833  13.659  24.469  0.00  0.00    +0.000 A 
ATOM     20  F   UNL     1      -3.873  12.325  24.605  0.00  0.00    +0.000 F 
ENDBRANCH  10  13
ENDBRANCH   1   3
BRANCH   1  26
ATOM     21  C   UNL     1      -1.298  11.750  19.115  0.00  0.00    +0.000 A 
ATOM     22  C   UNL     1      -0.237  10.910  18.720  0.00  0.00    +0.000 A 
ATOM     23  C   UNL     1      -0.434   9.924  17.767  0.00  0.00    +0.000 A 
ATOM     24  N   UNL     1      -1.606   9.718  17.151  0.00  0.00    +0.000 NA
ATOM     25  C   UNL     1      -2.624  10.526  17.534  0.00  0.00    +0.000 A 
ATOM     26  C   UNL     1      -2.558  11.527  18.518  0.00  0.00    +0.000 A 
BRANCH  21  29
ATOM     27  C   UNL     1      -1.170  15.036  20.822  0.00  0.00    +0.000 C 
ATOM     28  C   UNL     1      -0.566  14.062  19.772  0.00  0.00    +0.000 C 
ATOM     29  N   UNL     1      -1.016  12.702  20.097  0.00  0.00    +0.000 N 
ATOM     30  C   UNL     1      -0.468  12.193  21.356  0.00  0.00    +0.000 C 
ATOM     31  C   UNL     1      -1.048  13.020  22.498  0.00  0.00    +0.000 C 
ATOM     32  C   UNL     1      -0.916  14.532  22.274  0.00  0.00    +0.000 C 
BRANCH  27  33
ATOM     33  N   UNL     1      -2.607  15.262  20.530  0.00  0.00    +0.000 NA
ATOM     34  H   UNL     1      -3.150  14.519  20.978  0.00  0.00    +0.000 HD
ATOM     35  H   UNL     1      -2.929  16.132  20.947  0.00  0.00    +0.000 HD
ENDBRANCH  27  33
BRANCH  32  36
ATOM     36  O   UNL     1       0.368  14.975  22.741  0.00  0.00    +0.000 OA
ATOM     37  H   UNL     1       0.722  15.620  22.103  0.00  0.00    +0.000 HD
ENDBRANCH  32  36
ENDBRANCH  21  29
ENDBRANCH   1  26
TORSDOF 6
ENDMDL
MODEL 5
REMARK VINA RESULT:      -6.8      2.433      5.280
REMARK  Name = 
REMARK  6 active torsions:
REMARK  status: ('A' for Active; 'I' for Inactive)
REMARK    1  A    between atoms: N_1  and  C_2
REMARK    2  A    between atoms: N_4  and  C_5
REMARK    3  A    between atoms: C_10  and  N_11
REMARK    4  A    between atoms: N_11  and  C_12
REMARK    5  A    between atoms: C_19  and  C_20
REMARK    6  A    between atoms: C_32  and  O_33
REMARK                            x       y       z     vdW  Elec       q    Type
REMARK                         _______ _______ _______ _____ _____    ______ ____
ROOT
ATOM      1  N   UNL     1      -4.401  12.412  19.353  0.00  0.00    +0.000 N 
ATOM      2  H   UNL     1      -4.419  13.422  19.184  0.00  0.00    +0.000 HD
ENDROOT
BRANCH   1   3
ATOM      3  C   UNL     1      -5.557  12.028  20.104  0.00  0.00    +0.000 A 
ATOM      4  C   UNL     1      -6.389  10.995  19.626  0.00  0.00    +0.000 A 
ATOM      5  C   UNL     1      -7.563  10.660  20.288  0.00  0.00    +0.000 A 
ATOM      6  C   UNL     1      -7.916  11.354  21.438  0.00  0.00    +0.000 A 
ATOM      7  C   UNL     1      -7.055  12.340  21.948  0.00  0.00    +0.000 A 
ATOM      8  C   UNL     1      -7.354  13.055  23.089  0.00  0.00    +0.000 A 
ATOM      9  N   UNL     1      -6.528  13.952  23.645  0.00  0.00    +0.000 NA
ATOM     10  C   UNL     1      -5.343  14.136  23.041  0.00  0.00    +0.000 A 
ATOM     11  N   UNL     1      -4.987  13.557  21.874  0.00  0.00    +0.000 NA
ATOM     12  C   UNL     1      -5.843  12.666  21.326  0.00  0.00    +0.000 A 
BRANCH  10  13
ATOM     13  C   UNL     1      -4.365  14.972  23.740  0.00  0.00    +0.000 A 
ATOM     14  C   UNL     1      -4.222  16.338  23.435  0.00  0.00    +0.000 A 
ATOM     15  F   UNL     1      -5.006  16.930  22.520  0.00  0.00    +0.000 F 
ATOM     16  C   UNL     1      -3.287  17.155  24.079  0.00  0.00    +0.000 A 
ATOM     17  C   UNL     1      -2.465  16.622  25.064  0.00  0.00    +0.000 A 
ATOM     18  C   UNL     1      -2.592  15.277  25.401  0.00  0.00    +0.000 A 
ATOM     19  C   UNL     1      -3.530  14.471  24.745  0.00  0.00    +0.000 A 
ATOM     20  F   UNL     1      -3.589  13.181  25.109  0.00  0.00    +0.000 F 
ENDBRANCH  10  13
ENDBRANCH   1   3
BRANCH   1  26
ATOM     21  C   UNL     1      -2.556  11.232  18.194  0.00  0.00    +0.000 A 
ATOM     22  C   UNL     1      -2.129  10.591  17.013  0.00  0.00    +0.000 A 
ATOM     23  C   UNL     1      -2.976  10.483  15.922  0.00  0.00    +0.000 A 
ATOM     24  N   UNL     1      -4.217  10.986  15.900  0.00  0.00    +0.000 NA
ATOM     25  C   UNL     1      -4.625  11.600  17.037  0.00  0.00    +0.000 A 
ATOM     26  C   UNL     1      -3.877  11.732  18.219  0.00  0.00    +0.000 A 
BRANCH  21  29
ATOM     27  C   UNL     1      -0.984  12.309  21.372  0.00  0.00    +0.000 C 
ATOM     28  C   UNL     1      -1.189  12.538  19.848  0.00  0.00    +0.000 C 
ATOM     29  N   UNL     1      -1.645  11.276  19.252  0.00  0.00    +0.000 N 
ATOM     30  C   UNL     1      -0.633  10.219  19.281  0.00  0.00    +0.000 C 
ATOM     31  C   UNL     1      -0.388   9.833  20.736  0.00  0.00    +0.000 C 
ATOM     32  C   UNL     1      -0.120  11.041  21.642  0.00  0.00    +0.000 C 
BRANCH  27  33
ATOM     33  N   UNL     1      -2.301  12.267  22.056  0.00  0.00    +0.000 NA
ATOM     34  H   UNL     1      -3.029  12.132  21.350  0.00  0.00    +0.000 HD
ATOM     35  H   UNL     1      -2.362  11.465  22.677  0.00  0.00    +0.000 HD
ENDBRANCH  27  33
BRANCH  32  36
ATOM     36  O   UNL     1       1.278  11.371  21.601  0.00  0.00    +0.000 OA
ATOM     37  H   UNL     1       1.755  10.635  21.176  0.00  0.00    +0.000 HD
ENDBRANCH  32  36
ENDBRANCH  21  29
ENDBRANCH   1  26
TORSDOF 6
ENDMDL
MODEL 6
REMARK VINA RESULT:      -6.8      2.839      5.286
REMARK  Name = 
REMARK  6 active torsions:
REMARK  status: ('A' for Active; 'I' for Inactive)
REMARK    1  A    between atoms: N_1  and  C_2
REMARK    2  A    between atoms: N_4  and  C_5
REMARK    3  A    between atoms: C_10  and  N_11
REMARK    4  A    between atoms: N_11  and  C_12
REMARK    5  A    between atoms: C_19  and  C_20
REMARK    6  A    between atoms: C_32  and  O_33
REMARK                            x       y       z     vdW  Elec       q    Type
REMARK                         _______ _______ _______ _____ _____    ______ ____
ROOT
ATOM      1  N   UNL     1      -1.542  13.380  22.051  0.00  0.00    +0.000 N 
ATOM      2  H   UNL     1      -1.138  13.917  21.277  0.00  0.00    +0.000 HD
ENDROOT
BRANCH   1   3
ATOM      3  C   UNL     1      -2.954  13.605  22.109  0.00  0.00    +0.000 A 
ATOM      4  C   UNL     1      -3.490  14.417  23.128  0.00  0.00    +0.000 A 
ATOM      5  C   UNL     1      -4.862  14.584  23.261  0.00  0.00    +0.000 A 
ATOM      6  C   UNL     1      -5.713  13.939  22.373  0.00  0.00    +0.000 A 
ATOM      7  C   UNL     1      -5.176  13.180  21.320  0.00  0.00    +0.000 A 
ATOM      8  C   UNL     1      -5.976  12.523  20.407  0.00  0.00    +0.000 A 
ATOM      9  N   UNL     1      -5.502  11.849  19.351  0.00  0.00    +0.000 NA
ATOM     10  C   UNL     1      -4.168  11.838  19.190  0.00  0.00    +0.000 A 
ATOM     11  N   UNL     1      -3.293  12.370  20.070  0.00  0.00    +0.000 NA
ATOM     12  C   UNL     1      -3.795  13.033  21.135  0.00  0.00    +0.000 A 
BRANCH  10  13
ATOM     13  C   UNL     1      -3.655  11.264  17.945  0.00  0.00    +0.000 A 
ATOM     14  C   UNL     1      -4.253  11.555  16.705  0.00  0.00    +0.000 A 
ATOM     15  F   UNL     1      -5.290  12.403  16.618  0.00  0.00    +0.000 F 
ATOM     16  C   UNL     1      -3.790  11.009  15.504  0.00  0.00    +0.000 A 
ATOM     17  C   UNL     1      -2.697  10.152  15.509  0.00  0.00    +0.000 A 
ATOM     18  C   UNL     1      -2.073   9.855  16.717  0.00  0.00    +0.000 A 
ATOM     19  C   UNL     1      -2.550  10.407  17.913  0.00  0.00    +0.000 A 
ATOM     20  F   UNL     1      -1.910  10.066  19.042  0.00  0.00    +0.000 F 
ENDBRANCH  10  13
ENDBRANCH   1   3
BRANCH   1  26
ATOM     21  C   UNL     1       0.177  11.751  21.321  0.00  0.00    +0.000 A 
ATOM     22  C   UNL     1       0.740  10.473  21.511  0.00  0.00    +0.000 A 
ATOM     23  C   UNL     1       0.242   9.617  22.479  0.00  0.00    +0.000 A 
ATOM     24  N   UNL     1      -0.797   9.923  23.268  0.00  0.00    +0.000 NA
ATOM     25  C   UNL     1      -1.335  11.153  23.085  0.00  0.00    +0.000 A 
ATOM     26  C   UNL     1      -0.890  12.121  22.169  0.00  0.00    +0.000 A 
BRANCH  21  29
ATOM     27  C   UNL     1       0.427  14.008  18.393  0.00  0.00    +0.000 C 
ATOM     28  C   UNL     1       0.288  12.562  18.946  0.00  0.00    +0.000 C 
ATOM     29  N   UNL     1       0.756  12.556  20.338  0.00  0.00    +0.000 N 
ATOM     30  C   UNL     1       2.192  12.811  20.470  0.00  0.00    +0.000 C 
ATOM     31  C   UNL     1       2.465  14.245  20.030  0.00  0.00    +0.000 C 
ATOM     32  C   UNL     1       1.848  14.584  18.667  0.00  0.00    +0.000 C 
BRANCH  27  33
ATOM     33  N   UNL     1      -0.658  14.861  18.937  0.00  0.00    +0.000 NA
ATOM     34  H   UNL     1      -1.554  14.398  18.763  0.00  0.00    +0.000 HD
ATOM     35  H   UNL     1      -0.580  14.946  19.948  0.00  0.00    +0.000 HD
ENDBRANCH  27  33
BRANCH  32  36
ATOM     36  O   UNL     1       2.755  14.199  17.622  0.00  0.00    +0.000 OA
ATOM     37  H   UNL     1       3.623  14.604  17.802  0.00  0.00    +0.000 HD
ENDBRANCH  32  36
ENDBRANCH  21  29
ENDBRANCH   1  26
TORSDOF 6
ENDMDL
MODEL 7
REMARK VINA RESULT:      -6.8      2.333      5.328
REMARK  Name = 
REMARK  6 active torsions:
REMARK  status: ('A' for Active; 'I' for Inactive)
REMARK    1  A    between atoms: N_1  and  C_2
REMARK    2  A    between atoms: N_4  and  C_5
REMARK    3  A    between atoms: C_10  and  N_11
REMARK    4  A    between atoms: N_11  and  C_12
REMARK    5  A    between atoms: C_19  and  C_20
REMARK    6  A    between atoms: C_32  and  O_33
REMARK                            x       y       z     vdW  Elec       q    Type
REMARK                         _______ _______ _______ _____ _____    ______ ____
ROOT
ATOM      1  N   UNL     1      -4.511  12.500  18.591  0.00  0.00    +0.000 N 
ATOM      2  H   UNL     1      -4.791  13.380  18.149  0.00  0.00    +0.000 HD
ENDROOT
BRANCH   1   3
ATOM      3  C   UNL     1      -5.513  12.090  19.526  0.00  0.00    +0.000 A 
ATOM      4  C   UNL     1      -6.471  11.129  19.147  0.00  0.00    +0.000 A 
ATOM      5  C   UNL     1      -7.506  10.775  20.003  0.00  0.00    +0.000 A 
ATOM      6  C   UNL     1      -7.591  11.379  21.251  0.00  0.00    +0.000 A 
ATOM      7  C   UNL     1      -6.599  12.290  21.652  0.00  0.00    +0.000 A 
ATOM      8  C   UNL     1      -6.632  12.914  22.883  0.00  0.00    +0.000 A 
ATOM      9  N   UNL     1      -5.671  13.732  23.329  0.00  0.00    +0.000 NA
ATOM     10  C   UNL     1      -4.620  13.930  22.515  0.00  0.00    +0.000 A 
ATOM     11  N   UNL     1      -4.530  13.442  21.260  0.00  0.00    +0.000 NA
ATOM     12  C   UNL     1      -5.520  12.630  20.827  0.00  0.00    +0.000 A 
BRANCH  10  13
ATOM     13  C   UNL     1      -3.485  14.672  23.067  0.00  0.00    +0.000 A 
ATOM     14  C   UNL     1      -2.425  14.011  23.714  0.00  0.00    +0.000 A 
ATOM     15  F   UNL     1      -2.401  12.672  23.812  0.00  0.00    +0.000 F 
ATOM     16  C   UNL     1      -1.337  14.697  24.261  0.00  0.00    +0.000 A 
ATOM     17  C   UNL     1      -1.273  16.082  24.166  0.00  0.00    +0.000 A 
ATOM     18  C   UNL     1      -2.298  16.766  23.518  0.00  0.00    +0.000 A 
ATOM     19  C   UNL     1      -3.383  16.065  22.978  0.00  0.00    +0.000 A 
ATOM     20  F   UNL     1      -4.342  16.788  22.381  0.00  0.00    +0.000 F 
ENDBRANCH  10  13
ENDBRANCH   1   3
BRANCH   1  26
ATOM     21  C   UNL     1      -2.472  11.388  17.727  0.00  0.00    +0.000 A 
ATOM     22  C   UNL     1      -1.917  10.560  16.730  0.00  0.00    +0.000 A 
ATOM     23  C   UNL     1      -2.705  10.062  15.707  0.00  0.00    +0.000 A 
ATOM     24  N   UNL     1      -4.010  10.340  15.579  0.00  0.00    +0.000 NA
ATOM     25  C   UNL     1      -4.541  11.134  16.540  0.00  0.00    +0.000 A 
ATOM     26  C   UNL     1      -3.855  11.662  17.647  0.00  0.00    +0.000 A 
BRANCH  21  29
ATOM     27  C   UNL     1      -0.545  13.719  19.868  0.00  0.00    +0.000 C 
ATOM     28  C   UNL     1      -0.660  12.930  18.534  0.00  0.00    +0.000 C 
ATOM     29  N   UNL     1      -1.609  11.827  18.734  0.00  0.00    +0.000 N 
ATOM     30  C   UNL     1      -1.127  10.807  19.667  0.00  0.00    +0.000 C 
ATOM     31  C   UNL     1      -1.042  11.432  21.056  0.00  0.00    +0.000 C 
ATOM     32  C   UNL     1      -0.282  12.764  21.070  0.00  0.00    +0.000 C 
BRANCH  27  33
ATOM     33  N   UNL     1      -1.748  14.567  20.056  0.00  0.00    +0.000 NA
ATOM     34  H   UNL     1      -2.578  13.969  20.011  0.00  0.00    +0.000 HD
ATOM     35  H   UNL     1      -1.756  14.986  20.982  0.00  0.00    +0.000 HD
ENDBRANCH  27  33
BRANCH  32  36
ATOM     36  O   UNL     1       1.126  12.511  21.209  0.00  0.00    +0.000 OA
ATOM     37  H   UNL     1       1.545  12.617  20.336  0.00  0.00    +0.000 HD
ENDBRANCH  32  36
ENDBRANCH  21  29
ENDBRANCH   1  26
TORSDOF 6
ENDMDL
MODEL 8
REMARK VINA RESULT:      -6.8      2.844      5.353
REMARK  Name = 
REMARK  6 active torsions:
REMARK  status: ('A' for Active; 'I' for Inactive)
REMARK    1  A    between atoms: N_1  and  C_2
REMARK    2  A    between atoms: N_4  and  C_5
REMARK    3  A    between atoms: C_10  and  N_11
REMARK    4  A    between atoms: N_11  and  C_12
REMARK    5  A    between atoms: C_19  and  C_20
REMARK    6  A    between atoms: C_32  and  O_33
REMARK                            x       y       z     vdW  Elec       q    Type
REMARK                         _______ _______ _______ _____ _____    ______ ____
ROOT
ATOM      1  N   UNL     1      -1.622  13.279  21.951  0.00  0.00    +0.000 N 
ATOM      2  H   UNL     1      -1.269  13.775  21.127  0.00  0.00    +0.000 HD
ENDROOT
BRANCH   1   3
ATOM      3  C   UNL     1      -3.039  13.455  22.050  0.00  0.00    +0.000 A 
ATOM      4  C   UNL     1      -3.576  14.218  23.105  0.00  0.00    +0.000 A 
ATOM      5  C   UNL     1      -4.949  14.335  23.276  0.00  0.00    +0.000 A 
ATOM      6  C   UNL     1      -5.800  13.689  22.389  0.00  0.00    +0.000 A 
ATOM      7  C   UNL     1      -5.265  12.979  21.300  0.00  0.00    +0.000 A 
ATOM      8  C   UNL     1      -6.065  12.324  20.387  0.00  0.00    +0.000 A 
ATOM      9  N   UNL     1      -5.595  11.698  19.299  0.00  0.00    +0.000 NA
ATOM     10  C   UNL     1      -4.266  11.737  19.107  0.00  0.00    +0.000 A 
ATOM     11  N   UNL     1      -3.388  12.271  19.982  0.00  0.00    +0.000 NA
ATOM     12  C   UNL     1      -3.885  12.885  21.078  0.00  0.00    +0.000 A 
BRANCH  10  13
ATOM     13  C   UNL     1      -3.766  11.217  17.833  0.00  0.00    +0.000 A 
ATOM     14  C   UNL     1      -2.653  10.357  17.781  0.00  0.00    +0.000 A 
ATOM     15  F   UNL     1      -2.038   9.952  18.903  0.00  0.00    +0.000 F 
ATOM     16  C   UNL     1      -2.148   9.859  16.577  0.00  0.00    +0.000 A 
ATOM     17  C   UNL     1      -2.754  10.205  15.376  0.00  0.00    +0.000 A 
ATOM     18  C   UNL     1      -3.867  11.041  15.393  0.00  0.00    +0.000 A 
ATOM     19  C   UNL     1      -4.359  11.536  16.607  0.00  0.00    +0.000 A 
ATOM     20  F   UNL     1      -5.425  12.349  16.548  0.00  0.00    +0.000 F 
ENDBRANCH  10  13
ENDBRANCH   1   3
BRANCH   1  26
ATOM     21  C   UNL     1       0.189  11.709  21.323  0.00  0.00    +0.000 A 
ATOM     22  C   UNL     1       0.805  10.465  21.572  0.00  0.00    +0.000 A 
ATOM     23  C   UNL     1       0.320   9.620  22.555  0.00  0.00    +0.000 A 
ATOM     24  N   UNL     1      -0.754   9.903  23.306  0.00  0.00    +0.000 NA
ATOM     25  C   UNL     1      -1.343  11.099  23.066  0.00  0.00    +0.000 A 
ATOM     26  C   UNL     1      -0.917  12.056  22.130  0.00  0.00    +0.000 A 
BRANCH  21  29
ATOM     27  C   UNL     1       0.410  13.927  18.363  0.00  0.00    +0.000 C 
ATOM     28  C   UNL     1       0.289  12.487  18.937  0.00  0.00    +0.000 C 
ATOM     29  N   UNL     1       0.758  12.507  20.329  0.00  0.00    +0.000 N 
ATOM     30  C   UNL     1       2.191  12.781  20.456  0.00  0.00    +0.000 C 
ATOM     31  C   UNL     1       2.446  14.213  19.996  0.00  0.00    +0.000 C 
ATOM     32  C   UNL     1       1.824  14.525  18.629  0.00  0.00    +0.000 C 
BRANCH  27  33
ATOM     33  N   UNL     1      -0.685  14.774  18.896  0.00  0.00    +0.000 NA
ATOM     34  H   UNL     1      -0.563  14.864  19.908  0.00  0.00    +0.000 HD
ATOM     35  H   UNL     1      -0.628  15.718  18.523  0.00  0.00    +0.000 HD
ENDBRANCH  27  33
BRANCH  32  36
ATOM     36  O   UNL     1       2.735  14.136  17.588  0.00  0.00    +0.000 OA
ATOM     37  H   UNL     1       3.601  13.947  17.993  0.00  0.00    +0.000 HD
ENDBRANCH  32  36
ENDBRANCH  21  29
ENDBRANCH   1  26
TORSDOF 6
ENDMDL
MODEL 9
REMARK VINA RESULT:      -6.3      2.241      5.073
REMARK  Name = 
REMARK  6 active torsions:
REMARK  status: ('A' for Active; 'I' for Inactive)
REMARK    1  A    between atoms: N_1  and  C_2
REMARK    2  A    between atoms: N_4  and  C_5
REMARK    3  A    between atoms: C_10  and  N_11
REMARK    4  A    between atoms: N_11  and  C_12
REMARK    5  A    between atoms: C_19  and  C_20
REMARK    6  A    between atoms: C_32  and  O_33
REMARK                            x       y       z     vdW  Elec       q    Type
REMARK                         _______ _______ _______ _____ _____    ______ ____
ROOT
ATOM      1  N   UNL     1      -4.235  12.433  18.475  0.00  0.00    +0.000 N 
ATOM      2  H   UNL     1      -4.048  13.428  18.631  0.00  0.00    +0.000 HD
ENDROOT
BRANCH   1   3
ATOM      3  C   UNL     1      -3.004  11.704  18.482  0.00  0.00    +0.000 A 
ATOM      4  C   UNL     1      -2.586  11.026  17.320  0.00  0.00    +0.000 A 
ATOM      5  C   UNL     1      -1.441  10.240  17.323  0.00  0.00    +0.000 A 
ATOM      6  C   UNL     1      -0.699  10.127  18.492  0.00  0.00    +0.000 A 
ATOM      7  C   UNL     1      -1.081  10.854  19.632  0.00  0.00    +0.000 A 
ATOM      8  C   UNL     1      -0.377  10.782  20.817  0.00  0.00    +0.000 A 
ATOM      9  N   UNL     1      -0.668  11.512  21.902  0.00  0.00    +0.000 NA
ATOM     10  C   UNL     1      -1.703  12.362  21.798  0.00  0.00    +0.000 A 
ATOM     11  N   UNL     1      -2.511  12.446  20.720  0.00  0.00    +0.000 NA
ATOM     12  C   UNL     1      -2.205  11.689  19.643  0.00  0.00    +0.000 A 
BRANCH  10  13
ATOM     13  C   UNL     1      -1.912  13.291  22.910  0.00  0.00    +0.000 A 
ATOM     14  C   UNL     1      -0.978  14.301  23.204  0.00  0.00    +0.000 A 
ATOM     15  F   UNL     1       0.117  14.473  22.447  0.00  0.00    +0.000 F 
ATOM     16  C   UNL     1      -1.148  15.192  24.268  0.00  0.00    +0.000 A 
ATOM     17  C   UNL     1      -2.276  15.100  25.074  0.00  0.00    +0.000 A 
ATOM     18  C   UNL     1      -3.227  14.121  24.801  0.00  0.00    +0.000 A 
ATOM     19  C   UNL     1      -3.041  13.234  23.734  0.00  0.00    +0.000 A 
ATOM     20  F   UNL     1      -3.991  12.306  23.538  0.00  0.00    +0.000 F 
ENDBRANCH  10  13
ENDBRANCH   1   3
BRANCH   1  26
ATOM     21  C   UNL     1      -6.169  12.950  19.935  0.00  0.00    +0.000 A 
ATOM     22  C   UNL     1      -7.338  12.462  20.554  0.00  0.00    +0.000 A 
ATOM     23  C   UNL     1      -7.728  11.144  20.387  0.00  0.00    +0.000 A 
ATOM     24  N   UNL     1      -7.032  10.255  19.666  0.00  0.00    +0.000 NA
ATOM     25  C   UNL     1      -5.910  10.727  19.071  0.00  0.00    +0.000 A 
ATOM     26  C   UNL     1      -5.438  12.049  19.130  0.00  0.00    +0.000 A 
BRANCH  21  29
ATOM     27  C   UNL     1      -4.251  15.954  20.947  0.00  0.00    +0.000 C 
ATOM     28  C   UNL     1      -5.185  14.778  21.349  0.00  0.00    +0.000 C 
ATOM     29  N   UNL     1      -5.863  14.297  20.138  0.00  0.00    +0.000 N 
ATOM     30  C   UNL     1      -6.800  15.269  19.572  0.00  0.00    +0.000 C 
ATOM     31  C   UNL     1      -6.000  16.461  19.057  0.00  0.00    +0.000 C 
ATOM     32  C   UNL     1      -5.009  17.011  20.090  0.00  0.00    +0.000 C 
BRANCH  27  33
ATOM     33  N   UNL     1      -3.038  15.426  20.275  0.00  0.00    +0.000 NA
ATOM     34  H   UNL     1      -2.542  16.207  19.837  0.00  0.00    +0.000 HD
ATOM     35  H   UNL     1      -2.391  15.030  20.953  0.00  0.00    +0.000 HD
ENDBRANCH  27  33
BRANCH  32  36
ATOM     36  O   UNL     1      -5.678  17.957  20.939  0.00  0.00    +0.000 OA
ATOM     37  H   UNL     1      -5.446  17.759  21.864  0.00  0.00    +0.000 HD
ENDBRANCH  32  36
ENDBRANCH  21  29
ENDBRANCH   1  26
TORSDOF 6
ENDMDL
