MODEL 1
REMARK VINA RESULT:      -8.1      0.000      0.000
REMARK  Name = 
REMARK  7 active torsions:
REMARK  status: ('A' for Active; 'I' for Inactive)
REMARK    1  A    between atoms: C_1  and  O_2
REMARK    2  A    between atoms: O_2  and  C_3
REMARK    3  A    between atoms: C_7  and  C_8
REMARK    4  A    between atoms: C_11  and  N_12
REMARK    5  A    between atoms: N_12  and  C_13
REMARK    6  A    between atoms: C_13  and  C_14
REMARK    7  A    between atoms: N_17  and  C_18
REMARK                            x       y       z     vdW  Elec       q    Type
REMARK                         _______ _______ _______ _____ _____    ______ ____
ROOT
ATOM      1  C   UNL     1       1.973   6.930  20.121  0.00  0.00    +0.000 A 
ATOM      2  N   UNL     1       2.442   6.358  19.021  0.00  0.00    +0.000 NA
ATOM      3  C   UNL     1       2.632   5.022  19.339  0.00  0.00    +0.000 A 
ATOM      4  C   UNL     1       3.093   3.937  18.543  0.00  0.00    +0.000 A 
ATOM      5  C   UNL     1       3.141   2.706  19.247  0.00  0.00    +0.000 A 
ATOM      6 CL   UNL     1       3.618   1.185  18.562  0.00  0.00    +0.000 Cl
ATOM      7  C   UNL     1       2.754   2.635  20.595  0.00  0.00    +0.000 A 
ATOM      8  N   UNL     1       2.327   3.662  21.364  0.00  0.00    +0.000 NA
ATOM      9  C   UNL     1       2.302   4.802  20.663  0.00  0.00    +0.000 A 
ATOM     10  N   UNL     1       1.930   6.017  21.151  0.00  0.00    +0.000 N 
ATOM     11  H   UNL     1       1.648   6.193  22.100  0.00  0.00    +0.000 HD
ENDROOT
BRANCH   1  16
ATOM     12  C   UNL     1       0.648  10.099  21.688  0.00  0.00    +0.000 A 
ATOM     13  C   UNL     1       0.531  10.919  20.565  0.00  0.00    +0.000 A 
ATOM     14  C   UNL     1       0.901  10.449  19.304  0.00  0.00    +0.000 A 
ATOM     15  C   UNL     1       1.384   9.145  19.157  0.00  0.00    +0.000 A 
ATOM     16  C   UNL     1       1.512   8.310  20.272  0.00  0.00    +0.000 A 
ATOM     17  C   UNL     1       1.144   8.802  21.534  0.00  0.00    +0.000 A 
BRANCH  12  19
ATOM     18  C   UNL     1      -1.169  10.801  23.050  0.00  0.00    +0.000 C 
ATOM     19  O   UNL     1       0.236  10.651  22.871  0.00  0.00    +0.000 OA
ENDBRANCH  12  19
ENDBRANCH   1  16
BRANCH   4  20
ATOM     20  N   UNL     1       3.447   4.186  17.226  0.00  0.00    +0.000 N 
ATOM     21  H   UNL     1       2.734   4.661  16.673  0.00  0.00    +0.000 HD
BRANCH  20  22
ATOM     22  C   UNL     1       4.639   3.684  16.576  0.00  0.00    +0.000 C 
BRANCH  22  23
ATOM     23  C   UNL     1       5.856   4.613  16.660  0.00  0.00    +0.000 C 
ATOM     24  C   UNL     1       6.582   4.538  18.009  0.00  0.00    +0.000 C 
ATOM     25  C   UNL     1       7.648   5.631  18.128  0.00  0.00    +0.000 C 
ATOM     26  N   UNL     1       7.068   6.966  17.941  0.00  0.00    +0.000 NA
ATOM     27  C   UNL     1       8.089   7.999  18.122  0.00  0.00    +0.000 C 
ATOM     28  C   UNL     1       6.450   7.093  16.618  0.00  0.00    +0.000 C 
ATOM     29  C   UNL     1       5.353   6.051  16.428  0.00  0.00    +0.000 C 
ENDBRANCH  22  23
ENDBRANCH  20  22
ENDBRANCH   4  20
TORSDOF 5
ENDMDL
MODEL 2
REMARK VINA RESULT:      -7.8      0.692      1.168
REMARK  Name = 
REMARK  7 active torsions:
REMARK  status: ('A' for Active; 'I' for Inactive)
REMARK    1  A    between atoms: C_1  and  O_2
REMARK    2  A    between atoms: O_2  and  C_3
REMARK    3  A    between atoms: C_7  and  C_8
REMARK    4  A    between atoms: C_11  and  N_12
REMARK    5  A    between atoms: N_12  and  C_13
REMARK    6  A    between atoms: C_13  and  C_14
REMARK    7  A    between atoms: N_17  and  C_18
REMARK                            x       y       z     vdW  Elec       q    Type
REMARK                         _______ _______ _______ _____ _____    ______ ____
ROOT
ATOM      1  C   UNL     1       2.123   6.761  19.748  0.00  0.00    +0.000 A 
ATOM      2  N   UNL     1       2.632   6.099  18.720  0.00  0.00    +0.000 NA
ATOM      3  C   UNL     1       2.808   4.794  19.156  0.00  0.00    +0.000 A 
ATOM      4  C   UNL     1       3.297   3.647  18.472  0.00  0.00    +0.000 A 
ATOM      5  C   UNL     1       3.317   2.480  19.278  0.00  0.00    +0.000 A 
ATOM      6 CL   UNL     1       3.818   0.907  18.743  0.00  0.00    +0.000 Cl
ATOM      7  C   UNL     1       2.879   2.522  20.612  0.00  0.00    +0.000 A 
ATOM      8  N   UNL     1       2.425   3.609  21.276  0.00  0.00    +0.000 NA
ATOM      9  C   UNL     1       2.429   4.686  20.480  0.00  0.00    +0.000 A 
ATOM     10  N   UNL     1       2.040   5.937  20.850  0.00  0.00    +0.000 N 
ATOM     11  H   UNL     1       1.722   6.192  21.769  0.00  0.00    +0.000 HD
ENDROOT
BRANCH   1  16
ATOM     12  C   UNL     1       0.578   9.993  20.939  0.00  0.00    +0.000 A 
ATOM     13  C   UNL     1       0.671  10.770  19.786  0.00  0.00    +0.000 A 
ATOM     14  C   UNL     1       1.254  10.252  18.628  0.00  0.00    +0.000 A 
ATOM     15  C   UNL     1       1.741   8.941  18.616  0.00  0.00    +0.000 A 
ATOM     16  C   UNL     1       1.658   8.148  19.765  0.00  0.00    +0.000 A 
ATOM     17  C   UNL     1       1.077   8.688  20.924  0.00  0.00    +0.000 A 
BRANCH  12  19
ATOM     18  C   UNL     1      -0.238   9.778  23.162  0.00  0.00    +0.000 C 
ATOM     19  O   UNL     1      -0.032  10.591  22.010  0.00  0.00    +0.000 OA
ENDBRANCH  12  19
ENDBRANCH   1  16
BRANCH   4  20
ATOM     20  N   UNL     1       3.701   3.785  17.153  0.00  0.00    +0.000 N 
ATOM     21  H   UNL     1       3.027   3.458  16.462  0.00  0.00    +0.000 HD
BRANCH  20  22
ATOM     22  C   UNL     1       5.026   4.185  16.727  0.00  0.00    +0.000 C 
BRANCH  22  23
ATOM     23  C   UNL     1       5.573   5.436  17.421  0.00  0.00    +0.000 C 
ATOM     24  C   UNL     1       5.436   6.707  16.575  0.00  0.00    +0.000 C 
ATOM     25  C   UNL     1       6.186   7.882  17.208  0.00  0.00    +0.000 C 
ATOM     26  N   UNL     1       7.605   7.563  17.412  0.00  0.00    +0.000 NA
ATOM     27  C   UNL     1       8.316   8.719  17.959  0.00  0.00    +0.000 C 
ATOM     28  C   UNL     1       7.764   6.407  18.299  0.00  0.00    +0.000 C 
ATOM     29  C   UNL     1       7.063   5.180  17.724  0.00  0.00    +0.000 C 
ENDBRANCH  22  23
ENDBRANCH  20  22
ENDBRANCH   4  20
TORSDOF 5
ENDMDL
MODEL 3
REMARK VINA RESULT:      -7.7      4.522      8.638
REMARK  Name = 
REMARK  7 active torsions:
REMARK  status: ('A' for Active; 'I' for Inactive)
REMARK    1  A    between atoms: C_1  and  O_2
REMARK    2  A    between atoms: O_2  and  C_3
REMARK    3  A    between atoms: C_7  and  C_8
REMARK    4  A    between atoms: C_11  and  N_12
REMARK    5  A    between atoms: N_12  and  C_13
REMARK    6  A    between atoms: C_13  and  C_14
REMARK    7  A    between atoms: N_17  and  C_18
REMARK                            x       y       z     vdW  Elec       q    Type
REMARK                         _______ _______ _______ _____ _____    ______ ____
ROOT
ATOM      1  C   UNL     1       2.315   6.929  19.358  0.00  0.00    +0.000 A 
ATOM      2  N   UNL     1       1.715   7.908  18.696  0.00  0.00    +0.000 NA
ATOM      3  C   UNL     1       1.259   8.795  19.659  0.00  0.00    +0.000 A 
ATOM      4  C   UNL     1       0.566  10.031  19.527  0.00  0.00    +0.000 A 
ATOM      5  C   UNL     1       0.280  10.648  20.772  0.00  0.00    +0.000 A 
ATOM      6 CL   UNL     1      -0.517  12.177  20.965  0.00  0.00    +0.000 Cl
ATOM      7  C   UNL     1       0.672  10.046  21.978  0.00  0.00    +0.000 A 
ATOM      8  N   UNL     1       1.318   8.867  22.117  0.00  0.00    +0.000 NA
ATOM      9  C   UNL     1       1.564   8.318  20.920  0.00  0.00    +0.000 A 
ATOM     10  N   UNL     1       2.189   7.126  20.716  0.00  0.00    +0.000 N 
ATOM     11  H   UNL     1       2.522   6.519  21.445  0.00  0.00    +0.000 HD
ENDROOT
BRANCH   1  16
ATOM     12  C   UNL     1       5.143   4.567  18.538  0.00  0.00    +0.000 A 
ATOM     13  C   UNL     1       4.516   3.708  17.636  0.00  0.00    +0.000 A 
ATOM     14  C   UNL     1       3.170   3.884  17.311  0.00  0.00    +0.000 A 
ATOM     15  C   UNL     1       2.443   4.933  17.882  0.00  0.00    +0.000 A 
ATOM     16  C   UNL     1       3.055   5.802  18.791  0.00  0.00    +0.000 A 
ATOM     17  C   UNL     1       4.407   5.605  19.114  0.00  0.00    +0.000 A 
BRANCH  12  19
ATOM     18  C   UNL     1       7.379   4.704  17.741  0.00  0.00    +0.000 C 
ATOM     19  O   UNL     1       6.471   4.319  18.769  0.00  0.00    +0.000 OA
ENDBRANCH  12  19
ENDBRANCH   1  16
BRANCH   4  20
ATOM     20  N   UNL     1       0.244  10.476  18.254  0.00  0.00    +0.000 N 
ATOM     21  H   UNL     1       0.793  11.269  17.926  0.00  0.00    +0.000 HD
BRANCH  20  22
ATOM     22  C   UNL     1      -0.885  10.015  17.474  0.00  0.00    +0.000 C 
BRANCH  22  23
ATOM     23  C   UNL     1      -2.062  10.994  17.406  0.00  0.00    +0.000 C 
ATOM     24  C   UNL     1      -2.844  11.091  18.721  0.00  0.00    +0.000 C 
ATOM     25  C   UNL     1      -4.129  11.905  18.546  0.00  0.00    +0.000 C 
ATOM     26  N   UNL     1      -4.981  11.339  17.493  0.00  0.00    +0.000 NA
ATOM     27  C   UNL     1      -6.231  12.093  17.384  0.00  0.00    +0.000 C 
ATOM     28  C   UNL     1      -4.286  11.325  16.202  0.00  0.00    +0.000 C 
ATOM     29  C   UNL     1      -3.001  10.508  16.285  0.00  0.00    +0.000 C 
ENDBRANCH  22  23
ENDBRANCH  20  22
ENDBRANCH   4  20
TORSDOF 5
ENDMDL
MODEL 4
REMARK VINA RESULT:      -7.7      4.625      8.834
REMARK  Name = 
REMARK  7 active torsions:
REMARK  status: ('A' for Active; 'I' for Inactive)
REMARK    1  A    between atoms: C_1  and  O_2
REMARK    2  A    between atoms: O_2  and  C_3
REMARK    3  A    between atoms: C_7  and  C_8
REMARK    4  A    between atoms: C_11  and  N_12
REMARK    5  A    between atoms: N_12  and  C_13
REMARK    6  A    between atoms: C_13  and  C_14
REMARK    7  A    between atoms: N_17  and  C_18
REMARK                            x       y       z     vdW  Elec       q    Type
REMARK                         _______ _______ _______ _____ _____    ______ ____
ROOT
ATOM      1  C   UNL     1       2.408   7.212  18.794  0.00  0.00    +0.000 A 
ATOM      2  N   UNL     1       1.712   8.230  18.311  0.00  0.00    +0.000 NA
ATOM      3  C   UNL     1       1.250   8.933  19.413  0.00  0.00    +0.000 A 
ATOM      4  C   UNL     1       0.473  10.122  19.495  0.00  0.00    +0.000 A 
ATOM      5  C   UNL     1       0.212  10.531  20.828  0.00  0.00    +0.000 A 
ATOM      6 CL   UNL     1      -0.670  11.954  21.279  0.00  0.00    +0.000 Cl
ATOM      7  C   UNL     1       0.706   9.790  21.915  0.00  0.00    +0.000 A 
ATOM      8  N   UNL     1       1.434   8.653  21.849  0.00  0.00    +0.000 NA
ATOM      9  C   UNL     1       1.651   8.302  20.575  0.00  0.00    +0.000 A 
ATOM     10  N   UNL     1       2.342   7.201  20.171  0.00  0.00    +0.000 N 
ATOM     11  H   UNL     1       2.751   6.520  20.787  0.00  0.00    +0.000 HD
ENDROOT
BRANCH   1  16
ATOM     12  C   UNL     1       5.009   5.736  16.490  0.00  0.00    +0.000 A 
ATOM     13  C   UNL     1       4.635   4.393  16.497  0.00  0.00    +0.000 A 
ATOM     14  C   UNL     1       3.552   3.964  17.265  0.00  0.00    +0.000 A 
ATOM     15  C   UNL     1       2.826   4.884  18.028  0.00  0.00    +0.000 A 
ATOM     16  C   UNL     1       3.189   6.235  18.036  0.00  0.00    +0.000 A 
ATOM     17  C   UNL     1       4.287   6.648  17.264  0.00  0.00    +0.000 A 
BRANCH  12  19
ATOM     18  C   UNL     1       6.950   4.986  15.340  0.00  0.00    +0.000 C 
ATOM     19  O   UNL     1       6.071   6.053  15.685  0.00  0.00    +0.000 OA
ENDBRANCH  12  19
ENDBRANCH   1  16
BRANCH   4  20
ATOM     20  N   UNL     1       0.056  10.722  18.317  0.00  0.00    +0.000 N 
ATOM     21  H   UNL     1       0.503  11.615  18.109  0.00  0.00    +0.000 HD
BRANCH  20  22
ATOM     22  C   UNL     1      -1.045  10.265  17.496  0.00  0.00    +0.000 C 
BRANCH  22  23
ATOM     23  C   UNL     1      -2.260  11.199  17.472  0.00  0.00    +0.000 C 
ATOM     24  C   UNL     1      -2.974  11.296  18.825  0.00  0.00    +0.000 C 
ATOM     25  C   UNL     1      -4.297  12.059  18.703  0.00  0.00    +0.000 C 
ATOM     26  N   UNL     1      -5.182  11.439  17.710  0.00  0.00    +0.000 NA
ATOM     27  C   UNL     1      -6.463  12.143  17.654  0.00  0.00    +0.000 C 
ATOM     28  C   UNL     1      -4.557  11.421  16.384  0.00  0.00    +0.000 C 
ATOM     29  C   UNL     1      -3.239  10.654  16.414  0.00  0.00    +0.000 C 
ENDBRANCH  22  23
ENDBRANCH  20  22
ENDBRANCH   4  20
TORSDOF 5
ENDMDL
MODEL 5
REMARK VINA RESULT:      -7.6      0.997      1.669
REMARK  Name = 
REMARK  7 active torsions:
REMARK  status: ('A' for Active; 'I' for Inactive)
REMARK    1  A    between atoms: C_1  and  O_2
REMARK    2  A    between atoms: O_2  and  C_3
REMARK    3  A    between atoms: C_7  and  C_8
REMARK    4  A    between atoms: C_11  and  N_12
REMARK    5  A    between atoms: N_12  and  C_13
REMARK    6  A    between atoms: C_13  and  C_14
REMARK    7  A    between atoms: N_17  and  C_18
REMARK                            x       y       z     vdW  Elec       q    Type
REMARK                         _______ _______ _______ _____ _____    ______ ____
ROOT
ATOM      1  C   UNL     1       1.941   6.869  20.218  0.00  0.00    +0.000 A 
ATOM      2  N   UNL     1       2.385   6.308  19.103  0.00  0.00    +0.000 NA
ATOM      3  C   UNL     1       2.608   4.975  19.410  0.00  0.00    +0.000 A 
ATOM      4  C   UNL     1       3.062   3.900  18.596  0.00  0.00    +0.000 A 
ATOM      5  C   UNL     1       3.154   2.668  19.294  0.00  0.00    +0.000 A 
ATOM      6 CL   UNL     1       3.635   1.158  18.590  0.00  0.00    +0.000 Cl
ATOM      7  C   UNL     1       2.811   2.587  20.653  0.00  0.00    +0.000 A 
ATOM      8  N   UNL     1       2.390   3.604  21.440  0.00  0.00    +0.000 NA
ATOM      9  C   UNL     1       2.324   4.746  20.743  0.00  0.00    +0.000 A 
ATOM     10  N   UNL     1       1.947   5.952  21.247  0.00  0.00    +0.000 N 
ATOM     11  H   UNL     1       1.691   6.121  22.205  0.00  0.00    +0.000 HD
ENDROOT
BRANCH   1  16
ATOM     12  C   UNL     1       1.032  10.453  19.455  0.00  0.00    +0.000 A 
ATOM     13  C   UNL     1       0.640  10.900  20.717  0.00  0.00    +0.000 A 
ATOM     14  C   UNL     1       0.653  10.032  21.810  0.00  0.00    +0.000 A 
ATOM     15  C   UNL     1       1.069   8.707  21.647  0.00  0.00    +0.000 A 
ATOM     16  C   UNL     1       1.461   8.241  20.389  0.00  0.00    +0.000 A 
ATOM     17  C   UNL     1       1.434   9.125  19.298  0.00  0.00    +0.000 A 
BRANCH  12  19
ATOM     18  C   UNL     1       1.736  12.591  18.691  0.00  0.00    +0.000 C 
ATOM     19  O   UNL     1       1.004  11.392  18.458  0.00  0.00    +0.000 OA
ENDBRANCH  12  19
ENDBRANCH   1  16
BRANCH   4  20
ATOM     20  N   UNL     1       3.370   4.159  17.269  0.00  0.00    +0.000 N 
ATOM     21  H   UNL     1       2.631   4.620  16.740  0.00  0.00    +0.000 HD
BRANCH  20  22
ATOM     22  C   UNL     1       4.552   3.682  16.582  0.00  0.00    +0.000 C 
BRANCH  22  23
ATOM     23  C   UNL     1       5.730   4.662  16.577  0.00  0.00    +0.000 C 
ATOM     24  C   UNL     1       6.608   4.560  17.829  0.00  0.00    +0.000 C 
ATOM     25  C   UNL     1       7.635   5.695  17.884  0.00  0.00    +0.000 C 
ATOM     26  N   UNL     1       6.983   7.009  17.833  0.00  0.00    +0.000 NA
ATOM     27  C   UNL     1       7.974   8.078  17.950  0.00  0.00    +0.000 C 
ATOM     28  C   UNL     1       6.213   7.168  16.596  0.00  0.00    +0.000 C 
ATOM     29  C   UNL     1       5.145   6.085  16.476  0.00  0.00    +0.000 C 
ENDBRANCH  22  23
ENDBRANCH  20  22
ENDBRANCH   4  20
TORSDOF 5
ENDMDL
MODEL 6
REMARK VINA RESULT:      -7.6      4.583      8.349
REMARK  Name = 
REMARK  7 active torsions:
REMARK  status: ('A' for Active; 'I' for Inactive)
REMARK    1  A    between atoms: C_1  and  O_2
REMARK    2  A    between atoms: O_2  and  C_3
REMARK    3  A    between atoms: C_7  and  C_8
REMARK    4  A    between atoms: C_11  and  N_12
REMARK    5  A    between atoms: N_12  and  C_13
REMARK    6  A    between atoms: C_13  and  C_14
REMARK    7  A    between atoms: N_17  and  C_18
REMARK                            x       y       z     vdW  Elec       q    Type
REMARK                         _______ _______ _______ _____ _____    ______ ____
ROOT
ATOM      1  C   UNL     1       1.708   8.082  19.845  0.00  0.00    +0.000 A 
ATOM      2  N   UNL     1       0.968   9.118  19.479  0.00  0.00    +0.000 NA
ATOM      3  C   UNL     1       0.428   9.633  20.647  0.00  0.00    +0.000 A 
ATOM      4  C   UNL     1      -0.422  10.753  20.861  0.00  0.00    +0.000 A 
ATOM      5  C   UNL     1      -0.751  10.955  22.226  0.00  0.00    +0.000 A 
ATOM      6 CL   UNL     1      -1.733  12.250  22.833  0.00  0.00    +0.000 Cl
ATOM      7  C   UNL     1      -0.249  10.098  23.219  0.00  0.00    +0.000 A 
ATOM      8  N   UNL     1       0.549   9.023  23.027  0.00  0.00    +0.000 NA
ATOM      9  C   UNL     1       0.829   8.867  21.726  0.00  0.00    +0.000 A 
ATOM     10  N   UNL     1       1.597   7.874  21.202  0.00  0.00    +0.000 N 
ATOM     11  H   UNL     1       2.027   7.137  21.735  0.00  0.00    +0.000 HD
ENDROOT
BRANCH   1  16
ATOM     12  C   UNL     1       3.695   5.148  18.542  0.00  0.00    +0.000 A 
ATOM     13  C   UNL     1       4.303   5.717  17.423  0.00  0.00    +0.000 A 
ATOM     14  C   UNL     1       4.051   7.046  17.081  0.00  0.00    +0.000 A 
ATOM     15  C   UNL     1       3.193   7.821  17.867  0.00  0.00    +0.000 A 
ATOM     16  C   UNL     1       2.572   7.266  18.991  0.00  0.00    +0.000 A 
ATOM     17  C   UNL     1       2.829   5.924  19.315  0.00  0.00    +0.000 A 
BRANCH  12  19
ATOM     18  C   UNL     1       3.432   3.250  19.950  0.00  0.00    +0.000 C 
ATOM     19  O   UNL     1       4.028   3.844  18.800  0.00  0.00    +0.000 OA
ENDBRANCH  12  19
ENDBRANCH   1  16
BRANCH   4  20
ATOM     20  N   UNL     1      -0.836  11.489  19.761  0.00  0.00    +0.000 N 
ATOM     21  H   UNL     1      -0.087  11.957  19.252  0.00  0.00    +0.000 HD
BRANCH  20  22
ATOM     22  C   UNL     1      -2.215  11.758  19.413  0.00  0.00    +0.000 C 
BRANCH  22  23
ATOM     23  C   UNL     1      -2.766  10.903  18.266  0.00  0.00    +0.000 C 
ATOM     24  C   UNL     1      -1.682  10.425  17.293  0.00  0.00    +0.000 C 
ATOM     25  C   UNL     1      -2.297   9.766  16.055  0.00  0.00    +0.000 C 
ATOM     26  N   UNL     1      -3.222  10.676  15.369  0.00  0.00    +0.000 NA
ATOM     27  C   UNL     1      -3.750  10.051  14.155  0.00  0.00    +0.000 C 
ATOM     28  C   UNL     1      -4.323  11.073  16.252  0.00  0.00    +0.000 C 
ATOM     29  C   UNL     1      -3.795  11.763  17.504  0.00  0.00    +0.000 C 
ENDBRANCH  22  23
ENDBRANCH  20  22
ENDBRANCH   4  20
TORSDOF 5
ENDMDL
MODEL 7
REMARK VINA RESULT:      -7.6      1.771      2.544
REMARK  Name = 
REMARK  7 active torsions:
REMARK  status: ('A' for Active; 'I' for Inactive)
REMARK    1  A    between atoms: C_1  and  O_2
REMARK    2  A    between atoms: O_2  and  C_3
REMARK    3  A    between atoms: C_7  and  C_8
REMARK    4  A    between atoms: C_11  and  N_12
REMARK    5  A    between atoms: N_12  and  C_13
REMARK    6  A    between atoms: C_13  and  C_14
REMARK    7  A    between atoms: N_17  and  C_18
REMARK                            x       y       z     vdW  Elec       q    Type
REMARK                         _______ _______ _______ _____ _____    ______ ____
ROOT
ATOM      1  C   UNL     1       2.505   6.585  19.768  0.00  0.00    +0.000 A 
ATOM      2  N   UNL     1       3.545   5.962  19.233  0.00  0.00    +0.000 NA
ATOM      3  C   UNL     1       3.564   4.697  19.799  0.00  0.00    +0.000 A 
ATOM      4  C   UNL     1       4.441   3.598  19.583  0.00  0.00    +0.000 A 
ATOM      5  C   UNL     1       4.115   2.459  20.364  0.00  0.00    +0.000 A 
ATOM      6 CL   UNL     1       4.956   0.942  20.313  0.00  0.00    +0.000 Cl
ATOM      7  C   UNL     1       3.020   2.481  21.243  0.00  0.00    +0.000 A 
ATOM      8  N   UNL     1       2.188   3.523  21.466  0.00  0.00    +0.000 NA
ATOM      9  C   UNL     1       2.535   4.576  20.714  0.00  0.00    +0.000 A 
ATOM     10  N   UNL     1       1.904   5.782  20.713  0.00  0.00    +0.000 N 
ATOM     11  H   UNL     1       1.117   6.020  21.292  0.00  0.00    +0.000 HD
ENDROOT
BRANCH   1  16
ATOM     12  C   UNL     1       0.668   9.875  19.998  0.00  0.00    +0.000 A 
ATOM     13  C   UNL     1       0.917  10.405  18.732  0.00  0.00    +0.000 A 
ATOM     14  C   UNL     1       1.697   9.703  17.812  0.00  0.00    +0.000 A 
ATOM     15  C   UNL     1       2.228   8.454  18.153  0.00  0.00    +0.000 A 
ATOM     16  C   UNL     1       1.992   7.910  19.419  0.00  0.00    +0.000 A 
ATOM     17  C   UNL     1       1.212   8.634  20.335  0.00  0.00    +0.000 A 
BRANCH  12  19
ATOM     18  C   UNL     1       0.313  11.965  21.075  0.00  0.00    +0.000 C 
ATOM     19  O   UNL     1      -0.128  10.635  20.814  0.00  0.00    +0.000 OA
ENDBRANCH  12  19
ENDBRANCH   1  16
BRANCH   4  20
ATOM     20  N   UNL     1       5.485   3.751  18.684  0.00  0.00    +0.000 N 
ATOM     21  H   UNL     1       6.005   2.898  18.481  0.00  0.00    +0.000 HD
BRANCH  20  22
ATOM     22  C   UNL     1       5.964   5.019  18.175  0.00  0.00    +0.000 C 
BRANCH  22  23
ATOM     23  C   UNL     1       5.911   5.159  16.649  0.00  0.00    +0.000 C 
ATOM     24  C   UNL     1       4.879   4.235  15.992  0.00  0.00    +0.000 C 
ATOM     25  C   UNL     1       5.012   4.248  14.467  0.00  0.00    +0.000 C 
ATOM     26  N   UNL     1       6.366   3.871  14.044  0.00  0.00    +0.000 NA
ATOM     27  C   UNL     1       6.455   3.828  12.585  0.00  0.00    +0.000 C 
ATOM     28  C   UNL     1       7.365   4.799  14.584  0.00  0.00    +0.000 C 
ATOM     29  C   UNL     1       7.316   4.826  16.108  0.00  0.00    +0.000 C 
ENDBRANCH  22  23
ENDBRANCH  20  22
ENDBRANCH   4  20
TORSDOF 5
ENDMDL
MODEL 8
REMARK VINA RESULT:      -7.5      1.140      1.984
REMARK  Name = 
REMARK  7 active torsions:
REMARK  status: ('A' for Active; 'I' for Inactive)
REMARK    1  A    between atoms: C_1  and  O_2
REMARK    2  A    between atoms: O_2  and  C_3
REMARK    3  A    between atoms: C_7  and  C_8
REMARK    4  A    between atoms: C_11  and  N_12
REMARK    5  A    between atoms: N_12  and  C_13
REMARK    6  A    between atoms: C_13  and  C_14
REMARK    7  A    between atoms: N_17  and  C_18
REMARK                            x       y       z     vdW  Elec       q    Type
REMARK                         _______ _______ _______ _____ _____    ______ ____
ROOT
ATOM      1  C   UNL     1       1.971   6.763  20.167  0.00  0.00    +0.000 A 
ATOM      2  N   UNL     1       2.494   6.216  19.079  0.00  0.00    +0.000 NA
ATOM      3  C   UNL     1       2.677   4.874  19.378  0.00  0.00    +0.000 A 
ATOM      4  C   UNL     1       3.180   3.808  18.582  0.00  0.00    +0.000 A 
ATOM      5  C   UNL     1       3.202   2.563  19.262  0.00  0.00    +0.000 A 
ATOM      6 CL   UNL     1       3.719   1.059  18.570  0.00  0.00    +0.000 Cl
ATOM      7  C   UNL     1       2.752   2.462  20.588  0.00  0.00    +0.000 A 
ATOM      8  N   UNL     1       2.283   3.471  21.358  0.00  0.00    +0.000 NA
ATOM      9  C   UNL     1       2.285   4.626  20.680  0.00  0.00    +0.000 A 
ATOM     10  N   UNL     1       1.884   5.828  21.175  0.00  0.00    +0.000 N 
ATOM     11  H   UNL     1       1.556   5.983  22.113  0.00  0.00    +0.000 HD
ENDROOT
BRANCH   1  16
ATOM     12  C   UNL     1       1.089  10.347  19.375  0.00  0.00    +0.000 A 
ATOM     13  C   UNL     1       0.684  10.803  20.629  0.00  0.00    +0.000 A 
ATOM     14  C   UNL     1       0.679   9.940  21.727  0.00  0.00    +0.000 A 
ATOM     15  C   UNL     1       1.090   8.612  21.576  0.00  0.00    +0.000 A 
ATOM     16  C   UNL     1       1.496   8.138  20.324  0.00  0.00    +0.000 A 
ATOM     17  C   UNL     1       1.486   9.016  19.229  0.00  0.00    +0.000 A 
BRANCH  12  19
ATOM     18  C   UNL     1       1.459  12.606  18.731  0.00  0.00    +0.000 C 
ATOM     19  O   UNL     1       1.077  11.281  18.372  0.00  0.00    +0.000 OA
ENDBRANCH  12  19
ENDBRANCH   1  16
BRANCH   4  20
ATOM     20  N   UNL     1       3.595   4.086  17.289  0.00  0.00    +0.000 N 
ATOM     21  H   UNL     1       2.885   3.945  16.572  0.00  0.00    +0.000 HD
BRANCH  20  22
ATOM     22  C   UNL     1       4.957   4.384  16.899  0.00  0.00    +0.000 C 
BRANCH  22  23
ATOM     23  C   UNL     1       5.558   5.627  17.565  0.00  0.00    +0.000 C 
ATOM     24  C   UNL     1       5.408   6.898  16.721  0.00  0.00    +0.000 C 
ATOM     25  C   UNL     1       6.207   8.060  17.317  0.00  0.00    +0.000 C 
ATOM     26  N   UNL     1       7.627   7.715  17.459  0.00  0.00    +0.000 NA
ATOM     27  C   UNL     1       8.384   8.858  17.970  0.00  0.00    +0.000 C 
ATOM     28  C   UNL     1       7.803   6.558  18.341  0.00  0.00    +0.000 C 
ATOM     29  C   UNL     1       7.055   5.343  17.802  0.00  0.00    +0.000 C 
ENDBRANCH  22  23
ENDBRANCH  20  22
ENDBRANCH   4  20
TORSDOF 5
ENDMDL
MODEL 9
REMARK VINA RESULT:      -7.5      1.756      2.396
REMARK  Name = 
REMARK  7 active torsions:
REMARK  status: ('A' for Active; 'I' for Inactive)
REMARK    1  A    between atoms: C_1  and  O_2
REMARK    2  A    between atoms: O_2  and  C_3
REMARK    3  A    between atoms: C_7  and  C_8
REMARK    4  A    between atoms: C_11  and  N_12
REMARK    5  A    between atoms: N_12  and  C_13
REMARK    6  A    between atoms: C_13  and  C_14
REMARK    7  A    between atoms: N_17  and  C_18
REMARK                            x       y       z     vdW  Elec       q    Type
REMARK                         _______ _______ _______ _____ _____    ______ ____
ROOT
ATOM      1  C   UNL     1       1.920   6.992  20.248  0.00  0.00    +0.000 A 
ATOM      2  N   UNL     1       2.504   6.486  19.172  0.00  0.00    +0.000 NA
ATOM      3  C   UNL     1       2.681   5.136  19.434  0.00  0.00    +0.000 A 
ATOM      4  C   UNL     1       3.234   4.100  18.631  0.00  0.00    +0.000 A 
ATOM      5  C   UNL     1       3.229   2.833  19.269  0.00  0.00    +0.000 A 
ATOM      6 CL   UNL     1       3.794   1.357  18.555  0.00  0.00    +0.000 Cl
ATOM      7  C   UNL     1       2.711   2.685  20.565  0.00  0.00    +0.000 A 
ATOM      8  N   UNL     1       2.195   3.663  21.343  0.00  0.00    +0.000 NA
ATOM      9  C   UNL     1       2.224   4.841  20.705  0.00  0.00    +0.000 A 
ATOM     10  N   UNL     1       1.788   6.023  21.218  0.00  0.00    +0.000 N 
ATOM     11  H   UNL     1       1.409   6.145  22.142  0.00  0.00    +0.000 HD
ENDROOT
BRANCH   1  16
ATOM     12  C   UNL     1       0.478  10.083  21.867  0.00  0.00    +0.000 A 
ATOM     13  C   UNL     1       0.384  10.937  20.768  0.00  0.00    +0.000 A 
ATOM     14  C   UNL     1       0.807  10.515  19.506  0.00  0.00    +0.000 A 
ATOM     15  C   UNL     1       1.321   9.226  19.335  0.00  0.00    +0.000 A 
ATOM     16  C   UNL     1       1.426   8.358  20.426  0.00  0.00    +0.000 A 
ATOM     17  C   UNL     1       1.005   8.802  21.690  0.00  0.00    +0.000 A 
BRANCH  12  19
ATOM     18  C   UNL     1      -1.321  11.085  23.054  0.00  0.00    +0.000 C 
ATOM     19  O   UNL     1       0.014  10.589  23.052  0.00  0.00    +0.000 OA
ENDBRANCH  12  19
ENDBRANCH   1  16
BRANCH   4  20
ATOM     20  N   UNL     1       3.714   4.425  17.371  0.00  0.00    +0.000 N 
ATOM     21  H   UNL     1       3.070   4.234  16.605  0.00  0.00    +0.000 HD
BRANCH  20  22
ATOM     22  C   UNL     1       5.071   4.837  17.080  0.00  0.00    +0.000 C 
BRANCH  22  23
ATOM     23  C   UNL     1       5.385   5.004  15.589  0.00  0.00    +0.000 C 
ATOM     24  C   UNL     1       4.792   3.890  14.718  0.00  0.00    +0.000 C 
ATOM     25  C   UNL     1       5.309   3.974  13.279  0.00  0.00    +0.000 C 
ATOM     26  N   UNL     1       6.775   3.922  13.233  0.00  0.00    +0.000 NA
ATOM     27  C   UNL     1       7.246   3.940  11.848  0.00  0.00    +0.000 C 
ATOM     28  C   UNL     1       7.366   5.035  13.982  0.00  0.00    +0.000 C 
ATOM     29  C   UNL     1       6.919   5.009  15.440  0.00  0.00    +0.000 C 
ENDBRANCH  22  23
ENDBRANCH  20  22
ENDBRANCH   4  20
TORSDOF 5
ENDMDL
