MODEL 1
REMARK VINA RESULT:      -7.9      0.000      0.000
REMARK  Name = 
REMARK  6 active torsions:
REMARK  status: ('A' for Active; 'I' for Inactive)
REMARK    1  A    between atoms: C_1  and  C_2
REMARK    2  A    between atoms: C_2  and  C_3
REMARK    3  A    between atoms: C_2  and  N_4
REMARK    4  A    between atoms: C_9  and  C_10
REMARK    5  A    between atoms: C_10  and  N_11
REMARK    6  A    between atoms: C_12  and  C_14
REMARK                            x       y       z     vdW  Elec       q    Type
REMARK                         _______ _______ _______ _____ _____    ______ ____
ROOT
ATOM      1  N   UNL     1       2.798   3.397  20.267  0.00  0.00    +0.000 N 
ATOM      2  C   UNL     1       3.760   2.455  20.512  0.00  0.00    +0.000 A 
ATOM      3  N   UNL     1       4.876   2.715  19.866  0.00  0.00    +0.000 NA
ATOM      4  C   UNL     1       4.627   3.873  19.172  0.00  0.00    +0.000 A 
ATOM      5  C   UNL     1       5.477   4.609  18.331  0.00  0.00    +0.000 A 
ATOM      6  C   UNL     1       4.994   5.779  17.717  0.00  0.00    +0.000 A 
ATOM      7  C   UNL     1       3.678   6.198  17.962  0.00  0.00    +0.000 A 
ATOM      8  C   UNL     1       2.817   5.478  18.797  0.00  0.00    +0.000 A 
ATOM      9  C   UNL     1       3.326   4.319  19.393  0.00  0.00    +0.000 A 
ENDROOT
BRANCH   1  11
ATOM     10  C   UNL     1       0.362   3.189  19.850  0.00  0.00    +0.000 C 
ATOM     11  C   UNL     1       1.471   3.444  20.870  0.00  0.00    +0.000 C 
ATOM     12  C   UNL     1       1.371   2.497  22.065  0.00  0.00    +0.000 C 
ENDBRANCH   1  11
BRANCH   6  13
ATOM     13  C   UNL     1       5.885   6.599  16.821  0.00  0.00    +0.000 C 
BRANCH  13  14
ATOM     14  N   UNL     1       6.042   5.993  15.524  0.00  0.00    +0.000 N 
ATOM     15  C   UNL     1       7.015   5.061  15.236  0.00  0.00    +0.000 C 
ATOM     16  O   UNL     1       7.825   4.664  16.069  0.00  0.00    +0.000 OA
ATOM     17  H   UNL     1       5.363   6.190  14.798  0.00  0.00    +0.000 HD
BRANCH  15  18
ATOM     18  C   UNL     1       6.995   4.613  13.858  0.00  0.00    +0.000 A 
ATOM     19  C   UNL     1       7.751   4.990  12.761  0.00  0.00    +0.000 A 
ATOM     20  C   UNL     1       7.278   4.234  11.660  0.00  0.00    +0.000 A 
ATOM     21  C   UNL     1       6.262   3.446  12.145  0.00  0.00    +0.000 A 
ATOM     22  O   UNL     1       6.084   3.661  13.474  0.00  0.00    +0.000 OA
ENDBRANCH  15  18
ENDBRANCH  13  14
ENDBRANCH   6  13
TORSDOF 4
ENDMDL
MODEL 2
REMARK VINA RESULT:      -7.7      2.433      7.456
REMARK  Name = 
REMARK  6 active torsions:
REMARK  status: ('A' for Active; 'I' for Inactive)
REMARK    1  A    between atoms: C_1  and  C_2
REMARK    2  A    between atoms: C_2  and  C_3
REMARK    3  A    between atoms: C_2  and  N_4
REMARK    4  A    between atoms: C_9  and  C_10
REMARK    5  A    between atoms: C_10  and  N_11
REMARK    6  A    between atoms: C_12  and  C_14
REMARK                            x       y       z     vdW  Elec       q    Type
REMARK                         _______ _______ _______ _____ _____    ______ ____
ROOT
ATOM      1  N   UNL     1       6.480   3.906  13.169  0.00  0.00    +0.000 N 
ATOM      2  C   UNL     1       7.497   4.775  12.882  0.00  0.00    +0.000 A 
ATOM      3  N   UNL     1       7.820   5.514  13.921  0.00  0.00    +0.000 NA
ATOM      4  C   UNL     1       6.977   5.107  14.925  0.00  0.00    +0.000 A 
ATOM      5  C   UNL     1       6.896   5.549  16.256  0.00  0.00    +0.000 A 
ATOM      6  C   UNL     1       5.936   4.980  17.113  0.00  0.00    +0.000 A 
ATOM      7  C   UNL     1       5.083   3.976  16.630  0.00  0.00    +0.000 A 
ATOM      8  C   UNL     1       5.150   3.523  15.308  0.00  0.00    +0.000 A 
ATOM      9  C   UNL     1       6.114   4.107  14.480  0.00  0.00    +0.000 A 
ENDROOT
BRANCH   1  11
ATOM     10  C   UNL     1       4.644   3.390  11.584  0.00  0.00    +0.000 C 
ATOM     11  C   UNL     1       5.924   2.906  12.264  0.00  0.00    +0.000 C 
ATOM     12  C   UNL     1       6.965   2.439  11.248  0.00  0.00    +0.000 C 
ENDBRANCH   1  11
BRANCH   6  13
ATOM     13  C   UNL     1       5.833   5.421  18.549  0.00  0.00    +0.000 C 
BRANCH  13  14
ATOM     14  N   UNL     1       4.842   4.666  19.271  0.00  0.00    +0.000 N 
ATOM     15  C   UNL     1       3.583   5.146  19.556  0.00  0.00    +0.000 C 
ATOM     16  O   UNL     1       3.199   6.259  19.207  0.00  0.00    +0.000 OA
ATOM     17  H   UNL     1       5.036   3.703  19.520  0.00  0.00    +0.000 HD
BRANCH  15  18
ATOM     18  C   UNL     1       2.770   4.218  20.316  0.00  0.00    +0.000 A 
ATOM     19  C   UNL     1       1.432   4.250  20.670  0.00  0.00    +0.000 A 
ATOM     20  C   UNL     1       1.185   3.086  21.438  0.00  0.00    +0.000 A 
ATOM     21  C   UNL     1       2.382   2.415  21.512  0.00  0.00    +0.000 A 
ATOM     22  O   UNL     1       3.347   3.085  20.832  0.00  0.00    +0.000 OA
ENDBRANCH  15  18
ENDBRANCH  13  14
ENDBRANCH   6  13
TORSDOF 4
ENDMDL
MODEL 3
REMARK VINA RESULT:      -7.7      2.377      7.364
REMARK  Name = 
REMARK  6 active torsions:
REMARK  status: ('A' for Active; 'I' for Inactive)
REMARK    1  A    between atoms: C_1  and  C_2
REMARK    2  A    between atoms: C_2  and  C_3
REMARK    3  A    between atoms: C_2  and  N_4
REMARK    4  A    between atoms: C_9  and  C_10
REMARK    5  A    between atoms: C_10  and  N_11
REMARK    6  A    between atoms: C_12  and  C_14
REMARK                            x       y       z     vdW  Elec       q    Type
REMARK                         _______ _______ _______ _____ _____    ______ ____
ROOT
ATOM      1  N   UNL     1       6.474   3.867  13.079  0.00  0.00    +0.000 N 
ATOM      2  C   UNL     1       7.510   4.717  12.801  0.00  0.00    +0.000 A 
ATOM      3  N   UNL     1       7.823   5.465  13.836  0.00  0.00    +0.000 NA
ATOM      4  C   UNL     1       6.953   5.085  14.828  0.00  0.00    +0.000 A 
ATOM      5  C   UNL     1       6.852   5.547  16.151  0.00  0.00    +0.000 A 
ATOM      6  C   UNL     1       5.866   5.005  16.996  0.00  0.00    +0.000 A 
ATOM      7  C   UNL     1       5.008   4.008  16.510  0.00  0.00    +0.000 A 
ATOM      8  C   UNL     1       5.095   3.535  15.196  0.00  0.00    +0.000 A 
ATOM      9  C   UNL     1       6.085   4.093  14.379  0.00  0.00    +0.000 A 
ENDROOT
BRANCH   1  11
ATOM     10  C   UNL     1       4.651   3.349  11.480  0.00  0.00    +0.000 C 
ATOM     11  C   UNL     1       5.921   2.864  12.177  0.00  0.00    +0.000 C 
ATOM     12  C   UNL     1       6.970   2.382  11.175  0.00  0.00    +0.000 C 
ENDBRANCH   1  11
BRANCH   6  13
ATOM     13  C   UNL     1       5.741   5.469  18.423  0.00  0.00    +0.000 C 
BRANCH  13  14
ATOM     14  N   UNL     1       4.510   5.025  19.024  0.00  0.00    +0.000 N 
ATOM     15  C   UNL     1       4.376   3.820  19.677  0.00  0.00    +0.000 C 
ATOM     16  O   UNL     1       5.303   3.027  19.808  0.00  0.00    +0.000 OA
ATOM     17  H   UNL     1       3.714   5.653  19.045  0.00  0.00    +0.000 HD
BRANCH  15  18
ATOM     18  C   UNL     1       3.036   3.579  20.176  0.00  0.00    +0.000 A 
ATOM     19  C   UNL     1       2.578   2.821  21.239  0.00  0.00    +0.000 A 
ATOM     20  C   UNL     1       1.166   2.932  21.241  0.00  0.00    +0.000 A 
ATOM     21  C   UNL     1       0.844   3.745  20.180  0.00  0.00    +0.000 A 
ATOM     22  O   UNL     1       1.967   4.148  19.532  0.00  0.00    +0.000 OA
ENDBRANCH  15  18
ENDBRANCH  13  14
ENDBRANCH   6  13
TORSDOF 4
ENDMDL
MODEL 4
REMARK VINA RESULT:      -7.5      1.450      2.116
REMARK  Name = 
REMARK  6 active torsions:
REMARK  status: ('A' for Active; 'I' for Inactive)
REMARK    1  A    between atoms: C_1  and  C_2
REMARK    2  A    between atoms: C_2  and  C_3
REMARK    3  A    between atoms: C_2  and  N_4
REMARK    4  A    between atoms: C_9  and  C_10
REMARK    5  A    between atoms: C_10  and  N_11
REMARK    6  A    between atoms: C_12  and  C_14
REMARK                            x       y       z     vdW  Elec       q    Type
REMARK                         _______ _______ _______ _____ _____    ______ ____
ROOT
ATOM      1  N   UNL     1       1.966   4.566  20.192  0.00  0.00    +0.000 N 
ATOM      2  C   UNL     1       1.766   5.910  20.356  0.00  0.00    +0.000 A 
ATOM      3  N   UNL     1       2.780   6.616  19.904  0.00  0.00    +0.000 NA
ATOM      4  C   UNL     1       3.675   5.691  19.427  0.00  0.00    +0.000 A 
ATOM      5  C   UNL     1       4.924   5.892  18.817  0.00  0.00    +0.000 A 
ATOM      6  C   UNL     1       5.677   4.776  18.407  0.00  0.00    +0.000 A 
ATOM      7  C   UNL     1       5.166   3.484  18.603  0.00  0.00    +0.000 A 
ATOM      8  C   UNL     1       3.924   3.266  19.208  0.00  0.00    +0.000 A 
ATOM      9  C   UNL     1       3.198   4.395  19.605  0.00  0.00    +0.000 A 
ENDROOT
BRANCH   1  11
ATOM     10  C   UNL     1       0.594   2.703  19.299  0.00  0.00    +0.000 C 
ATOM     11  C   UNL     1       1.017   3.511  20.526  0.00  0.00    +0.000 C 
ATOM     12  C   UNL     1       1.557   2.613  21.639  0.00  0.00    +0.000 C 
ENDBRANCH   1  11
BRANCH   6  13
ATOM     13  C   UNL     1       7.014   4.958  17.737  0.00  0.00    +0.000 C 
BRANCH  13  14
ATOM     14  N   UNL     1       6.983   4.539  16.359  0.00  0.00    +0.000 N 
ATOM     15  C   UNL     1       6.382   5.271  15.359  0.00  0.00    +0.000 C 
ATOM     16  O   UNL     1       5.830   6.348  15.560  0.00  0.00    +0.000 OA
ATOM     17  H   UNL     1       7.492   3.708  16.081  0.00  0.00    +0.000 HD
BRANCH  15  18
ATOM     18  C   UNL     1       6.455   4.637  14.057  0.00  0.00    +0.000 A 
ATOM     19  C   UNL     1       5.667   3.664  13.467  0.00  0.00    +0.000 A 
ATOM     20  C   UNL     1       6.222   3.409  12.189  0.00  0.00    +0.000 A 
ATOM     21  C   UNL     1       7.316   4.234  12.074  0.00  0.00    +0.000 A 
ATOM     22  O   UNL     1       7.464   4.986  13.195  0.00  0.00    +0.000 OA
ENDBRANCH  15  18
ENDBRANCH  13  14
ENDBRANCH   6  13
TORSDOF 4
ENDMDL
MODEL 5
REMARK VINA RESULT:      -7.4      0.935      1.230
REMARK  Name = 
REMARK  6 active torsions:
REMARK  status: ('A' for Active; 'I' for Inactive)
REMARK    1  A    between atoms: C_1  and  C_2
REMARK    2  A    between atoms: C_2  and  C_3
REMARK    3  A    between atoms: C_2  and  N_4
REMARK    4  A    between atoms: C_9  and  C_10
REMARK    5  A    between atoms: C_10  and  N_11
REMARK    6  A    between atoms: C_12  and  C_14
REMARK                            x       y       z     vdW  Elec       q    Type
REMARK                         _______ _______ _______ _____ _____    ______ ____
ROOT
ATOM      1  N   UNL     1       2.799   2.939  19.915  0.00  0.00    +0.000 N 
ATOM      2  C   UNL     1       3.806   2.214  20.493  0.00  0.00    +0.000 A 
ATOM      3  N   UNL     1       4.993   2.646  20.130  0.00  0.00    +0.000 NA
ATOM      4  C   UNL     1       4.748   3.695  19.279  0.00  0.00    +0.000 A 
ATOM      5  C   UNL     1       5.656   4.533  18.611  0.00  0.00    +0.000 A 
ATOM      6  C   UNL     1       5.165   5.554  17.776  0.00  0.00    +0.000 A 
ATOM      7  C   UNL     1       3.780   5.725  17.632  0.00  0.00    +0.000 A 
ATOM      8  C   UNL     1       2.861   4.901  18.290  0.00  0.00    +0.000 A 
ATOM      9  C   UNL     1       3.379   3.895  19.113  0.00  0.00    +0.000 A 
ENDROOT
BRANCH   1  11
ATOM     10  C   UNL     1       0.701   4.053  20.627  0.00  0.00    +0.000 C 
ATOM     11  C   UNL     1       1.371   2.764  20.150  0.00  0.00    +0.000 C 
ATOM     12  C   UNL     1       0.673   2.183  18.921  0.00  0.00    +0.000 C 
ENDBRANCH   1  11
BRANCH   6  13
ATOM     13  C   UNL     1       6.111   6.478  17.057  0.00  0.00    +0.000 C 
BRANCH  13  14
ATOM     14  N   UNL     1       6.308   6.082  15.686  0.00  0.00    +0.000 N 
ATOM     15  C   UNL     1       7.135   5.048  15.307  0.00  0.00    +0.000 C 
ATOM     16  O   UNL     1       7.768   4.372  16.112  0.00  0.00    +0.000 OA
ATOM     17  H   UNL     1       5.757   6.522  14.958  0.00  0.00    +0.000 HD
BRANCH  15  18
ATOM     18  C   UNL     1       7.193   4.851  13.872  0.00  0.00    +0.000 A 
ATOM     19  C   UNL     1       6.589   3.915  13.050  0.00  0.00    +0.000 A 
ATOM     20  C   UNL     1       7.026   4.188  11.731  0.00  0.00    +0.000 A 
ATOM     21  C   UNL     1       7.872   5.267  11.822  0.00  0.00    +0.000 A 
ATOM     22  O   UNL     1       7.977   5.682  13.111  0.00  0.00    +0.000 OA
ENDBRANCH  15  18
ENDBRANCH  13  14
ENDBRANCH   6  13
TORSDOF 4
ENDMDL
MODEL 6
REMARK VINA RESULT:      -7.4      1.201      1.884
REMARK  Name = 
REMARK  6 active torsions:
REMARK  status: ('A' for Active; 'I' for Inactive)
REMARK    1  A    between atoms: C_1  and  C_2
REMARK    2  A    between atoms: C_2  and  C_3
REMARK    3  A    between atoms: C_2  and  N_4
REMARK    4  A    between atoms: C_9  and  C_10
REMARK    5  A    between atoms: C_10  and  N_11
REMARK    6  A    between atoms: C_12  and  C_14
REMARK                            x       y       z     vdW  Elec       q    Type
REMARK                         _______ _______ _______ _____ _____    ______ ____
ROOT
ATOM      1  N   UNL     1       1.765   4.670  20.209  0.00  0.00    +0.000 N 
ATOM      2  C   UNL     1       1.311   5.883  20.651  0.00  0.00    +0.000 A 
ATOM      3  N   UNL     1       1.941   6.883  20.076  0.00  0.00    +0.000 NA
ATOM      4  C   UNL     1       2.844   6.295  19.225  0.00  0.00    +0.000 A 
ATOM      5  C   UNL     1       3.765   6.894  18.349  0.00  0.00    +0.000 A 
ATOM      6  C   UNL     1       4.602   6.077  17.567  0.00  0.00    +0.000 A 
ATOM      7  C   UNL     1       4.497   4.682  17.664  0.00  0.00    +0.000 A 
ATOM      8  C   UNL     1       3.585   4.068  18.530  0.00  0.00    +0.000 A 
ATOM      9  C   UNL     1       2.767   4.906  19.295  0.00  0.00    +0.000 A 
ENDROOT
BRANCH   1  11
ATOM     10  C   UNL     1       0.831   2.526  19.385  0.00  0.00    +0.000 C 
ATOM     11  C   UNL     1       1.242   3.365  20.595  0.00  0.00    +0.000 C 
ATOM     12  C   UNL     1       2.225   2.618  21.495  0.00  0.00    +0.000 C 
ENDBRANCH   1  11
BRANCH   6  13
ATOM     13  C   UNL     1       5.590   6.688  16.608  0.00  0.00    +0.000 C 
BRANCH  13  14
ATOM     14  N   UNL     1       5.687   5.931  15.386  0.00  0.00    +0.000 N 
ATOM     15  C   UNL     1       6.760   5.126  15.077  0.00  0.00    +0.000 C 
ATOM     16  O   UNL     1       7.721   4.980  15.827  0.00  0.00    +0.000 OA
ATOM     17  H   UNL     1       4.900   5.918  14.747  0.00  0.00    +0.000 HD
BRANCH  15  18
ATOM     18  C   UNL     1       6.647   4.485  13.782  0.00  0.00    +0.000 A 
ATOM     19  C   UNL     1       7.456   4.538  12.660  0.00  0.00    +0.000 A 
ATOM     20  C   UNL     1       6.841   3.729  11.674  0.00  0.00    +0.000 A 
ATOM     21  C   UNL     1       5.693   3.234  12.246  0.00  0.00    +0.000 A 
ATOM     22  O   UNL     1       5.567   3.679  13.523  0.00  0.00    +0.000 OA
ENDBRANCH  15  18
ENDBRANCH  13  14
ENDBRANCH   6  13
TORSDOF 4
ENDMDL
MODEL 7
REMARK VINA RESULT:      -7.3      1.483      2.138
REMARK  Name = 
REMARK  6 active torsions:
REMARK  status: ('A' for Active; 'I' for Inactive)
REMARK    1  A    between atoms: C_1  and  C_2
REMARK    2  A    between atoms: C_2  and  C_3
REMARK    3  A    between atoms: C_2  and  N_4
REMARK    4  A    between atoms: C_9  and  C_10
REMARK    5  A    between atoms: C_10  and  N_11
REMARK    6  A    between atoms: C_12  and  C_14
REMARK                            x       y       z     vdW  Elec       q    Type
REMARK                         _______ _______ _______ _____ _____    ______ ____
ROOT
ATOM      1  N   UNL     1       1.995   4.649  20.112  0.00  0.00    +0.000 N 
ATOM      2  C   UNL     1       1.858   5.983  20.388  0.00  0.00    +0.000 A 
ATOM      3  N   UNL     1       2.687   6.719  19.682  0.00  0.00    +0.000 NA
ATOM      4  C   UNL     1       3.393   5.826  18.915  0.00  0.00    +0.000 A 
ATOM      5  C   UNL     1       4.399   6.067  17.964  0.00  0.00    +0.000 A 
ATOM      6  C   UNL     1       4.990   4.979  17.296  0.00  0.00    +0.000 A 
ATOM      7  C   UNL     1       4.561   3.674  17.581  0.00  0.00    +0.000 A 
ATOM      8  C   UNL     1       3.560   3.415  18.524  0.00  0.00    +0.000 A 
ATOM      9  C   UNL     1       2.991   4.517  19.172  0.00  0.00    +0.000 A 
ENDROOT
BRANCH   1  11
ATOM     10  C   UNL     1       0.553   2.701  19.587  0.00  0.00    +0.000 C 
ATOM     11  C   UNL     1       1.191   3.569  20.671  0.00  0.00    +0.000 C 
ATOM     12  C   UNL     1       1.999   2.734  21.664  0.00  0.00    +0.000 C 
ENDBRANCH   1  11
BRANCH   6  13
ATOM     13  C   UNL     1       6.060   5.205  16.261  0.00  0.00    +0.000 C 
BRANCH  13  14
ATOM     14  N   UNL     1       5.835   4.416  15.077  0.00  0.00    +0.000 N 
ATOM     15  C   UNL     1       6.574   4.552  13.923  0.00  0.00    +0.000 C 
ATOM     16  O   UNL     1       7.495   5.356  13.813  0.00  0.00    +0.000 OA
ATOM     17  H   UNL     1       5.156   3.664  15.104  0.00  0.00    +0.000 HD
BRANCH  15  18
ATOM     18  C   UNL     1       6.147   3.669  12.856  0.00  0.00    +0.000 A 
ATOM     19  C   UNL     1       6.855   2.785  12.061  0.00  0.00    +0.000 A 
ATOM     20  C   UNL     1       5.924   2.205  11.166  0.00  0.00    +0.000 A 
ATOM     21  C   UNL     1       4.706   2.770  11.461  0.00  0.00    +0.000 A 
ATOM     22  O   UNL     1       4.826   3.652  12.486  0.00  0.00    +0.000 OA
ENDBRANCH  15  18
ENDBRANCH  13  14
ENDBRANCH   6  13
TORSDOF 4
ENDMDL
MODEL 8
REMARK VINA RESULT:      -7.3      1.795      2.447
REMARK  Name = 
REMARK  6 active torsions:
REMARK  status: ('A' for Active; 'I' for Inactive)
REMARK    1  A    between atoms: C_1  and  C_2
REMARK    2  A    between atoms: C_2  and  C_3
REMARK    3  A    between atoms: C_2  and  N_4
REMARK    4  A    between atoms: C_9  and  C_10
REMARK    5  A    between atoms: C_10  and  N_11
REMARK    6  A    between atoms: C_12  and  C_14
REMARK                            x       y       z     vdW  Elec       q    Type
REMARK                         _______ _______ _______ _____ _____    ______ ____
ROOT
ATOM      1  N   UNL     1       2.490   4.139  19.265  0.00  0.00    +0.000 N 
ATOM      2  C   UNL     1       1.664   3.475  18.400  0.00  0.00    +0.000 A 
ATOM      3  N   UNL     1       2.220   3.309  17.220  0.00  0.00    +0.000 NA
ATOM      4  C   UNL     1       3.459   3.890  17.323  0.00  0.00    +0.000 A 
ATOM      5  C   UNL     1       4.482   3.987  16.365  0.00  0.00    +0.000 A 
ATOM      6  C   UNL     1       5.682   4.641  16.702  0.00  0.00    +0.000 A 
ATOM      7  C   UNL     1       5.842   5.175  17.989  0.00  0.00    +0.000 A 
ATOM      8  C   UNL     1       4.835   5.088  18.956  0.00  0.00    +0.000 A 
ATOM      9  C   UNL     1       3.654   4.432  18.592  0.00  0.00    +0.000 A 
ENDROOT
BRANCH   1  11
ATOM     10  C   UNL     1       1.479   5.763  20.844  0.00  0.00    +0.000 C 
ATOM     11  C   UNL     1       2.209   4.432  20.666  0.00  0.00    +0.000 C 
ATOM     12  C   UNL     1       1.459   3.280  21.333  0.00  0.00    +0.000 C 
ENDBRANCH   1  11
BRANCH   6  13
ATOM     13  C   UNL     1       6.803   4.749  15.703  0.00  0.00    +0.000 C 
BRANCH  13  14
ATOM     14  N   UNL     1       6.603   3.873  14.577  0.00  0.00    +0.000 N 
ATOM     15  C   UNL     1       6.918   4.219  13.282  0.00  0.00    +0.000 C 
ATOM     16  O   UNL     1       7.405   5.305  12.982  0.00  0.00    +0.000 OA
ATOM     17  H   UNL     1       6.290   2.922  14.738  0.00  0.00    +0.000 HD
BRANCH  15  18
ATOM     18  C   UNL     1       6.603   3.185  12.316  0.00  0.00    +0.000 A 
ATOM     19  C   UNL     1       5.398   2.615  11.944  0.00  0.00    +0.000 A 
ATOM     20  C   UNL     1       5.695   1.632  10.968  0.00  0.00    +0.000 A 
ATOM     21  C   UNL     1       7.059   1.655  10.804  0.00  0.00    +0.000 A 
ATOM     22  O   UNL     1       7.620   2.594  11.609  0.00  0.00    +0.000 OA
ENDBRANCH  15  18
ENDBRANCH  13  14
ENDBRANCH   6  13
TORSDOF 4
ENDMDL
MODEL 9
REMARK VINA RESULT:      -7.2      1.554      1.892
REMARK  Name = 
REMARK  6 active torsions:
REMARK  status: ('A' for Active; 'I' for Inactive)
REMARK    1  A    between atoms: C_1  and  C_2
REMARK    2  A    between atoms: C_2  and  C_3
REMARK    3  A    between atoms: C_2  and  N_4
REMARK    4  A    between atoms: C_9  and  C_10
REMARK    5  A    between atoms: C_10  and  N_11
REMARK    6  A    between atoms: C_12  and  C_14
REMARK                            x       y       z     vdW  Elec       q    Type
REMARK                         _______ _______ _______ _____ _____    ______ ____
ROOT
ATOM      1  N   UNL     1       2.772   3.388  19.635  0.00  0.00    +0.000 N 
ATOM      2  C   UNL     1       2.848   2.064  19.298  0.00  0.00    +0.000 A 
ATOM      3  N   UNL     1       3.538   1.876  18.195  0.00  0.00    +0.000 NA
ATOM      4  C   UNL     1       3.927   3.131  17.798  0.00  0.00    +0.000 A 
ATOM      5  C   UNL     1       4.701   3.517  16.691  0.00  0.00    +0.000 A 
ATOM      6  C   UNL     1       4.971   4.882  16.482  0.00  0.00    +0.000 A 
ATOM      7  C   UNL     1       4.474   5.833  17.385  0.00  0.00    +0.000 A 
ATOM      8  C   UNL     1       3.702   5.468  18.492  0.00  0.00    +0.000 A 
ATOM      9  C   UNL     1       3.450   4.103  18.674  0.00  0.00    +0.000 A 
ENDROOT
BRANCH   1  11
ATOM     10  C   UNL     1       0.995   4.894  20.486  0.00  0.00    +0.000 C 
ATOM     11  C   UNL     1       2.136   3.936  20.827  0.00  0.00    +0.000 C 
ATOM     12  C   UNL     1       1.682   2.825  21.773  0.00  0.00    +0.000 C 
ENDBRANCH   1  11
BRANCH   6  13
ATOM     13  C   UNL     1       5.809   5.326  15.313  0.00  0.00    +0.000 C 
BRANCH  13  14
ATOM     14  N   UNL     1       5.882   4.315  14.290  0.00  0.00    +0.000 N 
ATOM     15  C   UNL     1       6.721   4.397  13.201  0.00  0.00    +0.000 C 
ATOM     16  O   UNL     1       7.484   5.340  13.018  0.00  0.00    +0.000 OA
ATOM     17  H   UNL     1       5.355   3.456  14.404  0.00  0.00    +0.000 HD
BRANCH  15  18
ATOM     18  C   UNL     1       6.600   3.273  12.293  0.00  0.00    +0.000 A 
ATOM     19  C   UNL     1       7.536   2.630  11.502  0.00  0.00    +0.000 A 
ATOM     20  C   UNL     1       6.847   1.611  10.801  0.00  0.00    +0.000 A 
ATOM     21  C   UNL     1       5.534   1.692  11.199  0.00  0.00    +0.000 A 
ATOM     22  O   UNL     1       5.372   2.689  12.106  0.00  0.00    +0.000 OA
ENDBRANCH  15  18
ENDBRANCH  13  14
ENDBRANCH   6  13
TORSDOF 4
ENDMDL
