MODEL 1
REMARK VINA RESULT:      -7.7      0.000      0.000
REMARK  Name = 
REMARK  3 active torsions:
REMARK  status: ('A' for Active; 'I' for Inactive)
REMARK    1  A    between atoms: C_1  and  C_2
REMARK    2  A    between atoms: C_5  and  C_6
REMARK    3  A    between atoms: C_12  and  C_13
REMARK                            x       y       z     vdW  Elec       q    Type
REMARK                         _______ _______ _______ _____ _____    ______ ____
ROOT
ATOM      1  C   UNL     1       2.757   6.417  18.383  0.00  0.00    +0.000 C 
ATOM      2  O   UNL     1       3.070   6.665  17.221  0.00  0.00    +0.000 OA
ATOM      3  N   UNL     1       2.231   7.412  19.202  0.00  0.00    +0.000 N 
ATOM      4  C   UNL     1       1.923   8.717  18.594  0.00  0.00    +0.000 C 
ATOM      5  C   UNL     1       0.611   9.286  19.157  0.00  0.00    +0.000 C 
ATOM      6  N   UNL     1       0.696   9.324  20.622  0.00  0.00    +0.000 N 
ATOM      7  C   UNL     1      -0.130  10.219  21.270  0.00  0.00    +0.000 A 
ATOM      8  N   UNL     1      -0.531   9.955  22.524  0.00  0.00    +0.000 NA
ATOM      9  C   UNL     1      -1.235  10.899  23.168  0.00  0.00    +0.000 A 
ATOM     10  C   UNL     1      -1.555  12.116  22.616  0.00  0.00    +0.000 A 
ATOM     11  C   UNL     1      -1.115  12.300  21.332  0.00  0.00    +0.000 A 
ATOM     12  N   UNL     1      -0.424  11.374  20.649  0.00  0.00    +0.000 NA
ATOM     13  C   UNL     1       0.988   8.045  21.269  0.00  0.00    +0.000 C 
ATOM     14  C   UNL     1       2.291   7.462  20.673  0.00  0.00    +0.000 C 
ENDROOT
BRANCH   1  20
ATOM     15  C   UNL     1       0.697   4.601  20.316  0.00  0.00    +0.000 C 
ATOM     16  C   UNL     1       1.998   4.343  19.670  0.00  0.00    +0.000 A 
ATOM     17  O   UNL     1       2.453   3.075  19.823  0.00  0.00    +0.000 OA
ATOM     18  N   UNL     1       3.618   2.910  19.126  0.00  0.00    +0.000 NA
ATOM     19  C   UNL     1       3.895   4.091  18.546  0.00  0.00    +0.000 A 
ATOM     20  C   UNL     1       2.891   5.060  18.890  0.00  0.00    +0.000 A 
BRANCH  19  21
ATOM     21  C   UNL     1       5.100   4.217  17.718  0.00  0.00    +0.000 A 
ATOM     22  C   UNL     1       6.304   4.654  18.297  0.00  0.00    +0.000 A 
ATOM     23  C   UNL     1       7.450   4.835  17.519  0.00  0.00    +0.000 A 
ATOM     24  C   UNL     1       7.409   4.578  16.151  0.00  0.00    +0.000 A 
ATOM     25  C   UNL     1       6.224   4.137  15.563  0.00  0.00    +0.000 A 
ATOM     26  C   UNL     1       5.075   3.961  16.341  0.00  0.00    +0.000 A 
ENDBRANCH  19  21
ENDBRANCH   1  20
TORSDOF 2
ENDMDL
MODEL 2
REMARK VINA RESULT:      -7.7      3.180      8.327
REMARK  Name = 
REMARK  3 active torsions:
REMARK  status: ('A' for Active; 'I' for Inactive)
REMARK    1  A    between atoms: C_1  and  C_2
REMARK    2  A    between atoms: C_5  and  C_6
REMARK    3  A    between atoms: C_12  and  C_13
REMARK                            x       y       z     vdW  Elec       q    Type
REMARK                         _______ _______ _______ _____ _____    ______ ____
ROOT
ATOM      1  C   UNL     1       0.110   9.994  19.900  0.00  0.00    +0.000 C 
ATOM      2  O   UNL     1      -0.381   9.890  21.021  0.00  0.00    +0.000 OA
ATOM      3  N   UNL     1       1.184   9.194  19.521  0.00  0.00    +0.000 N 
ATOM      4  C   UNL     1       1.607   8.124  20.440  0.00  0.00    +0.000 C 
ATOM      5  C   UNL     1       1.984   6.853  19.663  0.00  0.00    +0.000 C 
ATOM      6  N   UNL     1       2.991   7.192  18.651  0.00  0.00    +0.000 N 
ATOM      7  C   UNL     1       3.795   6.164  18.203  0.00  0.00    +0.000 A 
ATOM      8  N   UNL     1       4.310   6.222  16.964  0.00  0.00    +0.000 NA
ATOM      9  C   UNL     1       5.181   5.268  16.602  0.00  0.00    +0.000 A 
ATOM     10  C   UNL     1       5.575   4.247  17.433  0.00  0.00    +0.000 A 
ATOM     11  C   UNL     1       4.997   4.257  18.674  0.00  0.00    +0.000 A 
ATOM     12  N   UNL     1       4.109   5.183  19.066  0.00  0.00    +0.000 NA
ATOM     13  C   UNL     1       2.606   8.243  17.707  0.00  0.00    +0.000 C 
ATOM     14  C   UNL     1       2.195   9.507  18.497  0.00  0.00    +0.000 C 
ENDROOT
BRANCH   1  20
ATOM     15  C   UNL     1      -2.615   9.717  17.957  0.00  0.00    +0.000 C 
ATOM     16  C   UNL     1      -1.611  10.776  18.179  0.00  0.00    +0.000 A 
ATOM     17  O   UNL     1      -1.861  11.928  17.511  0.00  0.00    +0.000 OA
ATOM     18  N   UNL     1      -0.927  12.872  17.841  0.00  0.00    +0.000 NA
ATOM     19  C   UNL     1      -0.083  12.294  18.714  0.00  0.00    +0.000 A 
ATOM     20  C   UNL     1      -0.466  10.928  18.945  0.00  0.00    +0.000 A 
BRANCH  19  21
ATOM     21  C   UNL     1       1.034  13.077  19.254  0.00  0.00    +0.000 A 
ATOM     22  C   UNL     1       2.131  13.391  18.433  0.00  0.00    +0.000 A 
ATOM     23  C   UNL     1       3.231  14.087  18.940  0.00  0.00    +0.000 A 
ATOM     24  C   UNL     1       3.248  14.482  20.276  0.00  0.00    +0.000 A 
ATOM     25  C   UNL     1       2.164  14.184  21.101  0.00  0.00    +0.000 A 
ATOM     26  C   UNL     1       1.065  13.483  20.595  0.00  0.00    +0.000 A 
ENDBRANCH  19  21
ENDBRANCH   1  20
TORSDOF 2
ENDMDL
MODEL 3
REMARK VINA RESULT:      -7.5      1.448      1.710
REMARK  Name = 
REMARK  3 active torsions:
REMARK  status: ('A' for Active; 'I' for Inactive)
REMARK    1  A    between atoms: C_1  and  C_2
REMARK    2  A    between atoms: C_5  and  C_6
REMARK    3  A    between atoms: C_12  and  C_13
REMARK                            x       y       z     vdW  Elec       q    Type
REMARK                         _______ _______ _______ _____ _____    ______ ____
ROOT
ATOM      1  C   UNL     1       2.967   7.111  17.631  0.00  0.00    +0.000 C 
ATOM      2  O   UNL     1       3.179   7.565  16.510  0.00  0.00    +0.000 OA
ATOM      3  N   UNL     1       2.398   7.908  18.621  0.00  0.00    +0.000 N 
ATOM      4  C   UNL     1       1.922   9.249  18.241  0.00  0.00    +0.000 C 
ATOM      5  C   UNL     1       0.599   9.579  18.948  0.00  0.00    +0.000 C 
ATOM      6  N   UNL     1       0.773   9.404  20.395  0.00  0.00    +0.000 N 
ATOM      7  C   UNL     1      -0.096  10.096  21.215  0.00  0.00    +0.000 A 
ATOM      8  N   UNL     1      -0.388   9.603  22.429  0.00  0.00    +0.000 NA
ATOM      9  C   UNL     1      -1.139  10.356  23.246  0.00  0.00    +0.000 A 
ATOM     10  C   UNL     1      -1.614  11.601  22.908  0.00  0.00    +0.000 A 
ATOM     11  C   UNL     1      -1.277  12.024  21.650  0.00  0.00    +0.000 A 
ATOM     12  N   UNL     1      -0.543  11.292  20.798  0.00  0.00    +0.000 NA
ATOM     13  C   UNL     1       1.232   8.081  20.818  0.00  0.00    +0.000 C 
ATOM     14  C   UNL     1       2.546   7.740  20.077  0.00  0.00    +0.000 C 
ENDROOT
BRANCH   1  20
ATOM     15  C   UNL     1       0.985   4.400  17.571  0.00  0.00    +0.000 C 
ATOM     16  C   UNL     1       2.417   4.624  17.852  0.00  0.00    +0.000 A 
ATOM     17  O   UNL     1       3.124   3.490  18.072  0.00  0.00    +0.000 OA
ATOM     18  N   UNL     1       4.448   3.790  18.242  0.00  0.00    +0.000 NA
ATOM     19  C   UNL     1       4.560   5.126  18.137  0.00  0.00    +0.000 A 
ATOM     20  C   UNL     1       3.268   5.716  17.912  0.00  0.00    +0.000 A 
BRANCH  19  21
ATOM     21  C   UNL     1       5.882   5.746  18.272  0.00  0.00    +0.000 A 
ATOM     22  C   UNL     1       6.725   5.375  19.335  0.00  0.00    +0.000 A 
ATOM     23  C   UNL     1       7.965   5.991  19.516  0.00  0.00    +0.000 A 
ATOM     24  C   UNL     1       8.382   6.986  18.635  0.00  0.00    +0.000 A 
ATOM     25  C   UNL     1       7.561   7.360  17.572  0.00  0.00    +0.000 A 
ATOM     26  C   UNL     1       6.317   6.747  17.393  0.00  0.00    +0.000 A 
ENDBRANCH  19  21
ENDBRANCH   1  20
TORSDOF 2
ENDMDL
MODEL 4
REMARK VINA RESULT:      -7.5      3.011      8.307
REMARK  Name = 
REMARK  3 active torsions:
REMARK  status: ('A' for Active; 'I' for Inactive)
REMARK    1  A    between atoms: C_1  and  C_2
REMARK    2  A    between atoms: C_5  and  C_6
REMARK    3  A    between atoms: C_12  and  C_13
REMARK                            x       y       z     vdW  Elec       q    Type
REMARK                         _______ _______ _______ _____ _____    ______ ____
ROOT
ATOM      1  C   UNL     1       4.954   5.085  19.261  0.00  0.00    +0.000 C 
ATOM      2  O   UNL     1       5.827   5.572  19.973  0.00  0.00    +0.000 OA
ATOM      3  N   UNL     1       5.119   5.022  17.881  0.00  0.00    +0.000 N 
ATOM      4  C   UNL     1       6.424   5.414  17.322  0.00  0.00    +0.000 C 
ATOM      5  C   UNL     1       6.827   4.481  16.170  0.00  0.00    +0.000 C 
ATOM      6  N   UNL     1       5.746   4.454  15.177  0.00  0.00    +0.000 N 
ATOM      7  C   UNL     1       6.092   4.093  13.890  0.00  0.00    +0.000 A 
ATOM      8  N   UNL     1       5.175   3.513  13.100  0.00  0.00    +0.000 NA
ATOM      9  C   UNL     1       5.506   3.285  11.820  0.00  0.00    +0.000 A 
ATOM     10  C   UNL     1       6.724   3.621  11.280  0.00  0.00    +0.000 A 
ATOM     11  C   UNL     1       7.603   4.200  12.155  0.00  0.00    +0.000 A 
ATOM     12  N   UNL     1       7.316   4.428  13.446  0.00  0.00    +0.000 NA
ATOM     13  C   UNL     1       4.434   4.056  15.686  0.00  0.00    +0.000 C 
ATOM     14  C   UNL     1       4.050   4.977  16.868  0.00  0.00    +0.000 C 
ENDROOT
BRANCH   1  20
ATOM     15  C   UNL     1       4.376   2.020  20.506  0.00  0.00    +0.000 C 
ATOM     16  C   UNL     1       3.574   3.253  20.393  0.00  0.00    +0.000 A 
ATOM     17  O   UNL     1       2.352   3.177  20.972  0.00  0.00    +0.000 OA
ATOM     18  N   UNL     1       1.718   4.387  20.887  0.00  0.00    +0.000 NA
ATOM     19  C   UNL     1       2.552   5.217  20.237  0.00  0.00    +0.000 A 
ATOM     20  C   UNL     1       3.757   4.524  19.871  0.00  0.00    +0.000 A 
BRANCH  19  21
ATOM     21  C   UNL     1       2.139   6.605  19.999  0.00  0.00    +0.000 A 
ATOM     22  C   UNL     1       1.483   7.323  21.014  0.00  0.00    +0.000 A 
ATOM     23  C   UNL     1       1.031   8.627  20.793  0.00  0.00    +0.000 A 
ATOM     24  C   UNL     1       1.232   9.231  19.555  0.00  0.00    +0.000 A 
ATOM     25  C   UNL     1       1.886   8.534  18.540  0.00  0.00    +0.000 A 
ATOM     26  C   UNL     1       2.335   7.227  18.759  0.00  0.00    +0.000 A 
ENDBRANCH  19  21
ENDBRANCH   1  20
TORSDOF 2
ENDMDL
MODEL 5
REMARK VINA RESULT:      -7.4      3.590      8.700
REMARK  Name = 
REMARK  3 active torsions:
REMARK  status: ('A' for Active; 'I' for Inactive)
REMARK    1  A    between atoms: C_1  and  C_2
REMARK    2  A    between atoms: C_5  and  C_6
REMARK    3  A    between atoms: C_12  and  C_13
REMARK                            x       y       z     vdW  Elec       q    Type
REMARK                         _______ _______ _______ _____ _____    ______ ____
ROOT
ATOM      1  C   UNL     1      -1.215  11.619  22.062  0.00  0.00    +0.000 C 
ATOM      2  O   UNL     1      -2.001  11.499  22.997  0.00  0.00    +0.000 OA
ATOM      3  N   UNL     1      -0.320  10.598  21.754  0.00  0.00    +0.000 N 
ATOM      4  C   UNL     1      -0.449   9.324  22.480  0.00  0.00    +0.000 C 
ATOM      5  C   UNL     1      -0.213   8.133  21.539  0.00  0.00    +0.000 C 
ATOM      6  N   UNL     1       1.083   8.301  20.869  0.00  0.00    +0.000 N 
ATOM      7  C   UNL     1       1.687   7.158  20.387  0.00  0.00    +0.000 A 
ATOM      8  N   UNL     1       2.516   7.246  19.334  0.00  0.00    +0.000 NA
ATOM      9  C   UNL     1       3.179   6.139  18.964  0.00  0.00    +0.000 A 
ATOM     10  C   UNL     1       3.059   4.933  19.611  0.00  0.00    +0.000 A 
ATOM     11  C   UNL     1       2.189   4.928  20.668  0.00  0.00    +0.000 A 
ATOM     12  N   UNL     1       1.495   6.009  21.057  0.00  0.00    +0.000 NA
ATOM     13  C   UNL     1       1.249   9.549  20.124  0.00  0.00    +0.000 C 
ATOM     14  C   UNL     1       0.976  10.743  21.069  0.00  0.00    +0.000 C 
ENDROOT
BRANCH   1  20
ATOM     15  C   UNL     1      -0.187  14.748  22.720  0.00  0.00    +0.000 C 
ATOM     16  C   UNL     1      -0.794  14.088  21.548  0.00  0.00    +0.000 A 
ATOM     17  O   UNL     1      -0.912  14.886  20.459  0.00  0.00    +0.000 OA
ATOM     18  N   UNL     1      -1.407  14.169  19.405  0.00  0.00    +0.000 NA
ATOM     19  C   UNL     1      -1.609  12.916  19.848  0.00  0.00    +0.000 A 
ATOM     20  C   UNL     1      -1.253  12.818  21.238  0.00  0.00    +0.000 A 
BRANCH  19  21
ATOM     21  C   UNL     1      -2.137  11.906  18.924  0.00  0.00    +0.000 A 
ATOM     22  C   UNL     1      -3.526  11.755  18.772  0.00  0.00    +0.000 A 
ATOM     23  C   UNL     1      -4.054  10.764  17.941  0.00  0.00    +0.000 A 
ATOM     24  C   UNL     1      -3.199   9.912  17.248  0.00  0.00    +0.000 A 
ATOM     25  C   UNL     1      -1.819  10.053  17.382  0.00  0.00    +0.000 A 
ATOM     26  C   UNL     1      -1.290  11.042  18.218  0.00  0.00    +0.000 A 
ENDBRANCH  19  21
ENDBRANCH   1  20
TORSDOF 2
ENDMDL
MODEL 6
REMARK VINA RESULT:      -7.3      3.067      8.497
REMARK  Name = 
REMARK  3 active torsions:
REMARK  status: ('A' for Active; 'I' for Inactive)
REMARK    1  A    between atoms: C_1  and  C_2
REMARK    2  A    between atoms: C_5  and  C_6
REMARK    3  A    between atoms: C_12  and  C_13
REMARK                            x       y       z     vdW  Elec       q    Type
REMARK                         _______ _______ _______ _____ _____    ______ ____
ROOT
ATOM      1  C   UNL     1       0.129  10.271  20.157  0.00  0.00    +0.000 C 
ATOM      2  O   UNL     1      -0.287  10.352  21.309  0.00  0.00    +0.000 OA
ATOM      3  N   UNL     1       1.077   9.312  19.812  0.00  0.00    +0.000 N 
ATOM      4  C   UNL     1       1.447   8.310  20.825  0.00  0.00    +0.000 C 
ATOM      5  C   UNL     1       1.624   6.925  20.184  0.00  0.00    +0.000 C 
ATOM      6  N   UNL     1       2.584   7.028  19.079  0.00  0.00    +0.000 N 
ATOM      7  C   UNL     1       3.235   5.868  18.709  0.00  0.00    +0.000 A 
ATOM      8  N   UNL     1       3.660   5.726  17.443  0.00  0.00    +0.000 NA
ATOM      9  C   UNL     1       4.392   4.642  17.146  0.00  0.00    +0.000 A 
ATOM     10  C   UNL     1       4.732   3.681  18.068  0.00  0.00    +0.000 A 
ATOM     11  C   UNL     1       4.252   3.898  19.331  0.00  0.00    +0.000 A 
ATOM     12  N   UNL     1       3.502   4.960  19.663  0.00  0.00    +0.000 NA
ATOM     13  C   UNL     1       2.249   8.004  18.042  0.00  0.00    +0.000 C 
ATOM     14  C   UNL     1       2.039   9.388  18.698  0.00  0.00    +0.000 C 
ENDROOT
BRANCH   1  20
ATOM     15  C   UNL     1      -2.275   9.743  17.872  0.00  0.00    +0.000 C 
ATOM     16  C   UNL     1      -1.424  10.896  18.224  0.00  0.00    +0.000 A 
ATOM     17  O   UNL     1      -1.700  12.025  17.528  0.00  0.00    +0.000 OA
ATOM     18  N   UNL     1      -0.920  13.054  17.977  0.00  0.00    +0.000 NA
ATOM     19  C   UNL     1      -0.142  12.555  18.954  0.00  0.00    +0.000 A 
ATOM     20  C   UNL     1      -0.410  11.153  19.133  0.00  0.00    +0.000 A 
BRANCH  19  21
ATOM     21  C   UNL     1       0.808  13.440  19.636  0.00  0.00    +0.000 A 
ATOM     22  C   UNL     1       0.369  14.671  20.155  0.00  0.00    +0.000 A 
ATOM     23  C   UNL     1       1.265  15.556  20.759  0.00  0.00    +0.000 A 
ATOM     24  C   UNL     1       2.613  15.220  20.857  0.00  0.00    +0.000 A 
ATOM     25  C   UNL     1       3.063  14.000  20.354  0.00  0.00    +0.000 A 
ATOM     26  C   UNL     1       2.166  13.116  19.744  0.00  0.00    +0.000 A 
ENDBRANCH  19  21
ENDBRANCH   1  20
TORSDOF 2
ENDMDL
MODEL 7
REMARK VINA RESULT:      -7.2      8.139      9.880
REMARK  Name = 
REMARK  3 active torsions:
REMARK  status: ('A' for Active; 'I' for Inactive)
REMARK    1  A    between atoms: C_1  and  C_2
REMARK    2  A    between atoms: C_5  and  C_6
REMARK    3  A    between atoms: C_12  and  C_13
REMARK                            x       y       z     vdW  Elec       q    Type
REMARK                         _______ _______ _______ _____ _____    ______ ____
ROOT
ATOM      1  C   UNL     1       6.587  14.940  20.514  0.00  0.00    +0.000 C 
ATOM      2  O   UNL     1       6.495  14.303  21.560  0.00  0.00    +0.000 OA
ATOM      3  N   UNL     1       5.446  15.302  19.804  0.00  0.00    +0.000 N 
ATOM      4  C   UNL     1       4.135  15.034  20.418  0.00  0.00    +0.000 C 
ATOM      5  C   UNL     1       3.162  16.194  20.155  0.00  0.00    +0.000 C 
ATOM      6  N   UNL     1       3.095  16.445  18.711  0.00  0.00    +0.000 N 
ATOM      7  C   UNL     1       1.962  17.076  18.240  0.00  0.00    +0.000 A 
ATOM      8  N   UNL     1       2.037  17.821  17.125  0.00  0.00    +0.000 NA
ATOM      9  C   UNL     1       0.896  18.321  16.628  0.00  0.00    +0.000 A 
ATOM     10  C   UNL     1      -0.337  18.104  17.194  0.00  0.00    +0.000 A 
ATOM     11  C   UNL     1      -0.324  17.342  18.331  0.00  0.00    +0.000 A 
ATOM     12  N   UNL     1       0.798  16.839  18.869  0.00  0.00    +0.000 NA
ATOM     13  C   UNL     1       4.376  16.729  18.062  0.00  0.00    +0.000 C 
ATOM     14  C   UNL     1       5.361  15.575  18.358  0.00  0.00    +0.000 C 
ENDROOT
BRANCH   1  20
ATOM     15  C   UNL     1       7.956  18.002  20.334  0.00  0.00    +0.000 C 
ATOM     16  C   UNL     1       8.427  16.641  20.007  0.00  0.00    +0.000 A 
ATOM     17  O   UNL     1       9.719  16.582  19.604  0.00  0.00    +0.000 OA
ATOM     18  N   UNL     1      10.087  15.280  19.403  0.00  0.00    +0.000 NA
ATOM     19  C   UNL     1       9.006  14.525  19.672  0.00  0.00    +0.000 A 
ATOM     20  C   UNL     1       7.897  15.362  20.041  0.00  0.00    +0.000 A 
BRANCH  19  21
ATOM     21  C   UNL     1       9.103  13.067  19.546  0.00  0.00    +0.000 A 
ATOM     22  C   UNL     1       9.271  12.275  20.695  0.00  0.00    +0.000 A 
ATOM     23  C   UNL     1       9.420  10.890  20.597  0.00  0.00    +0.000 A 
ATOM     24  C   UNL     1       9.401  10.276  19.347  0.00  0.00    +0.000 A 
ATOM     25  C   UNL     1       9.228  11.047  18.198  0.00  0.00    +0.000 A 
ATOM     26  C   UNL     1       9.083  12.435  18.296  0.00  0.00    +0.000 A 
ENDBRANCH  19  21
ENDBRANCH   1  20
TORSDOF 2
ENDMDL
MODEL 8
REMARK VINA RESULT:      -7.2      9.225     10.729
REMARK  Name = 
REMARK  3 active torsions:
REMARK  status: ('A' for Active; 'I' for Inactive)
REMARK    1  A    between atoms: C_1  and  C_2
REMARK    2  A    between atoms: C_5  and  C_6
REMARK    3  A    between atoms: C_12  and  C_13
REMARK                            x       y       z     vdW  Elec       q    Type
REMARK                         _______ _______ _______ _____ _____    ______ ____
ROOT
ATOM      1  C   UNL     1       9.557  16.035  19.650  0.00  0.00    +0.000 C 
ATOM      2  O   UNL     1      10.152  16.381  20.667  0.00  0.00    +0.000 OA
ATOM      3  N   UNL     1       8.167  16.087  19.590  0.00  0.00    +0.000 N 
ATOM      4  C   UNL     1       7.449  16.709  20.715  0.00  0.00    +0.000 C 
ATOM      5  C   UNL     1       6.268  17.552  20.210  0.00  0.00    +0.000 C 
ATOM      6  N   UNL     1       5.415  16.716  19.357  0.00  0.00    +0.000 N 
ATOM      7  C   UNL     1       4.100  17.112  19.214  0.00  0.00    +0.000 A 
ATOM      8  N   UNL     1       3.434  16.791  18.093  0.00  0.00    +0.000 NA
ATOM      9  C   UNL     1       2.126  17.085  18.036  0.00  0.00    +0.000 A 
ATOM     10  C   UNL     1       1.438  17.685  19.063  0.00  0.00    +0.000 A 
ATOM     11  C   UNL     1       2.193  17.985  20.165  0.00  0.00    +0.000 A 
ATOM     12  N   UNL     1       3.506  17.723  20.253  0.00  0.00    +0.000 NA
ATOM     13  C   UNL     1       6.085  16.089  18.218  0.00  0.00    +0.000 C 
ATOM     14  C   UNL     1       7.293  15.270  18.729  0.00  0.00    +0.000 C 
ENDROOT
BRANCH   1  20
ATOM     15  C   UNL     1      11.325  17.834  17.433  0.00  0.00    +0.000 C 
ATOM     16  C   UNL     1      11.050  16.394  17.606  0.00  0.00    +0.000 A 
ATOM     17  O   UNL     1      11.698  15.594  16.725  0.00  0.00    +0.000 OA
ATOM     18  N   UNL     1      11.446  14.281  17.013  0.00  0.00    +0.000 NA
ATOM     19  C   UNL     1      10.624  14.267  18.076  0.00  0.00    +0.000 A 
ATOM     20  C   UNL     1      10.314  15.612  18.482  0.00  0.00    +0.000 A 
BRANCH  19  21
ATOM     21  C   UNL     1      10.180  12.980  18.622  0.00  0.00    +0.000 A 
ATOM     22  C   UNL     1      10.489  12.639  19.951  0.00  0.00    +0.000 A 
ATOM     23  C   UNL     1      10.127  11.397  20.476  0.00  0.00    +0.000 A 
ATOM     24  C   UNL     1       9.447  10.478  19.680  0.00  0.00    +0.000 A 
ATOM     25  C   UNL     1       9.127  10.803  18.363  0.00  0.00    +0.000 A 
ATOM     26  C   UNL     1       9.495  12.045  17.835  0.00  0.00    +0.000 A 
ENDBRANCH  19  21
ENDBRANCH   1  20
TORSDOF 2
ENDMDL
MODEL 9
REMARK VINA RESULT:      -7.1      9.497     10.725
REMARK  Name = 
REMARK  3 active torsions:
REMARK  status: ('A' for Active; 'I' for Inactive)
REMARK    1  A    between atoms: C_1  and  C_2
REMARK    2  A    between atoms: C_5  and  C_6
REMARK    3  A    between atoms: C_12  and  C_13
REMARK                            x       y       z     vdW  Elec       q    Type
REMARK                         _______ _______ _______ _____ _____    ______ ____
ROOT
ATOM      1  C   UNL     1       8.467  15.813  18.702  0.00  0.00    +0.000 C 
ATOM      2  O   UNL     1       7.541  16.187  17.988  0.00  0.00    +0.000 OA
ATOM      3  N   UNL     1       8.265  15.577  20.059  0.00  0.00    +0.000 N 
ATOM      4  C   UNL     1       6.887  15.641  20.574  0.00  0.00    +0.000 C 
ATOM      5  C   UNL     1       6.639  14.534  21.609  0.00  0.00    +0.000 C 
ATOM      6  N   UNL     1       7.664  14.620  22.657  0.00  0.00    +0.000 N 
ATOM      7  C   UNL     1       7.350  14.068  23.882  0.00  0.00    +0.000 A 
ATOM      8  N   UNL     1       8.335  13.604  24.668  0.00  0.00    +0.000 NA
ATOM      9  C   UNL     1       8.009  13.184  25.899  0.00  0.00    +0.000 A 
ATOM     10  C   UNL     1       6.728  13.213  26.396  0.00  0.00    +0.000 A 
ATOM     11  C   UNL     1       5.783  13.692  25.528  0.00  0.00    +0.000 A 
ATOM     12  N   UNL     1       6.067  14.104  24.283  0.00  0.00    +0.000 NA
ATOM     13  C   UNL     1       9.049  14.547  22.190  0.00  0.00    +0.000 C 
ATOM     14  C   UNL     1       9.282  15.642  21.123  0.00  0.00    +0.000 C 
ENDROOT
BRANCH   1  20
ATOM     15  C   UNL     1      10.701  17.950  17.389  0.00  0.00    +0.000 C 
ATOM     16  C   UNL     1      10.674  16.490  17.604  0.00  0.00    +0.000 A 
ATOM     17  O   UNL     1      11.823  15.857  17.262  0.00  0.00    +0.000 OA
ATOM     18  N   UNL     1      11.733  14.528  17.570  0.00  0.00    +0.000 NA
ATOM     19  C   UNL     1      10.511  14.332  18.096  0.00  0.00    +0.000 A 
ATOM     20  C   UNL     1       9.775  15.568  18.114  0.00  0.00    +0.000 A 
BRANCH  19  21
ATOM     21  C   UNL     1      10.126  12.985  18.531  0.00  0.00    +0.000 A 
ATOM     22  C   UNL     1      10.687  12.440  19.699  0.00  0.00    +0.000 A 
ATOM     23  C   UNL     1      10.378  11.139  20.103  0.00  0.00    +0.000 A 
ATOM     24  C   UNL     1       9.501  10.366  19.347  0.00  0.00    +0.000 A 
ATOM     25  C   UNL     1       8.931  10.895  18.190  0.00  0.00    +0.000 A 
ATOM     26  C   UNL     1       9.244  12.196  17.782  0.00  0.00    +0.000 A 
ENDBRANCH  19  21
ENDBRANCH   1  20
TORSDOF 2
ENDMDL
