MODEL 1
REMARK VINA RESULT:      -7.0      0.000      0.000
REMARK  Name = 
REMARK  4 active torsions:
REMARK  status: ('A' for Active; 'I' for Inactive)
REMARK    1  A    between atoms: C_1  and  C_2
REMARK    2  A    between atoms: C_2  and  C_3
REMARK    3  A    between atoms: C_2  and  N_4
REMARK    4  A    between atoms: C_11  and  C_12
REMARK                            x       y       z     vdW  Elec       q    Type
REMARK                         _______ _______ _______ _____ _____    ______ ____
ROOT
ATOM      1  N   UNL     1      -0.220  11.456  22.563  0.00  0.00    +0.000 NA
ATOM      2  C   UNL     1      -0.102   9.979  22.699  0.00  0.00    +0.000 C 
ATOM      3  C   UNL     1      -0.405   9.188  21.409  0.00  0.00    +0.000 C 
ATOM      4  N   UNL     1       0.347   9.699  20.252  0.00  0.00    +0.000 N 
ATOM      5  C   UNL     1       1.246   8.860  19.625  0.00  0.00    +0.000 A 
ATOM      6  C   UNL     1       1.591   9.063  18.291  0.00  0.00    +0.000 A 
ATOM      7  C   UNL     1       2.400   8.139  17.622  0.00  0.00    +0.000 A 
ATOM      8  C   UNL     1       2.895   7.014  18.285  0.00  0.00    +0.000 A 
ATOM      9  C   UNL     1       2.537   6.925  19.629  0.00  0.00    +0.000 A 
ATOM     10  N   UNL     1       1.732   7.795  20.291  0.00  0.00    +0.000 NA
ATOM     11  C   UNL     1       0.486  11.155  20.123  0.00  0.00    +0.000 C 
ATOM     12  C   UNL     1       0.744  11.829  21.493  0.00  0.00    +0.000 C 
ENDROOT
BRANCH   8  13
ATOM     13  C   UNL     1       3.698   5.977  17.601  0.00  0.00    +0.000 A 
ATOM     14  C   UNL     1       3.342   4.621  17.644  0.00  0.00    +0.000 A 
ATOM     15  C   UNL     1       4.148   3.682  17.015  0.00  0.00    +0.000 A 
ATOM     16  N   UNL     1       5.272   3.989  16.340  0.00  0.00    +0.000 NA
ATOM     17  C   UNL     1       5.608   5.292  16.296  0.00  0.00    +0.000 A 
ATOM     18  C   UNL     1       4.870   6.300  16.901  0.00  0.00    +0.000 A 
ENDBRANCH   8  13
BRANCH   1  20
ATOM     19  C   UNL     1      -2.522  11.803  23.505  0.00  0.00    +0.000 C 
ATOM     20  C   UNL     1      -1.606  11.910  22.275  0.00  0.00    +0.000 C 
ATOM     21  C   UNL     1      -1.642  13.372  21.801  0.00  0.00    +0.000 C 
ENDBRANCH   1  20
TORSDOF 2
ENDMDL
MODEL 2
REMARK VINA RESULT:      -6.9      0.675      1.234
REMARK  Name = 
REMARK  4 active torsions:
REMARK  status: ('A' for Active; 'I' for Inactive)
REMARK    1  A    between atoms: C_1  and  C_2
REMARK    2  A    between atoms: C_2  and  C_3
REMARK    3  A    between atoms: C_2  and  N_4
REMARK    4  A    between atoms: C_11  and  C_12
REMARK                            x       y       z     vdW  Elec       q    Type
REMARK                         _______ _______ _______ _____ _____    ______ ____
ROOT
ATOM      1  N   UNL     1      -0.259  12.316  22.163  0.00  0.00    +0.000 NA
ATOM      2  C   UNL     1      -0.264  10.850  22.420  0.00  0.00    +0.000 C 
ATOM      3  C   UNL     1      -0.581   9.982  21.184  0.00  0.00    +0.000 C 
ATOM      4  N   UNL     1       0.250  10.337  20.024  0.00  0.00    +0.000 N 
ATOM      5  C   UNL     1       1.103   9.384  19.505  0.00  0.00    +0.000 A 
ATOM      6  C   UNL     1       1.512   9.450  18.175  0.00  0.00    +0.000 A 
ATOM      7  C   UNL     1       2.269   8.415  17.616  0.00  0.00    +0.000 A 
ATOM      8  C   UNL     1       2.648   7.314  18.386  0.00  0.00    +0.000 A 
ATOM      9  C   UNL     1       2.234   7.362  19.716  0.00  0.00    +0.000 A 
ATOM     10  N   UNL     1       1.477   8.343  20.272  0.00  0.00    +0.000 NA
ATOM     11  C   UNL     1       0.510  11.763  19.787  0.00  0.00    +0.000 C 
ATOM     12  C   UNL     1       0.770  12.526  21.109  0.00  0.00    +0.000 C 
ENDROOT
BRANCH   8  13
ATOM     13  C   UNL     1       3.389   6.166  17.821  0.00  0.00    +0.000 A 
ATOM     14  C   UNL     1       4.650   6.322  17.227  0.00  0.00    +0.000 A 
ATOM     15  C   UNL     1       5.290   5.219  16.679  0.00  0.00    +0.000 A 
ATOM     16  N   UNL     1       4.778   3.974  16.685  0.00  0.00    +0.000 NA
ATOM     17  C   UNL     1       3.570   3.826  17.261  0.00  0.00    +0.000 A 
ATOM     18  C   UNL     1       2.851   4.870  17.826  0.00  0.00    +0.000 A 
ENDBRANCH   8  13
BRANCH   1  20
ATOM     19  C   UNL     1      -2.666  12.553  22.842  0.00  0.00    +0.000 C 
ATOM     20  C   UNL     1      -1.593  12.849  21.781  0.00  0.00    +0.000 C 
ATOM     21  C   UNL     1      -1.561  14.372  21.572  0.00  0.00    +0.000 C 
ENDBRANCH   1  20
TORSDOF 2
ENDMDL
MODEL 3
REMARK VINA RESULT:      -6.7      1.696      2.070
REMARK  Name = 
REMARK  4 active torsions:
REMARK  status: ('A' for Active; 'I' for Inactive)
REMARK    1  A    between atoms: C_1  and  C_2
REMARK    2  A    between atoms: C_2  and  C_3
REMARK    3  A    between atoms: C_2  and  N_4
REMARK    4  A    between atoms: C_11  and  C_12
REMARK                            x       y       z     vdW  Elec       q    Type
REMARK                         _______ _______ _______ _____ _____    ______ ____
ROOT
ATOM      1  N   UNL     1       0.225  13.181  20.983  0.00  0.00    +0.000 NA
ATOM      2  C   UNL     1      -0.130  11.834  21.507  0.00  0.00    +0.000 C 
ATOM      3  C   UNL     1      -0.437  10.782  20.420  0.00  0.00    +0.000 C 
ATOM      4  N   UNL     1       0.615  10.718  19.393  0.00  0.00    +0.000 N 
ATOM      5  C   UNL     1       1.312   9.537  19.234  0.00  0.00    +0.000 A 
ATOM      6  C   UNL     1       1.919   9.232  18.018  0.00  0.00    +0.000 A 
ATOM      7  C   UNL     1       2.514   7.983  17.819  0.00  0.00    +0.000 A 
ATOM      8  C   UNL     1       2.531   7.031  18.840  0.00  0.00    +0.000 A 
ATOM      9  C   UNL     1       1.944   7.446  20.035  0.00  0.00    +0.000 A 
ATOM     10  N   UNL     1       1.338   8.644  20.242  0.00  0.00    +0.000 NA
ATOM     11  C   UNL     1       1.204  11.986  18.945  0.00  0.00    +0.000 C 
ATOM     12  C   UNL     1       1.420  12.966  20.124  0.00  0.00    +0.000 C 
ENDROOT
BRANCH   8  13
ATOM     13  C   UNL     1       3.088   5.673  18.654  0.00  0.00    +0.000 A 
ATOM     14  C   UNL     1       4.285   5.276  19.267  0.00  0.00    +0.000 A 
ATOM     15  C   UNL     1       4.784   4.002  19.031  0.00  0.00    +0.000 A 
ATOM     16  N   UNL     1       4.180   3.093  18.242  0.00  0.00    +0.000 NA
ATOM     17  C   UNL     1       3.028   3.476  17.660  0.00  0.00    +0.000 A 
ATOM     18  C   UNL     1       2.458   4.730  17.829  0.00  0.00    +0.000 A 
ENDBRANCH   8  13
BRANCH   1  20
ATOM     19  C   UNL     1      -2.121  14.060  21.160  0.00  0.00    +0.000 C 
ATOM     20  C   UNL     1      -0.893  13.843  20.261  0.00  0.00    +0.000 C 
ATOM     21  C   UNL     1      -0.481  15.217  19.706  0.00  0.00    +0.000 C 
ENDBRANCH   1  20
TORSDOF 2
ENDMDL
MODEL 4
REMARK VINA RESULT:      -6.7      1.815      2.137
REMARK  Name = 
REMARK  4 active torsions:
REMARK  status: ('A' for Active; 'I' for Inactive)
REMARK    1  A    between atoms: C_1  and  C_2
REMARK    2  A    between atoms: C_2  and  C_3
REMARK    3  A    between atoms: C_2  and  N_4
REMARK    4  A    between atoms: C_11  and  C_12
REMARK                            x       y       z     vdW  Elec       q    Type
REMARK                         _______ _______ _______ _____ _____    ______ ____
ROOT
ATOM      1  N   UNL     1       0.316  13.429  20.763  0.00  0.00    +0.000 NA
ATOM      2  C   UNL     1      -0.040  12.105  21.344  0.00  0.00    +0.000 C 
ATOM      3  C   UNL     1      -0.395  11.021  20.304  0.00  0.00    +0.000 C 
ATOM      4  N   UNL     1       0.624  10.907  19.249  0.00  0.00    +0.000 N 
ATOM      5  C   UNL     1       1.300   9.712  19.110  0.00  0.00    +0.000 A 
ATOM      6  C   UNL     1       1.865   9.356  17.887  0.00  0.00    +0.000 A 
ATOM      7  C   UNL     1       2.437   8.092  17.714  0.00  0.00    +0.000 A 
ATOM      8  C   UNL     1       2.473   7.175  18.767  0.00  0.00    +0.000 A 
ATOM      9  C   UNL     1       1.929   7.641  19.963  0.00  0.00    +0.000 A 
ATOM     10  N   UNL     1       1.346   8.853  20.146  0.00  0.00    +0.000 NA
ATOM     11  C   UNL     1       1.215  12.150  18.739  0.00  0.00    +0.000 C 
ATOM     12  C   UNL     1       1.481  13.167  19.876  0.00  0.00    +0.000 C 
ENDROOT
BRANCH   8  13
ATOM     13  C   UNL     1       3.006   5.805  18.610  0.00  0.00    +0.000 A 
ATOM     14  C   UNL     1       2.295   4.812  17.921  0.00  0.00    +0.000 A 
ATOM     15  C   UNL     1       2.822   3.530  17.833  0.00  0.00    +0.000 A 
ATOM     16  N   UNL     1       4.003   3.165  18.367  0.00  0.00    +0.000 NA
ATOM     17  C   UNL     1       4.685   4.123  19.024  0.00  0.00    +0.000 A 
ATOM     18  C   UNL     1       4.234   5.427  19.172  0.00  0.00    +0.000 A 
ENDBRANCH   8  13
BRANCH   1  20
ATOM     19  C   UNL     1      -1.997  14.382  20.990  0.00  0.00    +0.000 C 
ATOM     20  C   UNL     1      -0.815  14.081  20.053  0.00  0.00    +0.000 C 
ATOM     21  C   UNL     1      -0.392  15.410  19.404  0.00  0.00    +0.000 C 
ENDBRANCH   1  20
TORSDOF 2
ENDMDL
MODEL 5
REMARK VINA RESULT:      -6.7      2.431      7.862
REMARK  Name = 
REMARK  4 active torsions:
REMARK  status: ('A' for Active; 'I' for Inactive)
REMARK    1  A    between atoms: C_1  and  C_2
REMARK    2  A    between atoms: C_2  and  C_3
REMARK    3  A    between atoms: C_2  and  N_4
REMARK    4  A    between atoms: C_11  and  C_12
REMARK                            x       y       z     vdW  Elec       q    Type
REMARK                         _______ _______ _______ _____ _____    ______ ____
ROOT
ATOM      1  N   UNL     1       2.345   3.198  19.411  0.00  0.00    +0.000 NA
ATOM      2  C   UNL     1       2.373   4.201  20.510  0.00  0.00    +0.000 C 
ATOM      3  C   UNL     1       3.160   5.488  20.187  0.00  0.00    +0.000 C 
ATOM      4  N   UNL     1       2.753   6.084  18.904  0.00  0.00    +0.000 N 
ATOM      5  C   UNL     1       2.206   7.351  18.908  0.00  0.00    +0.000 A 
ATOM      6  C   UNL     1       2.275   8.154  17.772  0.00  0.00    +0.000 A 
ATOM      7  C   UNL     1       1.837   9.481  17.817  0.00  0.00    +0.000 A 
ATOM      8  C   UNL     1       1.300  10.015  18.990  0.00  0.00    +0.000 A 
ATOM      9  C   UNL     1       1.226   9.120  20.057  0.00  0.00    +0.000 A 
ATOM     10  N   UNL     1       1.670   7.837  20.043  0.00  0.00    +0.000 NA
ATOM     11  C   UNL     1       2.484   5.169  17.787  0.00  0.00    +0.000 C 
ATOM     12  C   UNL     1       1.729   3.901  18.254  0.00  0.00    +0.000 C 
ENDROOT
BRANCH   8  13
ATOM     13  C   UNL     1       0.887  11.430  19.104  0.00  0.00    +0.000 A 
ATOM     14  C   UNL     1      -0.326  11.798  19.705  0.00  0.00    +0.000 A 
ATOM     15  C   UNL     1      -0.685  13.138  19.755  0.00  0.00    +0.000 A 
ATOM     16  N   UNL     1       0.072  14.138  19.264  0.00  0.00    +0.000 NA
ATOM     17  C   UNL     1       1.238  13.781  18.693  0.00  0.00    +0.000 A 
ATOM     18  C   UNL     1       1.676  12.469  18.589  0.00  0.00    +0.000 A 
ENDBRANCH   8  13
BRANCH   1  20
ATOM     19  C   UNL     1       4.411   2.123  20.352  0.00  0.00    +0.000 C 
ATOM     20  C   UNL     1       3.686   2.636  19.097  0.00  0.00    +0.000 C 
ATOM     21  C   UNL     1       3.595   1.463  18.106  0.00  0.00    +0.000 C 
ENDBRANCH   1  20
TORSDOF 2
ENDMDL
MODEL 6
REMARK VINA RESULT:      -6.5      2.029      2.739
REMARK  Name = 
REMARK  4 active torsions:
REMARK  status: ('A' for Active; 'I' for Inactive)
REMARK    1  A    between atoms: C_1  and  C_2
REMARK    2  A    between atoms: C_2  and  C_3
REMARK    3  A    between atoms: C_2  and  N_4
REMARK    4  A    between atoms: C_11  and  C_12
REMARK                            x       y       z     vdW  Elec       q    Type
REMARK                         _______ _______ _______ _____ _____    ______ ____
ROOT
ATOM      1  N   UNL     1       0.336  13.333  20.608  0.00  0.00    +0.000 NA
ATOM      2  C   UNL     1      -0.119  12.120  21.342  0.00  0.00    +0.000 C 
ATOM      3  C   UNL     1      -0.459  10.914  20.442  0.00  0.00    +0.000 C 
ATOM      4  N   UNL     1       0.616  10.612  19.484  0.00  0.00    +0.000 N 
ATOM      5  C   UNL     1       1.242   9.384  19.560  0.00  0.00    +0.000 A 
ATOM      6  C   UNL     1       1.864   8.837  18.440  0.00  0.00    +0.000 A 
ATOM      7  C   UNL     1       2.385   7.540  18.483  0.00  0.00    +0.000 A 
ATOM      8  C   UNL     1       2.312   6.782  19.653  0.00  0.00    +0.000 A 
ATOM      9  C   UNL     1       1.718   7.432  20.733  0.00  0.00    +0.000 A 
ATOM     10  N   UNL     1       1.182   8.680  20.706  0.00  0.00    +0.000 NA
ATOM     11  C   UNL     1       1.297  11.746  18.848  0.00  0.00    +0.000 C 
ATOM     12  C   UNL     1       1.539  12.903  19.848  0.00  0.00    +0.000 C 
ENDROOT
BRANCH   8  13
ATOM     13  C   UNL     1       2.788   5.383  19.726  0.00  0.00    +0.000 A 
ATOM     14  C   UNL     1       3.751   4.884  18.837  0.00  0.00    +0.000 A 
ATOM     15  C   UNL     1       4.138   3.554  18.924  0.00  0.00    +0.000 A 
ATOM     16  N   UNL     1       3.649   2.687  19.831  0.00  0.00    +0.000 NA
ATOM     17  C   UNL     1       2.728   3.171  20.686  0.00  0.00    +0.000 A 
ATOM     18  C   UNL     1       2.273   4.482  20.670  0.00  0.00    +0.000 A 
ENDBRANCH   8  13
BRANCH   1  20
ATOM     19  C   UNL     1      -1.970  14.327  20.532  0.00  0.00    +0.000 C 
ATOM     20  C   UNL     1      -0.717  13.921  19.739  0.00  0.00    +0.000 C 
ATOM     21  C   UNL     1      -0.215  15.173  19.000  0.00  0.00    +0.000 C 
ENDBRANCH   1  20
TORSDOF 2
ENDMDL
MODEL 7
REMARK VINA RESULT:      -6.4      1.705      2.818
REMARK  Name = 
REMARK  4 active torsions:
REMARK  status: ('A' for Active; 'I' for Inactive)
REMARK    1  A    between atoms: C_1  and  C_2
REMARK    2  A    between atoms: C_2  and  C_3
REMARK    3  A    between atoms: C_2  and  N_4
REMARK    4  A    between atoms: C_11  and  C_12
REMARK                            x       y       z     vdW  Elec       q    Type
REMARK                         _______ _______ _______ _____ _____    ______ ____
ROOT
ATOM      1  N   UNL     1      -1.362  13.332  19.532  0.00  0.00    +0.000 NA
ATOM      2  C   UNL     1      -0.292  13.090  18.526  0.00  0.00    +0.000 C 
ATOM      3  C   UNL     1       0.966  12.390  19.081  0.00  0.00    +0.000 C 
ATOM      4  N   UNL     1       0.638  11.176  19.844  0.00  0.00    +0.000 N 
ATOM      5  C   UNL     1       1.116   9.962  19.392  0.00  0.00    +0.000 A 
ATOM      6  C   UNL     1       1.292   8.898  20.274  0.00  0.00    +0.000 A 
ATOM      7  C   UNL     1       1.896   7.714  19.840  0.00  0.00    +0.000 A 
ATOM      8  C   UNL     1       2.309   7.568  18.515  0.00  0.00    +0.000 A 
ATOM      9  C   UNL     1       2.044   8.666  17.698  0.00  0.00    +0.000 A 
ATOM     10  N   UNL     1       1.484   9.835  18.103  0.00  0.00    +0.000 NA
ATOM     11  C   UNL     1      -0.539  11.222  20.720  0.00  0.00    +0.000 C 
ATOM     12  C   UNL     1      -1.713  11.988  20.063  0.00  0.00    +0.000 C 
ENDROOT
BRANCH   8  13
ATOM     13  C   UNL     1       3.012   6.361  18.029  0.00  0.00    +0.000 A 
ATOM     14  C   UNL     1       4.307   6.426  17.496  0.00  0.00    +0.000 A 
ATOM     15  C   UNL     1       4.910   5.269  17.021  0.00  0.00    +0.000 A 
ATOM     16  N   UNL     1       4.328   4.055  17.043  0.00  0.00    +0.000 NA
ATOM     17  C   UNL     1       3.086   3.996  17.559  0.00  0.00    +0.000 A 
ATOM     18  C   UNL     1       2.401   5.098  18.050  0.00  0.00    +0.000 A 
ENDBRANCH   8  13
BRANCH   1  20
ATOM     19  C   UNL     1      -0.670  15.692  20.046  0.00  0.00    +0.000 C 
ATOM     20  C   UNL     1      -0.958  14.286  20.599  0.00  0.00    +0.000 C 
ATOM     21  C   UNL     1      -2.044  14.430  21.678  0.00  0.00    +0.000 C 
ENDBRANCH   1  20
TORSDOF 2
ENDMDL
MODEL 8
REMARK VINA RESULT:      -6.3      1.664      2.579
REMARK  Name = 
REMARK  4 active torsions:
REMARK  status: ('A' for Active; 'I' for Inactive)
REMARK    1  A    between atoms: C_1  and  C_2
REMARK    2  A    between atoms: C_2  and  C_3
REMARK    3  A    between atoms: C_2  and  N_4
REMARK    4  A    between atoms: C_11  and  C_12
REMARK                            x       y       z     vdW  Elec       q    Type
REMARK                         _______ _______ _______ _____ _____    ______ ____
ROOT
ATOM      1  N   UNL     1      -1.448  13.219  19.472  0.00  0.00    +0.000 NA
ATOM      2  C   UNL     1      -0.306  13.049  18.532  0.00  0.00    +0.000 C 
ATOM      3  C   UNL     1       0.931  12.357  19.141  0.00  0.00    +0.000 C 
ATOM      4  N   UNL     1       0.587  11.102  19.827  0.00  0.00    +0.000 N 
ATOM      5  C   UNL     1       1.128   9.922  19.356  0.00  0.00    +0.000 A 
ATOM      6  C   UNL     1       1.275   8.824  20.202  0.00  0.00    +0.000 A 
ATOM      7  C   UNL     1       1.940   7.677  19.760  0.00  0.00    +0.000 A 
ATOM      8  C   UNL     1       2.445   7.601  18.461  0.00  0.00    +0.000 A 
ATOM      9  C   UNL     1       2.205   8.727  17.676  0.00  0.00    +0.000 A 
ATOM     10  N   UNL     1       1.586   9.862  18.092  0.00  0.00    +0.000 NA
ATOM     11  C   UNL     1      -0.648  11.079  20.621  0.00  0.00    +0.000 C 
ATOM     12  C   UNL     1      -1.796  11.843  19.918  0.00  0.00    +0.000 C 
ENDROOT
BRANCH   8  13
ATOM     13  C   UNL     1       3.213   6.435  17.972  0.00  0.00    +0.000 A 
ATOM     14  C   UNL     1       2.755   5.122  18.153  0.00  0.00    +0.000 A 
ATOM     15  C   UNL     1       3.531   4.060  17.708  0.00  0.00    +0.000 A 
ATOM     16  N   UNL     1       4.718   4.204  17.090  0.00  0.00    +0.000 NA
ATOM     17  C   UNL     1       5.152   5.467  16.913  0.00  0.00    +0.000 A 
ATOM     18  C   UNL     1       4.451   6.589  17.332  0.00  0.00    +0.000 A 
ENDBRANCH   8  13
BRANCH   1  20
ATOM     19  C   UNL     1      -0.786  15.551  20.129  0.00  0.00    +0.000 C 
ATOM     20  C   UNL     1      -1.144  14.134  20.604  0.00  0.00    +0.000 C 
ATOM     21  C   UNL     1      -2.333  14.259  21.571  0.00  0.00    +0.000 C 
ENDBRANCH   1  20
TORSDOF 2
ENDMDL
MODEL 9
REMARK VINA RESULT:      -6.3      2.486      8.076
REMARK  Name = 
REMARK  4 active torsions:
REMARK  status: ('A' for Active; 'I' for Inactive)
REMARK    1  A    between atoms: C_1  and  C_2
REMARK    2  A    between atoms: C_2  and  C_3
REMARK    3  A    between atoms: C_2  and  N_4
REMARK    4  A    between atoms: C_11  and  C_12
REMARK                            x       y       z     vdW  Elec       q    Type
REMARK                         _______ _______ _______ _____ _____    ______ ____
ROOT
ATOM      1  N   UNL     1       4.393   3.916  18.511  0.00  0.00    +0.000 NA
ATOM      2  C   UNL     1       3.656   4.651  17.447  0.00  0.00    +0.000 C 
ATOM      3  C   UNL     1       2.299   5.236  17.891  0.00  0.00    +0.000 C 
ATOM      4  N   UNL     1       2.409   6.020  19.131  0.00  0.00    +0.000 N 
ATOM      5  C   UNL     1       2.092   7.363  19.093  0.00  0.00    +0.000 A 
ATOM      6  C   UNL     1       1.682   8.026  20.248  0.00  0.00    +0.000 A 
ATOM      7  C   UNL     1       1.239   9.350  20.183  0.00  0.00    +0.000 A 
ATOM      8  C   UNL     1       1.222  10.038  18.968  0.00  0.00    +0.000 A 
ATOM      9  C   UNL     1       1.697   9.308  17.879  0.00  0.00    +0.000 A 
ATOM     10  N   UNL     1       2.107   8.014  17.914  0.00  0.00    +0.000 NA
ATOM     11  C   UNL     1       3.287   5.501  20.186  0.00  0.00    +0.000 C 
ATOM     12  C   UNL     1       4.592   4.905  19.604  0.00  0.00    +0.000 C 
ENDROOT
BRANCH   8  13
ATOM     13  C   UNL     1       0.698  11.415  18.840  0.00  0.00    +0.000 A 
ATOM     14  C   UNL     1       1.551  12.515  18.670  0.00  0.00    +0.000 A 
ATOM     15  C   UNL     1       1.012  13.792  18.590  0.00  0.00    +0.000 A 
ATOM     16  N   UNL     1      -0.307  14.057  18.658  0.00  0.00    +0.000 NA
ATOM     17  C   UNL     1      -1.122  12.997  18.816  0.00  0.00    +0.000 A 
ATOM     18  C   UNL     1      -0.676  11.687  18.914  0.00  0.00    +0.000 A 
ENDBRANCH   8  13
BRANCH   1  20
ATOM     19  C   UNL     1       3.512   1.664  17.832  0.00  0.00    +0.000 C 
ATOM     20  C   UNL     1       3.692   2.686  18.966  0.00  0.00    +0.000 C 
ATOM     21  C   UNL     1       4.454   1.983  20.102  0.00  0.00    +0.000 C 
ENDBRANCH   1  20
TORSDOF 2
ENDMDL
