MODEL 1
REMARK VINA RESULT:      -7.0      0.000      0.000
REMARK  Name = 
REMARK  4 active torsions:
REMARK  status: ('A' for Active; 'I' for Inactive)
REMARK    1  A    between atoms: C_1  and  C_2
REMARK    2  A    between atoms: N_4  and  C_5
REMARK    3  A    between atoms: C_5  and  C_6
REMARK    4  A    between atoms: N_11  and  C_12
REMARK                            x       y       z     vdW  Elec       q    Type
REMARK                         _______ _______ _______ _____ _____    ______ ____
ROOT
ATOM      1  C   UNL     1       3.246   7.296  17.801  0.00  0.00    +0.000 C 
ATOM      2  C   UNL     1       2.952   5.847  18.038  0.00  0.00    +0.000 A 
ATOM      3  N   UNL     1       1.901   5.461  18.711  0.00  0.00    +0.000 NA
ATOM      4  N   UNL     1       1.929   4.087  18.612  0.00  0.00    +0.000 N 
ATOM      5  C   UNL     1       3.068   3.680  17.927  0.00  0.00    +0.000 A 
ATOM      6  O   UNL     1       3.458   2.522  17.804  0.00  0.00    +0.000 OA
ATOM      7  N   UNL     1       3.693   4.842  17.518  0.00  0.00    +0.000 N 
ENDROOT
BRANCH   7   8
ATOM      8  C   UNL     1       4.919   4.839  16.822  0.00  0.00    +0.000 A 
ATOM      9  C   UNL     1       6.138   5.162  17.430  0.00  0.00    +0.000 A 
ATOM     10  C   UNL     1       7.339   5.016  16.723  0.00  0.00    +0.000 A 
ATOM     11  C   UNL     1       7.329   4.576  15.400  0.00  0.00    +0.000 A 
ATOM     12  C   UNL     1       6.118   4.288  14.781  0.00  0.00    +0.000 A 
ATOM     13 CL   UNL     1       6.091   3.765  13.143  0.00  0.00    +0.000 Cl
ATOM     14  C   UNL     1       4.925   4.409  15.485  0.00  0.00    +0.000 A 
ENDBRANCH   7   8
BRANCH   4  15
ATOM     15  C   UNL     1       1.095   3.201  19.387  0.00  0.00    +0.000 C 
BRANCH  15  16
ATOM     16  C   UNL     1       1.166   3.471  20.858  0.00  0.00    +0.000 C 
ATOM     17  C   UNL     1       1.287   2.380  21.898  0.00  0.00    +0.000 C 
ATOM     18  C   UNL     1       2.478   3.234  21.573  0.00  0.00    +0.000 C 
ENDBRANCH  15  16
ENDBRANCH   4  15
TORSDOF 3
ENDMDL
MODEL 2
REMARK VINA RESULT:      -7.0      3.211      6.300
REMARK  Name = 
REMARK  4 active torsions:
REMARK  status: ('A' for Active; 'I' for Inactive)
REMARK    1  A    between atoms: C_1  and  C_2
REMARK    2  A    between atoms: N_4  and  C_5
REMARK    3  A    between atoms: C_5  and  C_6
REMARK    4  A    between atoms: N_11  and  C_12
REMARK                            x       y       z     vdW  Elec       q    Type
REMARK                         _______ _______ _______ _____ _____    ______ ____
ROOT
ATOM      1  C   UNL     1       7.246   7.320  17.537  0.00  0.00    +0.000 C 
ATOM      2  C   UNL     1       6.602   6.163  16.836  0.00  0.00    +0.000 A 
ATOM      3  N   UNL     1       7.251   5.446  15.958  0.00  0.00    +0.000 NA
ATOM      4  N   UNL     1       6.369   4.437  15.637  0.00  0.00    +0.000 N 
ATOM      5  C   UNL     1       5.159   4.632  16.294  0.00  0.00    +0.000 A 
ATOM      6  O   UNL     1       4.126   3.996  16.104  0.00  0.00    +0.000 OA
ATOM      7  N   UNL     1       5.350   5.731  17.108  0.00  0.00    +0.000 N 
ENDROOT
BRANCH   7   8
ATOM      8  C   UNL     1       4.322   6.268  17.910  0.00  0.00    +0.000 A 
ATOM      9  C   UNL     1       3.686   7.480  17.617  0.00  0.00    +0.000 A 
ATOM     10  C   UNL     1       2.584   7.899  18.375  0.00  0.00    +0.000 A 
ATOM     11  C   UNL     1       2.131   7.129  19.445  0.00  0.00    +0.000 A 
ATOM     12  C   UNL     1       2.782   5.942  19.762  0.00  0.00    +0.000 A 
ATOM     13 CL   UNL     1       2.245   4.993  21.091  0.00  0.00    +0.000 Cl
ATOM     14  C   UNL     1       3.861   5.510  18.999  0.00  0.00    +0.000 A 
ENDBRANCH   7   8
BRANCH   4  15
ATOM     15  C   UNL     1       6.549   3.523  14.536  0.00  0.00    +0.000 C 
BRANCH  15  16
ATOM     16  C   UNL     1       6.251   4.144  13.206  0.00  0.00    +0.000 C 
ATOM     17  C   UNL     1       6.974   3.767  11.933  0.00  0.00    +0.000 C 
ATOM     18  C   UNL     1       5.564   3.301  12.154  0.00  0.00    +0.000 C 
ENDBRANCH  15  16
ENDBRANCH   4  15
TORSDOF 3
ENDMDL
MODEL 3
REMARK VINA RESULT:      -7.0      1.235      1.482
REMARK  Name = 
REMARK  4 active torsions:
REMARK  status: ('A' for Active; 'I' for Inactive)
REMARK    1  A    between atoms: C_1  and  C_2
REMARK    2  A    between atoms: N_4  and  C_5
REMARK    3  A    between atoms: C_5  and  C_6
REMARK    4  A    between atoms: N_11  and  C_12
REMARK                            x       y       z     vdW  Elec       q    Type
REMARK                         _______ _______ _______ _____ _____    ______ ____
ROOT
ATOM      1  C   UNL     1       2.878   7.905  17.736  0.00  0.00    +0.000 C 
ATOM      2  C   UNL     1       3.070   6.675  18.568  0.00  0.00    +0.000 A 
ATOM      3  N   UNL     1       2.278   6.393  19.568  0.00  0.00    +0.000 NA
ATOM      4  N   UNL     1       2.709   5.155  19.993  0.00  0.00    +0.000 N 
ATOM      5  C   UNL     1       3.824   4.759  19.262  0.00  0.00    +0.000 A 
ATOM      6  O   UNL     1       4.529   3.782  19.498  0.00  0.00    +0.000 OA
ATOM      7  N   UNL     1       4.010   5.739  18.307  0.00  0.00    +0.000 N 
ENDROOT
BRANCH   7   8
ATOM      8  C   UNL     1       5.082   5.711  17.392  0.00  0.00    +0.000 A 
ATOM      9  C   UNL     1       6.328   6.287  17.665  0.00  0.00    +0.000 A 
ATOM     10  C   UNL     1       7.395   6.116  16.773  0.00  0.00    +0.000 A 
ATOM     11  C   UNL     1       7.218   5.395  15.592  0.00  0.00    +0.000 A 
ATOM     12  C   UNL     1       5.973   4.851  15.300  0.00  0.00    +0.000 A 
ATOM     13 CL   UNL     1       5.736   3.977  13.839  0.00  0.00    +0.000 Cl
ATOM     14  C   UNL     1       4.917   4.998  16.193  0.00  0.00    +0.000 A 
ENDBRANCH   7   8
BRANCH   4  15
ATOM     15  C   UNL     1       2.288   4.528  21.221  0.00  0.00    +0.000 C 
BRANCH  15  16
ATOM     16  C   UNL     1       1.218   3.499  21.015  0.00  0.00    +0.000 C 
ATOM     17  C   UNL     1       0.756   3.045  19.649  0.00  0.00    +0.000 C 
ATOM     18  C   UNL     1       1.617   2.141  20.482  0.00  0.00    +0.000 C 
ENDBRANCH  15  16
ENDBRANCH   4  15
TORSDOF 3
ENDMDL
MODEL 4
REMARK VINA RESULT:      -6.9      3.394      6.288
REMARK  Name = 
REMARK  4 active torsions:
REMARK  status: ('A' for Active; 'I' for Inactive)
REMARK    1  A    between atoms: C_1  and  C_2
REMARK    2  A    between atoms: N_4  and  C_5
REMARK    3  A    between atoms: C_5  and  C_6
REMARK    4  A    between atoms: N_11  and  C_12
REMARK                            x       y       z     vdW  Elec       q    Type
REMARK                         _______ _______ _______ _____ _____    ______ ____
ROOT
ATOM      1  C   UNL     1       1.565   4.326  18.336  0.00  0.00    +0.000 C 
ATOM      2  C   UNL     1       2.921   4.820  17.935  0.00  0.00    +0.000 A 
ATOM      3  N   UNL     1       3.845   4.007  17.497  0.00  0.00    +0.000 NA
ATOM      4  N   UNL     1       4.879   4.843  17.138  0.00  0.00    +0.000 N 
ATOM      5  C   UNL     1       4.561   6.160  17.451  0.00  0.00    +0.000 A 
ATOM      6  O   UNL     1       5.326   7.118  17.393  0.00  0.00    +0.000 OA
ATOM      7  N   UNL     1       3.262   6.128  17.921  0.00  0.00    +0.000 N 
ENDROOT
BRANCH   7   8
ATOM      8  C   UNL     1       2.595   7.280  18.383  0.00  0.00    +0.000 A 
ATOM      9  C   UNL     1       2.168   8.304  17.529  0.00  0.00    +0.000 A 
ATOM     10  C   UNL     1       1.396   9.362  18.028  0.00  0.00    +0.000 A 
ATOM     11  C   UNL     1       1.070   9.420  19.382  0.00  0.00    +0.000 A 
ATOM     12  C   UNL     1       1.522   8.423  20.240  0.00  0.00    +0.000 A 
ATOM     13 CL   UNL     1       1.144   8.493  21.916  0.00  0.00    +0.000 Cl
ATOM     14  C   UNL     1       2.268   7.359  19.747  0.00  0.00    +0.000 A 
ENDBRANCH   7   8
BRANCH   4  15
ATOM     15  C   UNL     1       6.209   4.393  16.810  0.00  0.00    +0.000 C 
BRANCH  15  16
ATOM     16  C   UNL     1       6.321   3.872  15.409  0.00  0.00    +0.000 C 
ATOM     17  C   UNL     1       5.485   4.391  14.262  0.00  0.00    +0.000 C 
ATOM     18  C   UNL     1       6.935   4.766  14.354  0.00  0.00    +0.000 C 
ENDBRANCH  15  16
ENDBRANCH   4  15
TORSDOF 3
ENDMDL
MODEL 5
REMARK VINA RESULT:      -6.9      2.389      5.766
REMARK  Name = 
REMARK  4 active torsions:
REMARK  status: ('A' for Active; 'I' for Inactive)
REMARK    1  A    between atoms: C_1  and  C_2
REMARK    2  A    between atoms: N_4  and  C_5
REMARK    3  A    between atoms: C_5  and  C_6
REMARK    4  A    between atoms: N_11  and  C_12
REMARK                            x       y       z     vdW  Elec       q    Type
REMARK                         _______ _______ _______ _____ _____    ______ ____
ROOT
ATOM      1  C   UNL     1       2.604   7.428  17.927  0.00  0.00    +0.000 C 
ATOM      2  C   UNL     1       3.842   6.589  17.845  0.00  0.00    +0.000 A 
ATOM      3  N   UNL     1       4.875   6.959  17.136  0.00  0.00    +0.000 NA
ATOM      4  N   UNL     1       5.824   5.997  17.405  0.00  0.00    +0.000 N 
ATOM      5  C   UNL     1       5.287   5.014  18.230  0.00  0.00    +0.000 A 
ATOM      6  O   UNL     1       5.826   3.952  18.528  0.00  0.00    +0.000 OA
ATOM      7  N   UNL     1       4.014   5.446  18.545  0.00  0.00    +0.000 N 
ENDROOT
BRANCH   7   8
ATOM      8  C   UNL     1       3.131   4.686  19.339  0.00  0.00    +0.000 A 
ATOM      9  C   UNL     1       2.996   4.877  20.719  0.00  0.00    +0.000 A 
ATOM     10  C   UNL     1       2.010   4.184  21.434  0.00  0.00    +0.000 A 
ATOM     11  C   UNL     1       1.174   3.277  20.784  0.00  0.00    +0.000 A 
ATOM     12  C   UNL     1       1.328   3.058  19.419  0.00  0.00    +0.000 A 
ATOM     13 CL   UNL     1       0.317   1.928  18.610  0.00  0.00    +0.000 Cl
ATOM     14  C   UNL     1       2.289   3.761  18.701  0.00  0.00    +0.000 A 
ENDBRANCH   7   8
BRANCH   4  15
ATOM     15  C   UNL     1       7.059   5.850  16.676  0.00  0.00    +0.000 C 
BRANCH  15  16
ATOM     16  C   UNL     1       7.035   4.705  15.710  0.00  0.00    +0.000 C 
ATOM     17  C   UNL     1       5.856   4.399  14.815  0.00  0.00    +0.000 C 
ATOM     18  C   UNL     1       7.095   5.010  14.229  0.00  0.00    +0.000 C 
ENDBRANCH  15  16
ENDBRANCH   4  15
TORSDOF 3
ENDMDL
MODEL 6
REMARK VINA RESULT:      -6.9      2.947      6.281
REMARK  Name = 
REMARK  4 active torsions:
REMARK  status: ('A' for Active; 'I' for Inactive)
REMARK    1  A    between atoms: C_1  and  C_2
REMARK    2  A    between atoms: N_4  and  C_5
REMARK    3  A    between atoms: C_5  and  C_6
REMARK    4  A    between atoms: N_11  and  C_12
REMARK                            x       y       z     vdW  Elec       q    Type
REMARK                         _______ _______ _______ _____ _____    ______ ____
ROOT
ATOM      1  C   UNL     1       7.342   5.321  19.426  0.00  0.00    +0.000 C 
ATOM      2  C   UNL     1       6.698   5.059  18.099  0.00  0.00    +0.000 A 
ATOM      3  N   UNL     1       7.329   5.276  16.976  0.00  0.00    +0.000 NA
ATOM      4  N   UNL     1       6.460   4.815  16.012  0.00  0.00    +0.000 N 
ATOM      5  C   UNL     1       5.272   4.395  16.601  0.00  0.00    +0.000 A 
ATOM      6  O   UNL     1       4.248   4.073  16.005  0.00  0.00    +0.000 OA
ATOM      7  N   UNL     1       5.468   4.514  17.963  0.00  0.00    +0.000 N 
ENDROOT
BRANCH   7   8
ATOM      8  C   UNL     1       4.461   4.218  18.902  0.00  0.00    +0.000 A 
ATOM      9  C   UNL     1       4.365   2.979  19.548  0.00  0.00    +0.000 A 
ATOM     10  C   UNL     1       3.423   2.786  20.567  0.00  0.00    +0.000 A 
ATOM     11  C   UNL     1       2.553   3.816  20.928  0.00  0.00    +0.000 A 
ATOM     12  C   UNL     1       2.622   5.036  20.265  0.00  0.00    +0.000 A 
ATOM     13 CL   UNL     1       1.543   6.306  20.687  0.00  0.00    +0.000 Cl
ATOM     14  C   UNL     1       3.570   5.240  19.269  0.00  0.00    +0.000 A 
ENDBRANCH   7   8
BRANCH   4  15
ATOM     15  C   UNL     1       6.618   5.050  14.598  0.00  0.00    +0.000 C 
BRANCH  15  16
ATOM     16  C   UNL     1       6.499   3.799  13.782  0.00  0.00    +0.000 C 
ATOM     17  C   UNL     1       5.472   3.616  12.688  0.00  0.00    +0.000 C 
ATOM     18  C   UNL     1       6.910   3.847  12.326  0.00  0.00    +0.000 C 
ENDBRANCH  15  16
ENDBRANCH   4  15
TORSDOF 3
ENDMDL
MODEL 7
REMARK VINA RESULT:      -6.8      2.707      6.171
REMARK  Name = 
REMARK  4 active torsions:
REMARK  status: ('A' for Active; 'I' for Inactive)
REMARK    1  A    between atoms: C_1  and  C_2
REMARK    2  A    between atoms: N_4  and  C_5
REMARK    3  A    between atoms: C_5  and  C_6
REMARK    4  A    between atoms: N_11  and  C_12
REMARK                            x       y       z     vdW  Elec       q    Type
REMARK                         _______ _______ _______ _____ _____    ______ ____
ROOT
ATOM      1  C   UNL     1       3.555   7.508  17.658  0.00  0.00    +0.000 C 
ATOM      2  C   UNL     1       4.319   6.328  17.141  0.00  0.00    +0.000 A 
ATOM      3  N   UNL     1       5.373   6.473  16.382  0.00  0.00    +0.000 NA
ATOM      4  N   UNL     1       5.842   5.188  16.218  0.00  0.00    +0.000 N 
ATOM      5  C   UNL     1       4.987   4.283  16.838  0.00  0.00    +0.000 A 
ATOM      6  O   UNL     1       5.045   3.061  16.747  0.00  0.00    +0.000 OA
ATOM      7  N   UNL     1       4.032   5.050  17.476  0.00  0.00    +0.000 N 
ENDROOT
BRANCH   7   8
ATOM      8  C   UNL     1       2.955   4.483  18.187  0.00  0.00    +0.000 A 
ATOM      9  C   UNL     1       1.799   4.004  17.559  0.00  0.00    +0.000 A 
ATOM     10  C   UNL     1       0.819   3.333  18.302  0.00  0.00    +0.000 A 
ATOM     11  C   UNL     1       0.973   3.161  19.678  0.00  0.00    +0.000 A 
ATOM     12  C   UNL     1       2.103   3.666  20.311  0.00  0.00    +0.000 A 
ATOM     13 CL   UNL     1       2.294   3.478  22.010  0.00  0.00    +0.000 Cl
ATOM     14  C   UNL     1       3.089   4.312  19.575  0.00  0.00    +0.000 A 
ENDBRANCH   7   8
BRANCH   4  15
ATOM     15  C   UNL     1       6.861   4.812  15.269  0.00  0.00    +0.000 C 
BRANCH  15  16
ATOM     16  C   UNL     1       6.383   4.859  13.850  0.00  0.00    +0.000 C 
ATOM     17  C   UNL     1       7.184   4.323  12.686  0.00  0.00    +0.000 C 
ATOM     18  C   UNL     1       5.989   3.561  13.178  0.00  0.00    +0.000 C 
ENDBRANCH  15  16
ENDBRANCH   4  15
TORSDOF 3
ENDMDL
MODEL 8
REMARK VINA RESULT:      -6.8      3.016      6.302
REMARK  Name = 
REMARK  4 active torsions:
REMARK  status: ('A' for Active; 'I' for Inactive)
REMARK    1  A    between atoms: C_1  and  C_2
REMARK    2  A    between atoms: N_4  and  C_5
REMARK    3  A    between atoms: C_5  and  C_6
REMARK    4  A    between atoms: N_11  and  C_12
REMARK                            x       y       z     vdW  Elec       q    Type
REMARK                         _______ _______ _______ _____ _____    ______ ____
ROOT
ATOM      1  C   UNL     1       7.840   5.089  18.754  0.00  0.00    +0.000 C 
ATOM      2  C   UNL     1       7.078   4.897  17.480  0.00  0.00    +0.000 A 
ATOM      3  N   UNL     1       7.684   4.799  16.326  0.00  0.00    +0.000 NA
ATOM      4  N   UNL     1       6.667   4.524  15.439  0.00  0.00    +0.000 N 
ATOM      5  C   UNL     1       5.441   4.541  16.095  0.00  0.00    +0.000 A 
ATOM      6  O   UNL     1       4.338   4.483  15.560  0.00  0.00    +0.000 OA
ATOM      7  N   UNL     1       5.736   4.735  17.431  0.00  0.00    +0.000 N 
ENDROOT
BRANCH   7   8
ATOM      8  C   UNL     1       4.738   4.852  18.418  0.00  0.00    +0.000 A 
ATOM      9  C   UNL     1       3.969   6.010  18.586  0.00  0.00    +0.000 A 
ATOM     10  C   UNL     1       2.903   6.024  19.496  0.00  0.00    +0.000 A 
ATOM     11  C   UNL     1       2.618   4.895  20.264  0.00  0.00    +0.000 A 
ATOM     12  C   UNL     1       3.401   3.755  20.126  0.00  0.00    +0.000 A 
ATOM     13 CL   UNL     1       3.072   2.363  21.081  0.00  0.00    +0.000 Cl
ATOM     14  C   UNL     1       4.445   3.728  19.207  0.00  0.00    +0.000 A 
ENDBRANCH   7   8
BRANCH   4  15
ATOM     15  C   UNL     1       6.812   4.554  14.004  0.00  0.00    +0.000 C 
BRANCH  15  16
ATOM     16  C   UNL     1       6.204   3.363  13.330  0.00  0.00    +0.000 C 
ATOM     17  C   UNL     1       5.157   3.468  12.245  0.00  0.00    +0.000 C 
ATOM     18  C   UNL     1       6.564   3.089  11.887  0.00  0.00    +0.000 C 
ENDBRANCH  15  16
ENDBRANCH   4  15
TORSDOF 3
ENDMDL
MODEL 9
REMARK VINA RESULT:      -6.6      1.708      2.108
REMARK  Name = 
REMARK  4 active torsions:
REMARK  status: ('A' for Active; 'I' for Inactive)
REMARK    1  A    between atoms: C_1  and  C_2
REMARK    2  A    between atoms: N_4  and  C_5
REMARK    3  A    between atoms: C_5  and  C_6
REMARK    4  A    between atoms: N_11  and  C_12
REMARK                            x       y       z     vdW  Elec       q    Type
REMARK                         _______ _______ _______ _____ _____    ______ ____
ROOT
ATOM      1  C   UNL     1       2.544   6.999  17.980  0.00  0.00    +0.000 C 
ATOM      2  C   UNL     1       2.526   5.507  18.115  0.00  0.00    +0.000 A 
ATOM      3  N   UNL     1       1.500   4.877  18.623  0.00  0.00    +0.000 NA
ATOM      4  N   UNL     1       1.820   3.546  18.471  0.00  0.00    +0.000 N 
ATOM      5  C   UNL     1       3.095   3.419  17.930  0.00  0.00    +0.000 A 
ATOM      6  O   UNL     1       3.725   2.372  17.813  0.00  0.00    +0.000 OA
ATOM      7  N   UNL     1       3.514   4.706  17.658  0.00  0.00    +0.000 N 
ENDROOT
BRANCH   7   8
ATOM      8  C   UNL     1       4.791   4.992  17.135  0.00  0.00    +0.000 A 
ATOM      9  C   UNL     1       5.155   4.694  15.816  0.00  0.00    +0.000 A 
ATOM     10  C   UNL     1       6.392   5.119  15.313  0.00  0.00    +0.000 A 
ATOM     11  C   UNL     1       7.283   5.817  16.128  0.00  0.00    +0.000 A 
ATOM     12  C   UNL     1       6.940   6.085  17.448  0.00  0.00    +0.000 A 
ATOM     13 CL   UNL     1       8.038   6.927  18.469  0.00  0.00    +0.000 Cl
ATOM     14  C   UNL     1       5.705   5.686  17.946  0.00  0.00    +0.000 A 
ENDBRANCH   7   8
BRANCH   4  15
ATOM     15  C   UNL     1       1.096   2.462  19.089  0.00  0.00    +0.000 C 
BRANCH  15  16
ATOM     16  C   UNL     1       1.692   2.030  20.394  0.00  0.00    +0.000 C 
ATOM     17  C   UNL     1       2.672   2.872  21.178  0.00  0.00    +0.000 C 
ATOM     18  C   UNL     1       1.256   2.741  21.656  0.00  0.00    +0.000 C 
ENDBRANCH  15  16
ENDBRANCH   4  15
TORSDOF 3
ENDMDL
