MODEL 1
REMARK VINA RESULT:      -8.3      0.000      0.000
REMARK  Name = 
REMARK  9 active torsions:
REMARK  status: ('A' for Active; 'I' for Inactive)
REMARK    1  A    between atoms: N_1  and  C_2
REMARK    2  A    between atoms: C_2  and  C_3
REMARK    3  A    between atoms: C_3  and  N_4
REMARK    4  A    between atoms: N_4  and  C_5
REMARK    5  A    between atoms: C_5  and  C_6
REMARK    6  A    between atoms: C_12  and  C_14
REMARK    7  A    between atoms: C_17  and  S_18
REMARK    8  A    between atoms: S_18  and  N_21
REMARK    9  A    between atoms: N_21  and  C_22
REMARK                            x       y       z     vdW  Elec       q    Type
REMARK                         _______ _______ _______ _____ _____    ______ ____
ROOT
ATOM      1  C   UNL     1       3.180   7.213  18.155  0.00  0.00    +0.000 A 
ATOM      2  C   UNL     1       2.789   6.973  19.475  0.00  0.00    +0.000 A 
ATOM      3  C   UNL     1       1.875   7.812  20.112  0.00  0.00    +0.000 A 
ATOM      4  C   UNL     1       1.409   8.954  19.456  0.00  0.00    +0.000 A 
ATOM      5  C   UNL     1       1.804   9.228  18.143  0.00  0.00    +0.000 A 
ATOM      6  C   UNL     1       2.696   8.359  17.498  0.00  0.00    +0.000 A 
ENDROOT
BRANCH   1   8
ATOM      7  N   UNL     1       3.943   4.974  17.247  0.00  0.00    +0.000 N 
ATOM      8  C   UNL     1       4.177   6.346  17.456  0.00  0.00    +0.000 C 
ATOM      9  O   UNL     1       5.200   6.906  17.061  0.00  0.00    +0.000 OA
BRANCH   7  10
ATOM     10  C   UNL     1       4.937   4.247  16.426  0.00  0.00    +0.000 C 
BRANCH  10  11
ATOM     11  C   UNL     1       6.338   4.152  17.054  0.00  0.00    +0.000 C 
BRANCH  11  12
ATOM     12  N   UNL     1       7.373   4.762  16.214  0.00  0.00    +0.000 NA
ATOM     13  H   UNL     1       6.968   5.001  15.309  0.00  0.00    +0.000 HD
ATOM     14  H   UNL     1       8.098   4.070  16.022  0.00  0.00    +0.000 HD
ENDBRANCH  11  12
ENDBRANCH  10  11
ENDBRANCH   7  10
BRANCH   7  15
ATOM     15  C   UNL     1       2.652   4.306  17.466  0.00  0.00    +0.000 C 
BRANCH  15  16
ATOM     16  C   UNL     1       2.388   3.715  18.841  0.00  0.00    +0.000 A 
ATOM     17  C   UNL     1       1.149   3.745  19.494  0.00  0.00    +0.000 A 
ATOM     18  C   UNL     1       1.014   3.277  20.806  0.00  0.00    +0.000 A 
ATOM     19  C   UNL     1       2.107   2.727  21.471  0.00  0.00    +0.000 A 
ATOM     20  C   UNL     1       3.327   2.618  20.813  0.00  0.00    +0.000 A 
ATOM     21  C   UNL     1       3.465   3.108  19.511  0.00  0.00    +0.000 A 
ENDBRANCH  15  16
ENDBRANCH   7  15
ENDBRANCH   1   8
BRANCH   4  22
ATOM     22  S   UNL     1       0.344  10.073  20.348  0.00  0.00    +0.000 S 
ATOM     23  O   UNL     1      -0.784   9.322  20.849  0.00  0.00    +0.000 OA
ATOM     24  O   UNL     1       1.198  10.837  21.237  0.00  0.00    +0.000 OA
BRANCH  22  25
ATOM     25  N   UNL     1      -0.162  11.142  19.131  0.00  0.00    +0.000 N 
ATOM     26  H   UNL     1       0.583  11.328  18.461  0.00  0.00    +0.000 HD
BRANCH  25  27
ATOM     27  C   UNL     1      -1.469  10.959  18.597  0.00  0.00    +0.000 A 
ATOM     28  C   UNL     1      -1.651  10.049  17.557  0.00  0.00    +0.000 A 
ATOM     29  C   UNL     1      -2.905   9.916  16.960  0.00  0.00    +0.000 A 
ATOM     30  C   UNL     1      -3.968  10.712  17.385  0.00  0.00    +0.000 A 
ATOM     31  C   UNL     1      -3.784  11.625  18.423  0.00  0.00    +0.000 A 
ATOM     32  C   UNL     1      -2.537  11.739  19.041  0.00  0.00    +0.000 A 
ENDBRANCH  25  27
ENDBRANCH  22  25
ENDBRANCH   4  22
TORSDOF 9
ENDMDL
MODEL 2
REMARK VINA RESULT:      -8.2      0.179      1.275
REMARK  Name = 
REMARK  9 active torsions:
REMARK  status: ('A' for Active; 'I' for Inactive)
REMARK    1  A    between atoms: N_1  and  C_2
REMARK    2  A    between atoms: C_2  and  C_3
REMARK    3  A    between atoms: C_3  and  N_4
REMARK    4  A    between atoms: N_4  and  C_5
REMARK    5  A    between atoms: C_5  and  C_6
REMARK    6  A    between atoms: C_12  and  C_14
REMARK    7  A    between atoms: C_17  and  S_18
REMARK    8  A    between atoms: S_18  and  N_21
REMARK    9  A    between atoms: N_21  and  C_22
REMARK                            x       y       z     vdW  Elec       q    Type
REMARK                         _______ _______ _______ _____ _____    ______ ____
ROOT
ATOM      1  C   UNL     1       3.103   7.311  18.171  0.00  0.00    +0.000 A 
ATOM      2  C   UNL     1       2.720   7.070  19.494  0.00  0.00    +0.000 A 
ATOM      3  C   UNL     1       1.811   7.910  20.137  0.00  0.00    +0.000 A 
ATOM      4  C   UNL     1       1.341   9.052  19.483  0.00  0.00    +0.000 A 
ATOM      5  C   UNL     1       1.727   9.326  18.168  0.00  0.00    +0.000 A 
ATOM      6  C   UNL     1       2.614   8.457  17.518  0.00  0.00    +0.000 A 
ENDROOT
BRANCH   1   8
ATOM      7  N   UNL     1       3.888   5.059  17.315  0.00  0.00    +0.000 N 
ATOM      8  C   UNL     1       4.094   6.442  17.466  0.00  0.00    +0.000 C 
ATOM      9  O   UNL     1       5.087   7.013  17.012  0.00  0.00    +0.000 OA
BRANCH   7  10
ATOM     10  C   UNL     1       4.868   4.326  16.483  0.00  0.00    +0.000 C 
BRANCH  10  11
ATOM     11  C   UNL     1       6.247   4.136  17.138  0.00  0.00    +0.000 C 
BRANCH  11  12
ATOM     12  N   UNL     1       7.321   4.797  16.390  0.00  0.00    +0.000 NA
ATOM     13  H   UNL     1       7.547   4.237  15.570  0.00  0.00    +0.000 HD
ATOM     14  H   UNL     1       8.166   4.811  16.962  0.00  0.00    +0.000 HD
ENDBRANCH  11  12
ENDBRANCH  10  11
ENDBRANCH   7  10
BRANCH   7  15
ATOM     15  C   UNL     1       2.623   4.368  17.608  0.00  0.00    +0.000 C 
BRANCH  15  16
ATOM     16  C   UNL     1       2.441   3.791  19.002  0.00  0.00    +0.000 A 
ATOM     17  C   UNL     1       3.479   3.284  19.794  0.00  0.00    +0.000 A 
ATOM     18  C   UNL     1       3.214   2.669  21.023  0.00  0.00    +0.000 A 
ATOM     19  C   UNL     1       1.909   2.592  21.502  0.00  0.00    +0.000 A 
ATOM     20  C   UNL     1       0.873   3.157  20.767  0.00  0.00    +0.000 A 
ATOM     21  C   UNL     1       1.137   3.749  19.528  0.00  0.00    +0.000 A 
ENDBRANCH  15  16
ENDBRANCH   7  15
ENDBRANCH   1   8
BRANCH   4  22
ATOM     22  S   UNL     1       0.283  10.172  20.383  0.00  0.00    +0.000 S 
ATOM     23  O   UNL     1      -0.859   9.428  20.865  0.00  0.00    +0.000 OA
ATOM     24  O   UNL     1       1.138  10.913  21.288  0.00  0.00    +0.000 OA
BRANCH  22  25
ATOM     25  N   UNL     1      -0.201  11.263  19.177  0.00  0.00    +0.000 N 
ATOM     26  H   UNL     1       0.555  11.461  18.524  0.00  0.00    +0.000 HD
BRANCH  25  27
ATOM     27  C   UNL     1      -1.499  11.091  18.616  0.00  0.00    +0.000 A 
ATOM     28  C   UNL     1      -2.543  11.892  19.075  0.00  0.00    +0.000 A 
ATOM     29  C   UNL     1      -3.840  11.683  18.604  0.00  0.00    +0.000 A 
ATOM     30  C   UNL     1      -4.094  10.656  17.696  0.00  0.00    +0.000 A 
ATOM     31  C   UNL     1      -3.049   9.851  17.242  0.00  0.00    +0.000 A 
ATOM     32  C   UNL     1      -1.747  10.079  17.689  0.00  0.00    +0.000 A 
ENDBRANCH  25  27
ENDBRANCH  22  25
ENDBRANCH   4  22
TORSDOF 9
ENDMDL
MODEL 3
REMARK VINA RESULT:      -7.8      2.630      8.580
REMARK  Name = 
REMARK  9 active torsions:
REMARK  status: ('A' for Active; 'I' for Inactive)
REMARK    1  A    between atoms: N_1  and  C_2
REMARK    2  A    between atoms: C_2  and  C_3
REMARK    3  A    between atoms: C_3  and  N_4
REMARK    4  A    between atoms: N_4  and  C_5
REMARK    5  A    between atoms: C_5  and  C_6
REMARK    6  A    between atoms: C_12  and  C_14
REMARK    7  A    between atoms: C_17  and  S_18
REMARK    8  A    between atoms: S_18  and  N_21
REMARK    9  A    between atoms: N_21  and  C_22
REMARK                            x       y       z     vdW  Elec       q    Type
REMARK                         _______ _______ _______ _____ _____    ______ ____
ROOT
ATOM      1  C   UNL     1       1.271  10.005  19.208  0.00  0.00    +0.000 A 
ATOM      2  C   UNL     1       1.770   9.419  18.041  0.00  0.00    +0.000 A 
ATOM      3  C   UNL     1       2.143   8.076  18.021  0.00  0.00    +0.000 A 
ATOM      4  C   UNL     1       2.098   7.327  19.200  0.00  0.00    +0.000 A 
ATOM      5  C   UNL     1       1.625   7.898  20.385  0.00  0.00    +0.000 A 
ATOM      6  C   UNL     1       1.219   9.240  20.387  0.00  0.00    +0.000 A 
ENDROOT
BRANCH   1   8
ATOM      7  N   UNL     1      -0.448  11.864  19.113  0.00  0.00    +0.000 N 
ATOM      8  C   UNL     1       0.887  11.449  19.265  0.00  0.00    +0.000 C 
ATOM      9  O   UNL     1       1.804  12.245  19.470  0.00  0.00    +0.000 OA
BRANCH   7  10
ATOM     10  C   UNL     1      -0.727  13.303  19.323  0.00  0.00    +0.000 C 
BRANCH  10  11
ATOM     11  C   UNL     1      -1.538  13.617  20.593  0.00  0.00    +0.000 C 
BRANCH  11  12
ATOM     12  N   UNL     1      -2.875  14.136  20.291  0.00  0.00    +0.000 NA
ATOM     13  H   UNL     1      -3.564  13.610  20.827  0.00  0.00    +0.000 HD
ATOM     14  H   UNL     1      -3.089  13.958  19.309  0.00  0.00    +0.000 HD
ENDBRANCH  11  12
ENDBRANCH  10  11
ENDBRANCH   7  10
BRANCH   7  15
ATOM     15  C   UNL     1      -1.608  10.960  19.118  0.00  0.00    +0.000 C 
BRANCH  15  16
ATOM     16  C   UNL     1      -2.431  10.861  17.844  0.00  0.00    +0.000 A 
ATOM     17  C   UNL     1      -3.646  11.524  17.629  0.00  0.00    +0.000 A 
ATOM     18  C   UNL     1      -4.398  11.294  16.472  0.00  0.00    +0.000 A 
ATOM     19  C   UNL     1      -3.925  10.430  15.488  0.00  0.00    +0.000 A 
ATOM     20  C   UNL     1      -2.686   9.820  15.647  0.00  0.00    +0.000 A 
ATOM     21  C   UNL     1      -1.947  10.033  16.815  0.00  0.00    +0.000 A 
ENDBRANCH  15  16
ENDBRANCH   7  15
ENDBRANCH   1   8
BRANCH   4  22
ATOM     22  S   UNL     1       2.707   5.650  19.167  0.00  0.00    +0.000 S 
ATOM     23  O   UNL     1       2.584   5.097  20.496  0.00  0.00    +0.000 OA
ATOM     24  O   UNL     1       2.091   5.009  18.021  0.00  0.00    +0.000 OA
BRANCH  22  25
ATOM     25  N   UNL     1       4.344   5.865  18.774  0.00  0.00    +0.000 N 
ATOM     26  H   UNL     1       4.953   5.600  19.547  0.00  0.00    +0.000 HD
BRANCH  25  27
ATOM     27  C   UNL     1       4.764   5.478  17.470  0.00  0.00    +0.000 A 
ATOM     28  C   UNL     1       5.146   4.155  17.250  0.00  0.00    +0.000 A 
ATOM     29  C   UNL     1       5.643   3.773  16.003  0.00  0.00    +0.000 A 
ATOM     30  C   UNL     1       5.782   4.718  14.988  0.00  0.00    +0.000 A 
ATOM     31  C   UNL     1       5.403   6.042  15.211  0.00  0.00    +0.000 A 
ATOM     32  C   UNL     1       4.879   6.420  16.448  0.00  0.00    +0.000 A 
ENDBRANCH  25  27
ENDBRANCH  22  25
ENDBRANCH   4  22
TORSDOF 9
ENDMDL
MODEL 4
REMARK VINA RESULT:      -7.8      2.133      3.785
REMARK  Name = 
REMARK  9 active torsions:
REMARK  status: ('A' for Active; 'I' for Inactive)
REMARK    1  A    between atoms: N_1  and  C_2
REMARK    2  A    between atoms: C_2  and  C_3
REMARK    3  A    between atoms: C_3  and  N_4
REMARK    4  A    between atoms: N_4  and  C_5
REMARK    5  A    between atoms: C_5  and  C_6
REMARK    6  A    between atoms: C_12  and  C_14
REMARK    7  A    between atoms: C_17  and  S_18
REMARK    8  A    between atoms: S_18  and  N_21
REMARK    9  A    between atoms: N_21  and  C_22
REMARK                            x       y       z     vdW  Elec       q    Type
REMARK                         _______ _______ _______ _____ _____    ______ ____
ROOT
ATOM      1  C   UNL     1       2.160   5.744  19.031  0.00  0.00    +0.000 A 
ATOM      2  C   UNL     1       2.278   7.050  18.545  0.00  0.00    +0.000 A 
ATOM      3  C   UNL     1       1.948   8.142  19.347  0.00  0.00    +0.000 A 
ATOM      4  C   UNL     1       1.413   7.929  20.620  0.00  0.00    +0.000 A 
ATOM      5  C   UNL     1       1.264   6.632  21.119  0.00  0.00    +0.000 A 
ATOM      6  C   UNL     1       1.632   5.541  20.319  0.00  0.00    +0.000 A 
ENDROOT
BRANCH   1   8
ATOM      7  N   UNL     1       3.778   4.006  18.145  0.00  0.00    +0.000 N 
ATOM      8  C   UNL     1       2.483   4.555  18.185  0.00  0.00    +0.000 C 
ATOM      9  O   UNL     1       1.546   4.076  17.544  0.00  0.00    +0.000 OA
BRANCH   7  10
ATOM     10  C   UNL     1       3.947   2.750  17.381  0.00  0.00    +0.000 C 
BRANCH  10  11
ATOM     11  C   UNL     1       3.573   1.475  18.157  0.00  0.00    +0.000 C 
BRANCH  11  12
ATOM     12  N   UNL     1       4.532   1.163  19.220  0.00  0.00    +0.000 NA
ATOM     13  H   UNL     1       4.745   2.015  19.736  0.00  0.00    +0.000 HD
ATOM     14  H   UNL     1       5.412   0.864  18.798  0.00  0.00    +0.000 HD
ENDBRANCH  11  12
ENDBRANCH  10  11
ENDBRANCH   7  10
BRANCH   7  15
ATOM     15  C   UNL     1       4.865   4.369  19.067  0.00  0.00    +0.000 C 
BRANCH  15  16
ATOM     16  C   UNL     1       5.836   5.450  18.622  0.00  0.00    +0.000 A 
ATOM     17  C   UNL     1       5.603   6.341  17.567  0.00  0.00    +0.000 A 
ATOM     18  C   UNL     1       6.594   7.236  17.147  0.00  0.00    +0.000 A 
ATOM     19  C   UNL     1       7.819   7.286  17.806  0.00  0.00    +0.000 A 
ATOM     20  C   UNL     1       8.043   6.462  18.904  0.00  0.00    +0.000 A 
ATOM     21  C   UNL     1       7.061   5.552  19.306  0.00  0.00    +0.000 A 
ENDBRANCH  15  16
ENDBRANCH   7  15
ENDBRANCH   1   8
BRANCH   4  22
ATOM     22  S   UNL     1       0.880   9.345  21.566  0.00  0.00    +0.000 S 
ATOM     23  O   UNL     1      -0.486   9.125  21.980  0.00  0.00    +0.000 OA
ATOM     24  O   UNL     1       1.928   9.617  22.530  0.00  0.00    +0.000 OA
BRANCH  22  25
ATOM     25  N   UNL     1       0.947  10.595  20.419  0.00  0.00    +0.000 N 
ATOM     26  H   UNL     1       1.745  10.489  19.795  0.00  0.00    +0.000 HD
BRANCH  25  27
ATOM     27  C   UNL     1      -0.279  11.006  19.823  0.00  0.00    +0.000 A 
ATOM     28  C   UNL     1      -0.999  12.046  20.410  0.00  0.00    +0.000 A 
ATOM     29  C   UNL     1      -2.244  12.408  19.894  0.00  0.00    +0.000 A 
ATOM     30  C   UNL     1      -2.779  11.712  18.811  0.00  0.00    +0.000 A 
ATOM     31  C   UNL     1      -2.060  10.669  18.228  0.00  0.00    +0.000 A 
ATOM     32  C   UNL     1      -0.802  10.325  18.723  0.00  0.00    +0.000 A 
ENDBRANCH  25  27
ENDBRANCH  22  25
ENDBRANCH   4  22
TORSDOF 9
ENDMDL
MODEL 5
REMARK VINA RESULT:      -7.8      2.602      8.456
REMARK  Name = 
REMARK  9 active torsions:
REMARK  status: ('A' for Active; 'I' for Inactive)
REMARK    1  A    between atoms: N_1  and  C_2
REMARK    2  A    between atoms: C_2  and  C_3
REMARK    3  A    between atoms: C_3  and  N_4
REMARK    4  A    between atoms: N_4  and  C_5
REMARK    5  A    between atoms: C_5  and  C_6
REMARK    6  A    between atoms: C_12  and  C_14
REMARK    7  A    between atoms: C_17  and  S_18
REMARK    8  A    between atoms: S_18  and  N_21
REMARK    9  A    between atoms: N_21  and  C_22
REMARK                            x       y       z     vdW  Elec       q    Type
REMARK                         _______ _______ _______ _____ _____    ______ ____
ROOT
ATOM      1  C   UNL     1       1.254   9.921  19.441  0.00  0.00    +0.000 A 
ATOM      2  C   UNL     1       1.716   9.393  18.231  0.00  0.00    +0.000 A 
ATOM      3  C   UNL     1       2.084   8.052  18.133  0.00  0.00    +0.000 A 
ATOM      4  C   UNL     1       2.074   7.245  19.274  0.00  0.00    +0.000 A 
ATOM      5  C   UNL     1       1.638   7.757  20.500  0.00  0.00    +0.000 A 
ATOM      6  C   UNL     1       1.236   9.097  20.581  0.00  0.00    +0.000 A 
ENDROOT
BRANCH   1   8
ATOM      7  N   UNL     1      -0.458  11.788  19.460  0.00  0.00    +0.000 N 
ATOM      8  C   UNL     1       0.876  11.360  19.581  0.00  0.00    +0.000 C 
ATOM      9  O   UNL     1       1.797  12.140  19.827  0.00  0.00    +0.000 OA
BRANCH   7  10
ATOM     10  C   UNL     1      -0.730  13.213  19.752  0.00  0.00    +0.000 C 
BRANCH  10  11
ATOM     11  C   UNL     1      -0.418  14.174  18.592  0.00  0.00    +0.000 C 
BRANCH  11  12
ATOM     12  N   UNL     1       0.828  14.919  18.800  0.00  0.00    +0.000 NA
ATOM     13  H   UNL     1       1.519  14.299  19.219  0.00  0.00    +0.000 HD
ATOM     14  H   UNL     1       0.665  15.659  19.484  0.00  0.00    +0.000 HD
ENDBRANCH  11  12
ENDBRANCH  10  11
ENDBRANCH   7  10
BRANCH   7  15
ATOM     15  C   UNL     1      -1.622  10.889  19.419  0.00  0.00    +0.000 C 
BRANCH  15  16
ATOM     16  C   UNL     1      -2.344  10.731  18.091  0.00  0.00    +0.000 A 
ATOM     17  C   UNL     1      -1.897   9.928  17.034  0.00  0.00    +0.000 A 
ATOM     18  C   UNL     1      -2.561   9.922  15.802  0.00  0.00    +0.000 A 
ATOM     19  C   UNL     1      -3.712  10.684  15.622  0.00  0.00    +0.000 A 
ATOM     20  C   UNL     1      -4.216  11.429  16.682  0.00  0.00    +0.000 A 
ATOM     21  C   UNL     1      -3.537  11.453  17.904  0.00  0.00    +0.000 A 
ENDBRANCH  15  16
ENDBRANCH   7  15
ENDBRANCH   1   8
BRANCH   4  22
ATOM     22  S   UNL     1       2.676   5.572  19.138  0.00  0.00    +0.000 S 
ATOM     23  O   UNL     1       2.548   4.937  20.430  0.00  0.00    +0.000 OA
ATOM     24  O   UNL     1       2.061   5.005  17.954  0.00  0.00    +0.000 OA
BRANCH  22  25
ATOM     25  N   UNL     1       4.316   5.804  18.764  0.00  0.00    +0.000 N 
ATOM     26  H   UNL     1       4.920   5.514  19.531  0.00  0.00    +0.000 HD
BRANCH  25  27
ATOM     27  C   UNL     1       4.744   5.462  17.450  0.00  0.00    +0.000 A 
ATOM     28  C   UNL     1       5.112   4.145  17.182  0.00  0.00    +0.000 A 
ATOM     29  C   UNL     1       5.617   3.804  15.926  0.00  0.00    +0.000 A 
ATOM     30  C   UNL     1       5.780   4.787  14.951  0.00  0.00    +0.000 A 
ATOM     31  C   UNL     1       5.416   6.107  15.222  0.00  0.00    +0.000 A 
ATOM     32  C   UNL     1       4.883   6.443  16.467  0.00  0.00    +0.000 A 
ENDBRANCH  25  27
ENDBRANCH  22  25
ENDBRANCH   4  22
TORSDOF 9
ENDMDL
MODEL 6
REMARK VINA RESULT:      -7.8      2.584      8.594
REMARK  Name = 
REMARK  9 active torsions:
REMARK  status: ('A' for Active; 'I' for Inactive)
REMARK    1  A    between atoms: N_1  and  C_2
REMARK    2  A    between atoms: C_2  and  C_3
REMARK    3  A    between atoms: C_3  and  N_4
REMARK    4  A    between atoms: N_4  and  C_5
REMARK    5  A    between atoms: C_5  and  C_6
REMARK    6  A    between atoms: C_12  and  C_14
REMARK    7  A    between atoms: C_17  and  S_18
REMARK    8  A    between atoms: S_18  and  N_21
REMARK    9  A    between atoms: N_21  and  C_22
REMARK                            x       y       z     vdW  Elec       q    Type
REMARK                         _______ _______ _______ _____ _____    ______ ____
ROOT
ATOM      1  C   UNL     1       1.191   9.948  19.577  0.00  0.00    +0.000 A 
ATOM      2  C   UNL     1       1.145   9.088  20.678  0.00  0.00    +0.000 A 
ATOM      3  C   UNL     1       1.615   7.779  20.581  0.00  0.00    +0.000 A 
ATOM      4  C   UNL     1       2.060   7.293  19.349  0.00  0.00    +0.000 A 
ATOM      5  C   UNL     1       2.094   8.127  18.228  0.00  0.00    +0.000 A 
ATOM      6  C   UNL     1       1.652   9.453  18.344  0.00  0.00    +0.000 A 
ENDROOT
BRANCH   1   8
ATOM      7  N   UNL     1      -0.674  11.650  19.369  0.00  0.00    +0.000 N 
ATOM      8  C   UNL     1       0.672  11.348  19.646  0.00  0.00    +0.000 C 
ATOM      9  O   UNL     1       1.485  12.212  19.974  0.00  0.00    +0.000 OA
BRANCH   7  10
ATOM     10  C   UNL     1      -1.105  13.047  19.601  0.00  0.00    +0.000 C 
BRANCH  10  11
ATOM     11  C   UNL     1      -2.085  13.227  20.774  0.00  0.00    +0.000 C 
BRANCH  11  12
ATOM     12  N   UNL     1      -3.347  13.849  20.361  0.00  0.00    +0.000 NA
ATOM     13  H   UNL     1      -4.100  13.491  20.947  0.00  0.00    +0.000 HD
ATOM     14  H   UNL     1      -3.569  13.555  19.409  0.00  0.00    +0.000 HD
ENDBRANCH  11  12
ENDBRANCH  10  11
ENDBRANCH   7  10
BRANCH   7  15
ATOM     15  C   UNL     1      -1.740  10.647  19.220  0.00  0.00    +0.000 C 
BRANCH  15  16
ATOM     16  C   UNL     1      -2.466  10.583  17.886  0.00  0.00    +0.000 A 
ATOM     17  C   UNL     1      -2.010   9.874  16.767  0.00  0.00    +0.000 A 
ATOM     18  C   UNL     1      -2.680   9.955  15.541  0.00  0.00    +0.000 A 
ATOM     19  C   UNL     1      -3.844  10.709  15.426  0.00  0.00    +0.000 A 
ATOM     20  C   UNL     1      -4.355  11.359  16.544  0.00  0.00    +0.000 A 
ATOM     21  C   UNL     1      -3.671  11.297  17.761  0.00  0.00    +0.000 A 
ENDBRANCH  15  16
ENDBRANCH   7  15
ENDBRANCH   1   8
BRANCH   4  22
ATOM     22  S   UNL     1       2.530   5.576  19.232  0.00  0.00    +0.000 S 
ATOM     23  O   UNL     1       2.209   4.932  20.486  0.00  0.00    +0.000 OA
ATOM     24  O   UNL     1       2.002   5.086  17.974  0.00  0.00    +0.000 OA
BRANCH  22  25
ATOM     25  N   UNL     1       4.214   5.672  19.042  0.00  0.00    +0.000 N 
ATOM     26  H   UNL     1       4.706   5.254  19.830  0.00  0.00    +0.000 HD
BRANCH  25  27
ATOM     27  C   UNL     1       4.745   5.408  17.747  0.00  0.00    +0.000 A 
ATOM     28  C   UNL     1       4.878   6.463  16.846  0.00  0.00    +0.000 A 
ATOM     29  C   UNL     1       5.315   6.215  15.543  0.00  0.00    +0.000 A 
ATOM     30  C   UNL     1       5.590   4.910  15.137  0.00  0.00    +0.000 A 
ATOM     31  C   UNL     1       5.452   3.855  16.039  0.00  0.00    +0.000 A 
ATOM     32  C   UNL     1       5.044   4.105  17.350  0.00  0.00    +0.000 A 
ENDBRANCH  25  27
ENDBRANCH  22  25
ENDBRANCH   4  22
TORSDOF 9
ENDMDL
MODEL 7
REMARK VINA RESULT:      -7.7      2.804      4.312
REMARK  Name = 
REMARK  9 active torsions:
REMARK  status: ('A' for Active; 'I' for Inactive)
REMARK    1  A    between atoms: N_1  and  C_2
REMARK    2  A    between atoms: C_2  and  C_3
REMARK    3  A    between atoms: C_3  and  N_4
REMARK    4  A    between atoms: N_4  and  C_5
REMARK    5  A    between atoms: C_5  and  C_6
REMARK    6  A    between atoms: C_12  and  C_14
REMARK    7  A    between atoms: C_17  and  S_18
REMARK    8  A    between atoms: S_18  and  N_21
REMARK    9  A    between atoms: N_21  and  C_22
REMARK                            x       y       z     vdW  Elec       q    Type
REMARK                         _______ _______ _______ _____ _____    ______ ____
ROOT
ATOM      1  C   UNL     1       2.103   6.391  19.713  0.00  0.00    +0.000 A 
ATOM      2  C   UNL     1       2.257   7.070  18.500  0.00  0.00    +0.000 A 
ATOM      3  C   UNL     1       1.961   8.429  18.401  0.00  0.00    +0.000 A 
ATOM      4  C   UNL     1       1.424   9.103  19.501  0.00  0.00    +0.000 A 
ATOM      5  C   UNL     1       1.239   8.440  20.717  0.00  0.00    +0.000 A 
ATOM      6  C   UNL     1       1.572   7.082  20.818  0.00  0.00    +0.000 A 
ENDROOT
BRANCH   1   8
ATOM      7  N   UNL     1       3.649   4.393  19.522  0.00  0.00    +0.000 N 
ATOM      8  C   UNL     1       2.388   4.930  19.842  0.00  0.00    +0.000 C 
ATOM      9  O   UNL     1       1.463   4.232  20.261  0.00  0.00    +0.000 OA
BRANCH   7  10
ATOM     10  C   UNL     1       3.856   2.957  19.818  0.00  0.00    +0.000 C 
BRANCH  10  11
ATOM     11  C   UNL     1       3.556   2.013  18.641  0.00  0.00    +0.000 C 
BRANCH  11  12
ATOM     12  N   UNL     1       2.140   1.639  18.569  0.00  0.00    +0.000 NA
ATOM     13  H   UNL     1       2.071   0.644  18.356  0.00  0.00    +0.000 HD
ATOM     14  H   UNL     1       1.707   2.124  17.782  0.00  0.00    +0.000 HD
ENDBRANCH  11  12
ENDBRANCH  10  11
ENDBRANCH   7  10
BRANCH   7  15
ATOM     15  C   UNL     1       4.854   5.194  19.263  0.00  0.00    +0.000 C 
BRANCH  15  16
ATOM     16  C   UNL     1       5.503   5.069  17.894  0.00  0.00    +0.000 A 
ATOM     17  C   UNL     1       4.823   5.208  16.677  0.00  0.00    +0.000 A 
ATOM     18  C   UNL     1       5.469   4.969  15.459  0.00  0.00    +0.000 A 
ATOM     19  C   UNL     1       6.820   4.631  15.435  0.00  0.00    +0.000 A 
ATOM     20  C   UNL     1       7.531   4.561  16.628  0.00  0.00    +0.000 A 
ATOM     21  C   UNL     1       6.878   4.777  17.845  0.00  0.00    +0.000 A 
ENDBRANCH  15  16
ENDBRANCH   7  15
ENDBRANCH   1   8
BRANCH   4  22
ATOM     22  S   UNL     1       0.935  10.806  19.298  0.00  0.00    +0.000 S 
ATOM     23  O   UNL     1       1.867  11.441  18.395  0.00  0.00    +0.000 OA
ATOM     24  O   UNL     1      -0.490  10.800  19.032  0.00  0.00    +0.000 OA
BRANCH  22  25
ATOM     25  N   UNL     1       1.127  11.429  20.866  0.00  0.00    +0.000 N 
ATOM     26  H   UNL     1       1.963  12.007  20.940  0.00  0.00    +0.000 HD
BRANCH  25  27
ATOM     27  C   UNL     1      -0.038  11.904  21.532  0.00  0.00    +0.000 A 
ATOM     28  C   UNL     1      -0.647  11.091  22.487  0.00  0.00    +0.000 A 
ATOM     29  C   UNL     1      -1.838  11.498  23.090  0.00  0.00    +0.000 A 
ATOM     30  C   UNL     1      -2.432  12.703  22.717  0.00  0.00    +0.000 A 
ATOM     31  C   UNL     1      -1.824  13.513  21.757  0.00  0.00    +0.000 A 
ATOM     32  C   UNL     1      -0.618  13.122  21.175  0.00  0.00    +0.000 A 
ENDBRANCH  25  27
ENDBRANCH  22  25
ENDBRANCH   4  22
TORSDOF 9
ENDMDL
MODEL 8
REMARK VINA RESULT:      -7.7      2.557      8.355
REMARK  Name = 
REMARK  9 active torsions:
REMARK  status: ('A' for Active; 'I' for Inactive)
REMARK    1  A    between atoms: N_1  and  C_2
REMARK    2  A    between atoms: C_2  and  C_3
REMARK    3  A    between atoms: C_3  and  N_4
REMARK    4  A    between atoms: N_4  and  C_5
REMARK    5  A    between atoms: C_5  and  C_6
REMARK    6  A    between atoms: C_12  and  C_14
REMARK    7  A    between atoms: C_17  and  S_18
REMARK    8  A    between atoms: S_18  and  N_21
REMARK    9  A    between atoms: N_21  and  C_22
REMARK                            x       y       z     vdW  Elec       q    Type
REMARK                         _______ _______ _______ _____ _____    ______ ____
ROOT
ATOM      1  C   UNL     1       1.190   9.769  19.842  0.00  0.00    +0.000 A 
ATOM      2  C   UNL     1       1.176   8.827  20.875  0.00  0.00    +0.000 A 
ATOM      3  C   UNL     1       1.676   7.540  20.674  0.00  0.00    +0.000 A 
ATOM      4  C   UNL     1       2.118   7.160  19.404  0.00  0.00    +0.000 A 
ATOM      5  C   UNL     1       2.120   8.077  18.350  0.00  0.00    +0.000 A 
ATOM      6  C   UNL     1       1.648   9.379  18.570  0.00  0.00    +0.000 A 
ENDROOT
BRANCH   1   8
ATOM      7  N   UNL     1      -0.694  11.457  19.692  0.00  0.00    +0.000 N 
ATOM      8  C   UNL     1       0.638  11.146  20.022  0.00  0.00    +0.000 C 
ATOM      9  O   UNL     1       1.412  11.982  20.490  0.00  0.00    +0.000 OA
BRANCH   7  10
ATOM     10  C   UNL     1      -1.167  12.815  20.039  0.00  0.00    +0.000 C 
BRANCH  10  11
ATOM     11  C   UNL     1      -0.754  13.910  19.039  0.00  0.00    +0.000 C 
BRANCH  11  12
ATOM     12  N   UNL     1      -0.565  13.389  17.682  0.00  0.00    +0.000 NA
ATOM     13  H   UNL     1      -0.254  14.147  17.076  0.00  0.00    +0.000 HD
ATOM     14  H   UNL     1      -1.467  13.086  17.312  0.00  0.00    +0.000 HD
ENDBRANCH  11  12
ENDBRANCH  10  11
ENDBRANCH   7  10
BRANCH   7  15
ATOM     15  C   UNL     1      -1.727  10.460  19.371  0.00  0.00    +0.000 C 
BRANCH  15  16
ATOM     16  C   UNL     1      -2.450  10.597  18.041  0.00  0.00    +0.000 A 
ATOM     17  C   UNL     1      -3.611  11.356  17.842  0.00  0.00    +0.000 A 
ATOM     18  C   UNL     1      -4.279  11.342  16.613  0.00  0.00    +0.000 A 
ATOM     19  C   UNL     1      -3.772  10.606  15.546  0.00  0.00    +0.000 A 
ATOM     20  C   UNL     1      -2.579   9.907  15.699  0.00  0.00    +0.000 A 
ATOM     21  C   UNL     1      -1.926   9.902  16.935  0.00  0.00    +0.000 A 
ENDBRANCH  15  16
ENDBRANCH   7  15
ENDBRANCH   1   8
BRANCH   4  22
ATOM     22  S   UNL     1       2.627   5.469  19.153  0.00  0.00    +0.000 S 
ATOM     23  O   UNL     1       2.438   4.749  20.392  0.00  0.00    +0.000 OA
ATOM     24  O   UNL     1       2.004   5.027  17.921  0.00  0.00    +0.000 OA
BRANCH  22  25
ATOM     25  N   UNL     1       4.284   5.632  18.822  0.00  0.00    +0.000 N 
ATOM     26  H   UNL     1       4.856   5.242  19.569  0.00  0.00    +0.000 HD
BRANCH  25  27
ATOM     27  C   UNL     1       4.716   5.381  17.489  0.00  0.00    +0.000 A 
ATOM     28  C   UNL     1       5.100   4.087  17.138  0.00  0.00    +0.000 A 
ATOM     29  C   UNL     1       5.609   3.834  15.864  0.00  0.00    +0.000 A 
ATOM     30  C   UNL     1       5.758   4.879  14.953  0.00  0.00    +0.000 A 
ATOM     31  C   UNL     1       5.378   6.173  15.307  0.00  0.00    +0.000 A 
ATOM     32  C   UNL     1       4.842   6.423  16.571  0.00  0.00    +0.000 A 
ENDBRANCH  25  27
ENDBRANCH  22  25
ENDBRANCH   4  22
TORSDOF 9
ENDMDL
MODEL 9
REMARK VINA RESULT:      -7.7      0.680      1.317
REMARK  Name = 
REMARK  9 active torsions:
REMARK  status: ('A' for Active; 'I' for Inactive)
REMARK    1  A    between atoms: N_1  and  C_2
REMARK    2  A    between atoms: C_2  and  C_3
REMARK    3  A    between atoms: C_3  and  N_4
REMARK    4  A    between atoms: N_4  and  C_5
REMARK    5  A    between atoms: C_5  and  C_6
REMARK    6  A    between atoms: C_12  and  C_14
REMARK    7  A    between atoms: C_17  and  S_18
REMARK    8  A    between atoms: S_18  and  N_21
REMARK    9  A    between atoms: N_21  and  C_22
REMARK                            x       y       z     vdW  Elec       q    Type
REMARK                         _______ _______ _______ _____ _____    ______ ____
ROOT
ATOM      1  C   UNL     1       3.094   7.249  18.224  0.00  0.00    +0.000 A 
ATOM      2  C   UNL     1       2.745   6.991  19.553  0.00  0.00    +0.000 A 
ATOM      3  C   UNL     1       1.835   7.807  20.223  0.00  0.00    +0.000 A 
ATOM      4  C   UNL     1       1.330   8.946  19.590  0.00  0.00    +0.000 A 
ATOM      5  C   UNL     1       1.681   9.238  18.269  0.00  0.00    +0.000 A 
ATOM      6  C   UNL     1       2.569   8.392  17.591  0.00  0.00    +0.000 A 
ENDROOT
BRANCH   1   8
ATOM      7  N   UNL     1       3.866   5.034  17.267  0.00  0.00    +0.000 N 
ATOM      8  C   UNL     1       4.084   6.406  17.488  0.00  0.00    +0.000 C 
ATOM      9  O   UNL     1       5.089   6.987  17.075  0.00  0.00    +0.000 OA
BRANCH   7  10
ATOM     10  C   UNL     1       4.849   4.332  16.411  0.00  0.00    +0.000 C 
BRANCH  10  11
ATOM     11  C   UNL     1       6.241   4.164  17.044  0.00  0.00    +0.000 C 
BRANCH  11  12
ATOM     12  N   UNL     1       7.290   4.854  16.288  0.00  0.00    +0.000 NA
ATOM     13  H   UNL     1       8.146   4.864  16.841  0.00  0.00    +0.000 HD
ATOM     14  H   UNL     1       7.024   5.832  16.165  0.00  0.00    +0.000 HD
ENDBRANCH  11  12
ENDBRANCH  10  11
ENDBRANCH   7  10
BRANCH   7  15
ATOM     15  C   UNL     1       2.590   4.344  17.509  0.00  0.00    +0.000 C 
BRANCH  15  16
ATOM     16  C   UNL     1       2.379   3.711  18.875  0.00  0.00    +0.000 A 
ATOM     17  C   UNL     1       1.157   3.687  19.559  0.00  0.00    +0.000 A 
ATOM     18  C   UNL     1       1.069   3.183  20.861  0.00  0.00    +0.000 A 
ATOM     19  C   UNL     1       2.194   2.651  21.485  0.00  0.00    +0.000 A 
ATOM     20  C   UNL     1       3.401   2.596  20.796  0.00  0.00    +0.000 A 
ATOM     21  C   UNL     1       3.491   3.122  19.503  0.00  0.00    +0.000 A 
ENDBRANCH  15  16
ENDBRANCH   7  15
ENDBRANCH   1   8
BRANCH   4  22
ATOM     22  S   UNL     1       0.271  10.038  20.523  0.00  0.00    +0.000 S 
ATOM     23  O   UNL     1      -0.853   9.272  21.010  0.00  0.00    +0.000 OA
ATOM     24  O   UNL     1       1.131  10.776  21.428  0.00  0.00    +0.000 OA
BRANCH  22  25
ATOM     25  N   UNL     1      -0.244  11.143  19.342  0.00  0.00    +0.000 N 
ATOM     26  H   UNL     1       0.045  10.856  18.408  0.00  0.00    +0.000 HD
BRANCH  25  27
ATOM     27  C   UNL     1      -1.560  11.673  19.468  0.00  0.00    +0.000 A 
ATOM     28  C   UNL     1      -1.874  12.438  20.590  0.00  0.00    +0.000 A 
ATOM     29  C   UNL     1      -3.179  12.896  20.777  0.00  0.00    +0.000 A 
ATOM     30  C   UNL     1      -4.173  12.564  19.857  0.00  0.00    +0.000 A 
ATOM     31  C   UNL     1      -3.858  11.794  18.737  0.00  0.00    +0.000 A 
ATOM     32  C   UNL     1      -2.547  11.360  18.533  0.00  0.00    +0.000 A 
ENDBRANCH  25  27
ENDBRANCH  22  25
ENDBRANCH   4  22
TORSDOF 9
ENDMDL
