MODEL 1
REMARK VINA RESULT:      -7.7      0.000      0.000
REMARK  Name = 
REMARK  5 active torsions:
REMARK  status: ('A' for Active; 'I' for Inactive)
REMARK    1  A    between atoms: C_1  and  O_2
REMARK    2  A    between atoms: O_2  and  C_3
REMARK    3  A    between atoms: C_9  and  N_10
REMARK    4  A    between atoms: N_13  and  C_14
REMARK    5  A    between atoms: C_14  and  C_15
REMARK                            x       y       z     vdW  Elec       q    Type
REMARK                         _______ _______ _______ _____ _____    ______ ____
ROOT
ATOM      1  N   UNL     1       2.417   6.439  19.022  0.00  0.00    +0.000 N 
ATOM      2  C   UNL     1       2.970   7.296  17.982  0.00  0.00    +0.000 C 
ATOM      3  C   UNL     1       2.007   8.446  17.690  0.00  0.00    +0.000 C 
ATOM      4  N   UNL     1       1.728   9.208  18.896  0.00  0.00    +0.000 N 
ATOM      5  C   UNL     1       1.568   8.544  20.113  0.00  0.00    +0.000 C 
ATOM      6  O   UNL     1       1.254   9.119  21.151  0.00  0.00    +0.000 OA
ATOM      7  C   UNL     1       1.768   7.004  20.129  0.00  0.00    +0.000 C 
ATOM      8  O   UNL     1       1.359   6.370  21.098  0.00  0.00    +0.000 OA
ENDROOT
BRANCH   1  15
ATOM      9  C   UNL     1       3.965   4.516  19.374  0.00  0.00    +0.000 A 
ATOM     10  C   UNL     1       4.148   3.124  19.397  0.00  0.00    +0.000 A 
ATOM     11  C   UNL     1       3.105   2.264  19.048  0.00  0.00    +0.000 A 
ATOM     12  C   UNL     1       1.878   2.790  18.680  0.00  0.00    +0.000 A 
ATOM     13  F   UNL     1       0.886   1.963  18.323  0.00  0.00    +0.000 F 
ATOM     14  C   UNL     1       1.664   4.161  18.672  0.00  0.00    +0.000 A 
ATOM     15  C   UNL     1       2.703   5.040  19.015  0.00  0.00    +0.000 A 
BRANCH   9  17
ATOM     16  C   UNL     1       6.192   5.318  19.071  0.00  0.00    +0.000 C 
ATOM     17  O   UNL     1       4.937   5.415  19.738  0.00  0.00    +0.000 OA
ENDBRANCH   9  17
ENDBRANCH   1  15
BRANCH   4  18
ATOM     18  C   UNL     1       1.238  10.577  18.772  0.00  0.00    +0.000 C 
BRANCH  18  19
ATOM     19  C   UNL     1      -0.266  10.685  18.640  0.00  0.00    +0.000 A 
ATOM     20  C   UNL     1      -0.921   9.923  17.650  0.00  0.00    +0.000 A 
ATOM     21  C   UNL     1      -2.287  10.086  17.402  0.00  0.00    +0.000 A 
ATOM     22  C   UNL     1      -3.009  11.015  18.139  0.00  0.00    +0.000 A 
ATOM     23  F   UNL     1      -4.309  11.196  17.880  0.00  0.00    +0.000 F 
ATOM     24  C   UNL     1      -2.399  11.767  19.132  0.00  0.00    +0.000 A 
ATOM     25  C   UNL     1      -1.033  11.601  19.385  0.00  0.00    +0.000 A 
ATOM     26 CL   UNL     1      -0.345  12.579  20.632  0.00  0.00    +0.000 Cl
ENDBRANCH  18  19
ENDBRANCH   4  18
TORSDOF 4
ENDMDL
MODEL 2
REMARK VINA RESULT:      -7.6      2.828      7.854
REMARK  Name = 
REMARK  5 active torsions:
REMARK  status: ('A' for Active; 'I' for Inactive)
REMARK    1  A    between atoms: C_1  and  O_2
REMARK    2  A    between atoms: O_2  and  C_3
REMARK    3  A    between atoms: C_9  and  N_10
REMARK    4  A    between atoms: N_13  and  C_14
REMARK    5  A    between atoms: C_14  and  C_15
REMARK                            x       y       z     vdW  Elec       q    Type
REMARK                         _______ _______ _______ _____ _____    ______ ____
ROOT
ATOM      1  N   UNL     1       1.150   9.955  18.998  0.00  0.00    +0.000 N 
ATOM      2  C   UNL     1       1.458   9.081  17.874  0.00  0.00    +0.000 C 
ATOM      3  C   UNL     1       2.622   8.157  18.237  0.00  0.00    +0.000 C 
ATOM      4  N   UNL     1       2.314   7.382  19.428  0.00  0.00    +0.000 N 
ATOM      5  C   UNL     1       1.629   7.981  20.486  0.00  0.00    +0.000 C 
ATOM      6  O   UNL     1       1.409   7.406  21.549  0.00  0.00    +0.000 OA
ATOM      7  C   UNL     1       1.158   9.449  20.306  0.00  0.00    +0.000 C 
ATOM      8  O   UNL     1       0.818  10.082  21.301  0.00  0.00    +0.000 OA
ENDROOT
BRANCH   1  15
ATOM      9  C   UNL     1      -0.723  11.547  18.581  0.00  0.00    +0.000 A 
ATOM     10  C   UNL     1      -1.138  12.877  18.406  0.00  0.00    +0.000 A 
ATOM     11  C   UNL     1      -0.206  13.916  18.385  0.00  0.00    +0.000 A 
ATOM     12  C   UNL     1       1.141  13.630  18.541  0.00  0.00    +0.000 A 
ATOM     13  F   UNL     1       2.035  14.627  18.496  0.00  0.00    +0.000 F 
ATOM     14  C   UNL     1       1.574  12.328  18.739  0.00  0.00    +0.000 A 
ATOM     15  C   UNL     1       0.651  11.271  18.758  0.00  0.00    +0.000 A 
BRANCH   9  17
ATOM     16  C   UNL     1      -2.771  10.561  17.853  0.00  0.00    +0.000 C 
ATOM     17  O   UNL     1      -1.590  10.484  18.646  0.00  0.00    +0.000 OA
ENDBRANCH   9  17
ENDBRANCH   1  15
BRANCH   4  18
ATOM     18  C   UNL     1       3.045   6.143  19.675  0.00  0.00    +0.000 C 
BRANCH  18  19
ATOM     19  C   UNL     1       2.294   4.892  19.273  0.00  0.00    +0.000 A 
ATOM     20  C   UNL     1       1.299   4.387  20.136  0.00  0.00    +0.000 A 
ATOM     21  C   UNL     1       0.670   3.166  19.874  0.00  0.00    +0.000 A 
ATOM     22  C   UNL     1       1.034   2.438  18.749  0.00  0.00    +0.000 A 
ATOM     23  F   UNL     1       0.458   1.253  18.515  0.00  0.00    +0.000 F 
ATOM     24  C   UNL     1       1.996   2.916  17.871  0.00  0.00    +0.000 A 
ATOM     25  C   UNL     1       2.621   4.140  18.129  0.00  0.00    +0.000 A 
ATOM     26 CL   UNL     1       3.813   4.663  16.993  0.00  0.00    +0.000 Cl
ENDBRANCH  18  19
ENDBRANCH   4  18
TORSDOF 4
ENDMDL
MODEL 3
REMARK VINA RESULT:      -7.4      2.754      3.523
REMARK  Name = 
REMARK  5 active torsions:
REMARK  status: ('A' for Active; 'I' for Inactive)
REMARK    1  A    between atoms: C_1  and  O_2
REMARK    2  A    between atoms: O_2  and  C_3
REMARK    3  A    between atoms: C_9  and  N_10
REMARK    4  A    between atoms: N_13  and  C_14
REMARK    5  A    between atoms: C_14  and  C_15
REMARK                            x       y       z     vdW  Elec       q    Type
REMARK                         _______ _______ _______ _____ _____    ______ ____
ROOT
ATOM      1  N   UNL     1       2.809   7.123  18.494  0.00  0.00    +0.000 N 
ATOM      2  C   UNL     1       2.678   8.385  17.780  0.00  0.00    +0.000 C 
ATOM      3  C   UNL     1       1.298   8.990  18.039  0.00  0.00    +0.000 C 
ATOM      4  N   UNL     1       1.074   9.175  19.464  0.00  0.00    +0.000 N 
ATOM      5  C   UNL     1       1.521   8.208  20.366  0.00  0.00    +0.000 C 
ATOM      6  O   UNL     1       1.294   8.265  21.571  0.00  0.00    +0.000 OA
ATOM      7  C   UNL     1       2.310   6.998  19.799  0.00  0.00    +0.000 C 
ATOM      8  O   UNL     1       2.460   6.010  20.512  0.00  0.00    +0.000 OA
ENDROOT
BRANCH   1  15
ATOM      9  C   UNL     1       3.073   4.836  17.536  0.00  0.00    +0.000 A 
ATOM     10  C   UNL     1       3.921   3.879  16.955  0.00  0.00    +0.000 A 
ATOM     11  C   UNL     1       5.285   4.137  16.804  0.00  0.00    +0.000 A 
ATOM     12  C   UNL     1       5.804   5.350  17.228  0.00  0.00    +0.000 A 
ATOM     13  F   UNL     1       7.117   5.585  17.103  0.00  0.00    +0.000 F 
ATOM     14  C   UNL     1       4.983   6.320  17.783  0.00  0.00    +0.000 A 
ATOM     15  C   UNL     1       3.611   6.077  17.947  0.00  0.00    +0.000 A 
BRANCH   9  17
ATOM     16  C   UNL     1       1.287   3.473  18.340  0.00  0.00    +0.000 C 
ATOM     17  O   UNL     1       1.719   4.660  17.682  0.00  0.00    +0.000 OA
ENDBRANCH   9  17
ENDBRANCH   1  15
BRANCH   4  18
ATOM     18  C   UNL     1       0.069  10.137  19.903  0.00  0.00    +0.000 C 
BRANCH  18  19
ATOM     19  C   UNL     1       0.357  11.564  19.491  0.00  0.00    +0.000 A 
ATOM     20  C   UNL     1       1.429  12.248  20.101  0.00  0.00    +0.000 A 
ATOM     21  C   UNL     1       1.654  13.605  19.851  0.00  0.00    +0.000 A 
ATOM     22  C   UNL     1       0.806  14.290  18.992  0.00  0.00    +0.000 A 
ATOM     23  F   UNL     1       1.000  15.598  18.779  0.00  0.00    +0.000 F 
ATOM     24  C   UNL     1      -0.246  13.644  18.363  0.00  0.00    +0.000 A 
ATOM     25  C   UNL     1      -0.468  12.284  18.607  0.00  0.00    +0.000 A 
ATOM     26 CL   UNL     1      -1.804  11.552  17.791  0.00  0.00    +0.000 Cl
ENDBRANCH  18  19
ENDBRANCH   4  18
TORSDOF 4
ENDMDL
MODEL 4
REMARK VINA RESULT:      -7.4      1.278      1.641
REMARK  Name = 
REMARK  5 active torsions:
REMARK  status: ('A' for Active; 'I' for Inactive)
REMARK    1  A    between atoms: C_1  and  O_2
REMARK    2  A    between atoms: O_2  and  C_3
REMARK    3  A    between atoms: C_9  and  N_10
REMARK    4  A    between atoms: N_13  and  C_14
REMARK    5  A    between atoms: C_14  and  C_15
REMARK                            x       y       z     vdW  Elec       q    Type
REMARK                         _______ _______ _______ _____ _____    ______ ____
ROOT
ATOM      1  N   UNL     1       2.332   6.201  19.303  0.00  0.00    +0.000 N 
ATOM      2  C   UNL     1       1.358   6.622  20.301  0.00  0.00    +0.000 C 
ATOM      3  C   UNL     1       1.598   8.084  20.678  0.00  0.00    +0.000 C 
ATOM      4  N   UNL     1       1.538   8.938  19.503  0.00  0.00    +0.000 N 
ATOM      5  C   UNL     1       2.089   8.498  18.299  0.00  0.00    +0.000 C 
ATOM      6  O   UNL     1       2.142   9.201  17.294  0.00  0.00    +0.000 OA
ATOM      7  C   UNL     1       2.685   7.065  18.256  0.00  0.00    +0.000 C 
ATOM      8  O   UNL     1       3.418   6.764  17.319  0.00  0.00    +0.000 OA
ENDROOT
BRANCH   1  15
ATOM      9  C   UNL     1       4.129   4.485  19.508  0.00  0.00    +0.000 A 
ATOM     10  C   UNL     1       4.481   3.125  19.520  0.00  0.00    +0.000 A 
ATOM     11  C   UNL     1       3.519   2.140  19.286  0.00  0.00    +0.000 A 
ATOM     12  C   UNL     1       2.206   2.509  19.042  0.00  0.00    +0.000 A 
ATOM     13  F   UNL     1       1.291   1.562  18.793  0.00  0.00    +0.000 F 
ATOM     14  C   UNL     1       1.829   3.844  19.047  0.00  0.00    +0.000 A 
ATOM     15  C   UNL     1       2.783   4.847  19.277  0.00  0.00    +0.000 A 
BRANCH   9  17
ATOM     16  C   UNL     1       6.290   5.424  19.130  0.00  0.00    +0.000 C 
ATOM     17  O   UNL     1       5.016   5.500  19.765  0.00  0.00    +0.000 OA
ENDBRANCH   9  17
ENDBRANCH   1  15
BRANCH   4  18
ATOM     18  C   UNL     1       1.271  10.362  19.676  0.00  0.00    +0.000 C 
BRANCH  18  19
ATOM     19  C   UNL     1      -0.174  10.752  19.452  0.00  0.00    +0.000 A 
ATOM     20  C   UNL     1      -0.850  10.246  18.322  0.00  0.00    +0.000 A 
ATOM     21  C   UNL     1      -2.140  10.678  18.000  0.00  0.00    +0.000 A 
ATOM     22  C   UNL     1      -2.763  11.623  18.804  0.00  0.00    +0.000 A 
ATOM     23  F   UNL     1      -3.984  12.063  18.478  0.00  0.00    +0.000 F 
ATOM     24  C   UNL     1      -2.133  12.128  19.932  0.00  0.00    +0.000 A 
ATOM     25  C   UNL     1      -0.845  11.691  20.258  0.00  0.00    +0.000 A 
ATOM     26 CL   UNL     1      -0.124  12.371  21.673  0.00  0.00    +0.000 Cl
ENDBRANCH  18  19
ENDBRANCH   4  18
TORSDOF 4
ENDMDL
MODEL 5
REMARK VINA RESULT:      -7.4      2.616      7.563
REMARK  Name = 
REMARK  5 active torsions:
REMARK  status: ('A' for Active; 'I' for Inactive)
REMARK    1  A    between atoms: C_1  and  O_2
REMARK    2  A    between atoms: O_2  and  C_3
REMARK    3  A    between atoms: C_9  and  N_10
REMARK    4  A    between atoms: N_13  and  C_14
REMARK    5  A    between atoms: C_14  and  C_15
REMARK                            x       y       z     vdW  Elec       q    Type
REMARK                         _______ _______ _______ _____ _____    ______ ____
ROOT
ATOM      1  N   UNL     1       0.996   9.497  19.329  0.00  0.00    +0.000 N 
ATOM      2  C   UNL     1       1.261   8.973  20.661  0.00  0.00    +0.000 C 
ATOM      3  C   UNL     1       1.490   7.463  20.591  0.00  0.00    +0.000 C 
ATOM      4  N   UNL     1       2.580   7.147  19.683  0.00  0.00    +0.000 N 
ATOM      5  C   UNL     1       2.721   7.863  18.494  0.00  0.00    +0.000 C 
ATOM      6  O   UNL     1       3.570   7.594  17.649  0.00  0.00    +0.000 OA
ATOM      7  C   UNL     1       1.730   9.029  18.229  0.00  0.00    +0.000 C 
ATOM      8  O   UNL     1       1.646   9.478  17.090  0.00  0.00    +0.000 OA
ENDROOT
BRANCH   1  15
ATOM      9  C   UNL     1       0.596  11.953  19.171  0.00  0.00    +0.000 A 
ATOM     10  C   UNL     1      -0.313  12.999  18.948  0.00  0.00    +0.000 A 
ATOM     11  C   UNL     1      -1.668  12.732  18.744  0.00  0.00    +0.000 A 
ATOM     12  C   UNL     1      -2.118  11.421  18.760  0.00  0.00    +0.000 A 
ATOM     13  F   UNL     1      -3.422  11.169  18.588  0.00  0.00    +0.000 F 
ATOM     14  C   UNL     1      -1.236  10.369  18.955  0.00  0.00    +0.000 A 
ATOM     15  C   UNL     1       0.129  10.619  19.166  0.00  0.00    +0.000 A 
BRANCH   9  17
ATOM     16  C   UNL     1       2.641  12.828  18.305  0.00  0.00    +0.000 C 
ATOM     17  O   UNL     1       1.945  12.144  19.343  0.00  0.00    +0.000 OA
ENDBRANCH   9  17
ENDBRANCH   1  15
BRANCH   4  18
ATOM     18  C   UNL     1       3.264   5.864  19.817  0.00  0.00    +0.000 C 
BRANCH  18  19
ATOM     19  C   UNL     1       2.436   4.675  19.381  0.00  0.00    +0.000 A 
ATOM     20  C   UNL     1       1.401   4.217  20.223  0.00  0.00    +0.000 A 
ATOM     21  C   UNL     1       0.697   3.047  19.927  0.00  0.00    +0.000 A 
ATOM     22  C   UNL     1       1.025   2.321  18.790  0.00  0.00    +0.000 A 
ATOM     23  F   UNL     1       0.374   1.182  18.524  0.00  0.00    +0.000 F 
ATOM     24  C   UNL     1       2.025   2.753  17.933  0.00  0.00    +0.000 A 
ATOM     25  C   UNL     1       2.726   3.927  18.224  0.00  0.00    +0.000 A 
ATOM     26 CL   UNL     1       3.963   4.395  17.111  0.00  0.00    +0.000 Cl
ENDBRANCH  18  19
ENDBRANCH   4  18
TORSDOF 4
ENDMDL
MODEL 6
REMARK VINA RESULT:      -7.2      2.512      7.402
REMARK  Name = 
REMARK  5 active torsions:
REMARK  status: ('A' for Active; 'I' for Inactive)
REMARK    1  A    between atoms: C_1  and  O_2
REMARK    2  A    between atoms: O_2  and  C_3
REMARK    3  A    between atoms: C_9  and  N_10
REMARK    4  A    between atoms: N_13  and  C_14
REMARK    5  A    between atoms: C_14  and  C_15
REMARK                            x       y       z     vdW  Elec       q    Type
REMARK                         _______ _______ _______ _____ _____    ______ ____
ROOT
ATOM      1  N   UNL     1       0.987   9.378  19.279  0.00  0.00    +0.000 N 
ATOM      2  C   UNL     1       1.230   8.854  20.616  0.00  0.00    +0.000 C 
ATOM      3  C   UNL     1       1.525   7.356  20.543  0.00  0.00    +0.000 C 
ATOM      4  N   UNL     1       2.658   7.095  19.670  0.00  0.00    +0.000 N 
ATOM      5  C   UNL     1       2.808   7.827  18.492  0.00  0.00    +0.000 C 
ATOM      6  O   UNL     1       3.696   7.602  17.674  0.00  0.00    +0.000 OA
ATOM      7  C   UNL     1       1.778   8.952  18.202  0.00  0.00    +0.000 C 
ATOM      8  O   UNL     1       1.713   9.407  17.064  0.00  0.00    +0.000 OA
ENDROOT
BRANCH   1  15
ATOM      9  C   UNL     1       0.485  11.817  19.144  0.00  0.00    +0.000 A 
ATOM     10  C   UNL     1      -0.460  12.826  18.897  0.00  0.00    +0.000 A 
ATOM     11  C   UNL     1      -1.791  12.502  18.626  0.00  0.00    +0.000 A 
ATOM     12  C   UNL     1      -2.181  11.173  18.598  0.00  0.00    +0.000 A 
ATOM     13  F   UNL     1      -3.463  10.867  18.362  0.00  0.00    +0.000 F 
ATOM     14  C   UNL     1      -1.262  10.157  18.817  0.00  0.00    +0.000 A 
ATOM     15  C   UNL     1       0.079  10.464  19.095  0.00  0.00    +0.000 A 
BRANCH   9  17
ATOM     16  C   UNL     1       2.546  12.721  18.352  0.00  0.00    +0.000 C 
ATOM     17  O   UNL     1       1.814  12.064  19.382  0.00  0.00    +0.000 OA
ENDBRANCH   9  17
ENDBRANCH   1  15
BRANCH   4  18
ATOM     18  C   UNL     1       3.392   5.842  19.818  0.00  0.00    +0.000 C 
BRANCH  18  19
ATOM     19  C   UNL     1       2.599   4.613  19.428  0.00  0.00    +0.000 A 
ATOM     20  C   UNL     1       2.277   4.411  18.070  0.00  0.00    +0.000 A 
ATOM     21  C   UNL     1       1.438   3.364  17.677  0.00  0.00    +0.000 A 
ATOM     22  C   UNL     1       0.910   2.514  18.638  0.00  0.00    +0.000 A 
ATOM     23  F   UNL     1       0.080   1.532  18.267  0.00  0.00    +0.000 F 
ATOM     24  C   UNL     1       1.221   2.674  19.981  0.00  0.00    +0.000 A 
ATOM     25  C   UNL     1       2.066   3.717  20.374  0.00  0.00    +0.000 A 
ATOM     26 CL   UNL     1       2.399   3.856  22.064  0.00  0.00    +0.000 Cl
ENDBRANCH  18  19
ENDBRANCH   4  18
TORSDOF 4
ENDMDL
MODEL 7
REMARK VINA RESULT:      -7.2      3.300      8.066
REMARK  Name = 
REMARK  5 active torsions:
REMARK  status: ('A' for Active; 'I' for Inactive)
REMARK    1  A    between atoms: C_1  and  O_2
REMARK    2  A    between atoms: O_2  and  C_3
REMARK    3  A    between atoms: C_9  and  N_10
REMARK    4  A    between atoms: N_13  and  C_14
REMARK    5  A    between atoms: C_14  and  C_15
REMARK                            x       y       z     vdW  Elec       q    Type
REMARK                         _______ _______ _______ _____ _____    ______ ____
ROOT
ATOM      1  N   UNL     1       1.302   9.580  18.853  0.00  0.00    +0.000 N 
ATOM      2  C   UNL     1       1.772   8.871  17.671  0.00  0.00    +0.000 C 
ATOM      3  C   UNL     1       2.952   7.972  18.039  0.00  0.00    +0.000 C 
ATOM      4  N   UNL     1       2.583   7.039  19.091  0.00  0.00    +0.000 N 
ATOM      5  C   UNL     1       1.763   7.463  20.137  0.00  0.00    +0.000 C 
ATOM      6  O   UNL     1       1.480   6.749  21.095  0.00  0.00    +0.000 OA
ATOM      7  C   UNL     1       1.218   8.916  20.086  0.00  0.00    +0.000 C 
ATOM      8  O   UNL     1       0.744   9.400  21.110  0.00  0.00    +0.000 OA
ENDROOT
BRANCH   1  15
ATOM      9  C   UNL     1      -0.627  11.112  18.467  0.00  0.00    +0.000 A 
ATOM     10  C   UNL     1      -1.107  12.430  18.409  0.00  0.00    +0.000 A 
ATOM     11  C   UNL     1      -0.240  13.511  18.580  0.00  0.00    +0.000 A 
ATOM     12  C   UNL     1       1.106  13.279  18.811  0.00  0.00    +0.000 A 
ATOM     13  F   UNL     1       1.940  14.318  18.951  0.00  0.00    +0.000 F 
ATOM     14  C   UNL     1       1.601  11.986  18.896  0.00  0.00    +0.000 A 
ATOM     15  C   UNL     1       0.744  10.888  18.723  0.00  0.00    +0.000 A 
BRANCH   9  17
ATOM     16  C   UNL     1      -2.364  10.000  17.266  0.00  0.00    +0.000 C 
ATOM     17  O   UNL     1      -1.431  10.006  18.343  0.00  0.00    +0.000 OA
ENDBRANCH   9  17
ENDBRANCH   1  15
BRANCH   4  18
ATOM     18  C   UNL     1       3.366   5.818  19.261  0.00  0.00    +0.000 C 
BRANCH  18  19
ATOM     19  C   UNL     1       4.306   5.522  18.112  0.00  0.00    +0.000 A 
ATOM     20  C   UNL     1       5.478   6.295  17.972  0.00  0.00    +0.000 A 
ATOM     21  C   UNL     1       6.308   6.148  16.857  0.00  0.00    +0.000 A 
ATOM     22  C   UNL     1       5.971   5.230  15.871  0.00  0.00    +0.000 A 
ATOM     23  F   UNL     1       6.747   5.112  14.787  0.00  0.00    +0.000 F 
ATOM     24  C   UNL     1       4.836   4.443  15.987  0.00  0.00    +0.000 A 
ATOM     25  C   UNL     1       4.008   4.584  17.105  0.00  0.00    +0.000 A 
ATOM     26 CL   UNL     1       2.608   3.573  17.174  0.00  0.00    +0.000 Cl
ENDBRANCH  18  19
ENDBRANCH   4  18
TORSDOF 4
ENDMDL
MODEL 8
REMARK VINA RESULT:      -7.2      2.146      2.709
REMARK  Name = 
REMARK  5 active torsions:
REMARK  status: ('A' for Active; 'I' for Inactive)
REMARK    1  A    between atoms: C_1  and  O_2
REMARK    2  A    between atoms: O_2  and  C_3
REMARK    3  A    between atoms: C_9  and  N_10
REMARK    4  A    between atoms: N_13  and  C_14
REMARK    5  A    between atoms: C_14  and  C_15
REMARK                            x       y       z     vdW  Elec       q    Type
REMARK                         _______ _______ _______ _____ _____    ______ ____
ROOT
ATOM      1  N   UNL     1       2.823   7.120  18.516  0.00  0.00    +0.000 N 
ATOM      2  C   UNL     1       2.766   8.406  17.836  0.00  0.00    +0.000 C 
ATOM      3  C   UNL     1       1.411   9.068  18.089  0.00  0.00    +0.000 C 
ATOM      4  N   UNL     1       1.170   9.224  19.514  0.00  0.00    +0.000 N 
ATOM      5  C   UNL     1       1.553   8.212  20.396  0.00  0.00    +0.000 C 
ATOM      6  O   UNL     1       1.306   8.246  21.598  0.00  0.00    +0.000 OA
ATOM      7  C   UNL     1       2.295   6.982  19.808  0.00  0.00    +0.000 C 
ATOM      8  O   UNL     1       2.384   5.969  20.495  0.00  0.00    +0.000 OA
ENDROOT
BRANCH   1  15
ATOM      9  C   UNL     1       3.007   4.825  17.557  0.00  0.00    +0.000 A 
ATOM     10  C   UNL     1       3.817   3.846  16.959  0.00  0.00    +0.000 A 
ATOM     11  C   UNL     1       5.183   4.068  16.777  0.00  0.00    +0.000 A 
ATOM     12  C   UNL     1       5.742   5.268  17.186  0.00  0.00    +0.000 A 
ATOM     13  F   UNL     1       7.058   5.468  17.032  0.00  0.00    +0.000 F 
ATOM     14  C   UNL     1       4.960   6.260  17.758  0.00  0.00    +0.000 A 
ATOM     15  C   UNL     1       3.586   6.052  17.954  0.00  0.00    +0.000 A 
BRANCH   9  17
ATOM     16  C   UNL     1       1.200   3.478  18.341  0.00  0.00    +0.000 C 
ATOM     17  O   UNL     1       1.652   4.685  17.734  0.00  0.00    +0.000 OA
ENDBRANCH   9  17
ENDBRANCH   1  15
BRANCH   4  18
ATOM     18  C   UNL     1       0.202  10.220  19.964  0.00  0.00    +0.000 C 
BRANCH  18  19
ATOM     19  C   UNL     1      -0.840  10.581  18.927  0.00  0.00    +0.000 A 
ATOM     20  C   UNL     1      -1.771   9.600  18.525  0.00  0.00    +0.000 A 
ATOM     21  C   UNL     1      -2.666   9.843  17.480  0.00  0.00    +0.000 A 
ATOM     22  C   UNL     1      -2.636  11.067  16.825  0.00  0.00    +0.000 A 
ATOM     23  F   UNL     1      -3.469  11.289  15.801  0.00  0.00    +0.000 F 
ATOM     24  C   UNL     1      -1.745  12.059  17.207  0.00  0.00    +0.000 A 
ATOM     25  C   UNL     1      -0.853  11.819  18.258  0.00  0.00    +0.000 A 
ATOM     26 CL   UNL     1       0.230  13.100  18.670  0.00  0.00    +0.000 Cl
ENDBRANCH  18  19
ENDBRANCH   4  18
TORSDOF 4
ENDMDL
MODEL 9
REMARK VINA RESULT:      -7.1      2.425      2.917
REMARK  Name = 
REMARK  5 active torsions:
REMARK  status: ('A' for Active; 'I' for Inactive)
REMARK    1  A    between atoms: C_1  and  O_2
REMARK    2  A    between atoms: O_2  and  C_3
REMARK    3  A    between atoms: C_9  and  N_10
REMARK    4  A    between atoms: N_13  and  C_14
REMARK    5  A    between atoms: C_14  and  C_15
REMARK                            x       y       z     vdW  Elec       q    Type
REMARK                         _______ _______ _______ _____ _____    ______ ____
ROOT
ATOM      1  N   UNL     1       2.471   7.125  18.515  0.00  0.00    +0.000 N 
ATOM      2  C   UNL     1       2.401   8.384  17.786  0.00  0.00    +0.000 C 
ATOM      3  C   UNL     1       1.122   9.133  18.162  0.00  0.00    +0.000 C 
ATOM      4  N   UNL     1       1.058   9.359  19.596  0.00  0.00    +0.000 N 
ATOM      5  C   UNL     1       1.489   8.364  20.475  0.00  0.00    +0.000 C 
ATOM      6  O   UNL     1       1.387   8.461  21.694  0.00  0.00    +0.000 OA
ATOM      7  C   UNL     1       2.092   7.070  19.864  0.00  0.00    +0.000 C 
ATOM      8  O   UNL     1       2.208   6.082  20.583  0.00  0.00    +0.000 OA
ENDROOT
BRANCH   1  15
ATOM      9  C   UNL     1       4.441   6.020  17.459  0.00  0.00    +0.000 A 
ATOM     10  C   UNL     1       5.010   4.848  16.936  0.00  0.00    +0.000 A 
ATOM     11  C   UNL     1       4.262   3.672  16.849  0.00  0.00    +0.000 A 
ATOM     12  C   UNL     1       2.947   3.663  17.287  0.00  0.00    +0.000 A 
ATOM     13  F   UNL     1       2.225   2.540  17.180  0.00  0.00    +0.000 F 
ATOM     14  C   UNL     1       2.370   4.802  17.828  0.00  0.00    +0.000 A 
ATOM     15  C   UNL     1       3.105   5.994  17.919  0.00  0.00    +0.000 A 
BRANCH   9  17
ATOM     16  C   UNL     1       6.526   7.173  17.318  0.00  0.00    +0.000 C 
ATOM     17  O   UNL     1       5.131   7.199  17.604  0.00  0.00    +0.000 OA
ENDBRANCH   9  17
ENDBRANCH   1  15
BRANCH   4  18
ATOM     18  C   UNL     1       0.203  10.427  20.107  0.00  0.00    +0.000 C 
BRANCH  18  19
ATOM     19  C   UNL     1       0.538  11.799  19.564  0.00  0.00    +0.000 A 
ATOM     20  C   UNL     1       1.717  12.438  20.002  0.00  0.00    +0.000 A 
ATOM     21  C   UNL     1       2.003  13.755  19.632  0.00  0.00    +0.000 A 
ATOM     22  C   UNL     1       1.110  14.447  18.825  0.00  0.00    +0.000 A 
ATOM     23  F   UNL     1       1.365  15.719  18.499  0.00  0.00    +0.000 F 
ATOM     24  C   UNL     1      -0.050  13.842  18.363  0.00  0.00    +0.000 A 
ATOM     25  C   UNL     1      -0.333  12.522  18.728  0.00  0.00    +0.000 A 
ATOM     26 CL   UNL     1      -1.800  11.841  18.118  0.00  0.00    +0.000 Cl
ENDBRANCH  18  19
ENDBRANCH   4  18
TORSDOF 4
ENDMDL
