MODEL 1
REMARK VINA RESULT:      -7.2      0.000      0.000
REMARK  Name = 
REMARK  9 active torsions:
REMARK  status: ('A' for Active; 'I' for Inactive)
REMARK    1  A    between atoms: C_1  and  O_2
REMARK    2  A    between atoms: O_2  and  C_3
REMARK    3  A    between atoms: C_8  and  C_9
REMARK    4  A    between atoms: C_10  and  C_11
REMARK    5  A    between atoms: C_11  and  O_13
REMARK    6  A    between atoms: O_13  and  C_14
REMARK    7  A    between atoms: C_14  and  C_15
REMARK    8  A    between atoms: N_17  and  C_18
REMARK    9  A    between atoms: C_18  and  C_19
REMARK                            x       y       z     vdW  Elec       q    Type
REMARK                         _______ _______ _______ _____ _____    ______ ____
ROOT
ATOM      1  C   UNL     1       1.889   2.155  19.447  0.00  0.00    +0.000 C 
ENDROOT
BRANCH   1   2
ATOM      2  C   UNL     1       2.053   2.936  18.142  0.00  0.00    +0.000 C 
ATOM      3  O   UNL     1       1.112   3.491  17.579  0.00  0.00    +0.000 OA
ATOM      4  N   UNL     1       3.351   2.987  17.678  0.00  0.00    +0.000 N 
ATOM      5  H   UNL     1       4.078   2.455  18.138  0.00  0.00    +0.000 HD
BRANCH   4   6
ATOM      6  C   UNL     1       3.721   3.785  16.540  0.00  0.00    +0.000 C 
BRANCH   6   7
ATOM      7  C   UNL     1       4.946   4.659  16.702  0.00  0.00    +0.000 A 
ATOM      8  C   UNL     1       4.981   6.023  16.322  0.00  0.00    +0.000 A 
ATOM      9  C   UNL     1       6.001   6.872  16.770  0.00  0.00    +0.000 A 
ATOM     10  C   UNL     1       6.937   6.339  17.624  0.00  0.00    +0.000 A 
ATOM     11  C   UNL     1       6.951   4.999  17.942  0.00  0.00    +0.000 A 
ATOM     12  C   UNL     1       6.002   4.127  17.463  0.00  0.00    +0.000 A 
ATOM     13  O   UNL     1       7.897   4.699  18.873  0.00  0.00    +0.000 OA
ATOM     14  C   UNL     1       8.195   6.032  19.329  0.00  0.00    +0.000 C 
ATOM     15  O   UNL     1       7.867   7.033  18.341  0.00  0.00    +0.000 OA
ENDBRANCH   6   7
ENDBRANCH   4   6
ENDBRANCH   1   2
BRANCH   1  16
ATOM     16  O   UNL     1       1.233   2.908  20.458  0.00  0.00    +0.000 OA
BRANCH  16  17
ATOM     17  C   UNL     1       2.085   3.508  21.329  0.00  0.00    +0.000 C 
ATOM     18  O   UNL     1       2.519   3.019  22.364  0.00  0.00    +0.000 OA
BRANCH  17  20
ATOM     19  C   UNL     1       1.396   5.658  20.395  0.00  0.00    +0.000 C 
ATOM     20  C   UNL     1       2.386   4.862  20.824  0.00  0.00    +0.000 C 
BRANCH  19  26
ATOM     21  C   UNL     1       1.315   8.209  20.404  0.00  0.00    +0.000 A 
ATOM     22  C   UNL     1       1.589   9.415  19.743  0.00  0.00    +0.000 A 
ATOM     23  C   UNL     1       2.178   9.412  18.477  0.00  0.00    +0.000 A 
ATOM     24  C   UNL     1       2.486   8.205  17.859  0.00  0.00    +0.000 A 
ATOM     25  C   UNL     1       2.194   6.998  18.498  0.00  0.00    +0.000 A 
ATOM     26  C   UNL     1       1.592   6.980  19.768  0.00  0.00    +0.000 A 
BRANCH  21  28
ATOM     27  C   UNL     1       0.243   9.381  22.179  0.00  0.00    +0.000 C 
ATOM     28  O   UNL     1       0.769   8.164  21.664  0.00  0.00    +0.000 OA
ENDBRANCH  21  28
ENDBRANCH  19  26
ENDBRANCH  17  20
ENDBRANCH  16  17
ENDBRANCH   1  16
TORSDOF 8
ENDMDL
MODEL 2
REMARK VINA RESULT:      -7.2      4.769      7.458
REMARK  Name = 
REMARK  9 active torsions:
REMARK  status: ('A' for Active; 'I' for Inactive)
REMARK    1  A    between atoms: C_1  and  O_2
REMARK    2  A    between atoms: O_2  and  C_3
REMARK    3  A    between atoms: C_8  and  C_9
REMARK    4  A    between atoms: C_10  and  C_11
REMARK    5  A    between atoms: C_11  and  O_13
REMARK    6  A    between atoms: O_13  and  C_14
REMARK    7  A    between atoms: C_14  and  C_15
REMARK    8  A    between atoms: N_17  and  C_18
REMARK    9  A    between atoms: C_18  and  C_19
REMARK                            x       y       z     vdW  Elec       q    Type
REMARK                         _______ _______ _______ _____ _____    ______ ____
ROOT
ATOM      1  C   UNL     1       7.144   7.712  16.918  0.00  0.00    +0.000 C 
ENDROOT
BRANCH   1   2
ATOM      2  C   UNL     1       7.992   7.950  18.168  0.00  0.00    +0.000 C 
ATOM      3  O   UNL     1       8.305   7.045  18.938  0.00  0.00    +0.000 OA
ATOM      4  N   UNL     1       8.397   9.258  18.330  0.00  0.00    +0.000 N 
ATOM      5  H   UNL     1       8.055   9.978  17.708  0.00  0.00    +0.000 HD
BRANCH   4   6
ATOM      6  C   UNL     1       9.309   9.648  19.372  0.00  0.00    +0.000 C 
BRANCH   6   7
ATOM      7  C   UNL     1       9.895  11.039  19.267  0.00  0.00    +0.000 A 
ATOM      8  C   UNL     1      10.647  11.644  20.303  0.00  0.00    +0.000 A 
ATOM      9  C   UNL     1      11.431  12.779  20.060  0.00  0.00    +0.000 A 
ATOM     10  C   UNL     1      11.474  13.252  18.769  0.00  0.00    +0.000 A 
ATOM     11  C   UNL     1      10.692  12.714  17.772  0.00  0.00    +0.000 A 
ATOM     12  C   UNL     1       9.861  11.641  17.997  0.00  0.00    +0.000 A 
ATOM     13  O   UNL     1      10.956  13.263  16.554  0.00  0.00    +0.000 OA
ATOM     14  C   UNL     1      12.202  13.915  16.868  0.00  0.00    +0.000 C 
ATOM     15  O   UNL     1      12.333  14.191  18.279  0.00  0.00    +0.000 OA
ENDBRANCH   6   7
ENDBRANCH   4   6
ENDBRANCH   1   2
BRANCH   1  16
ATOM     16  O   UNL     1       7.301   6.401  16.390  0.00  0.00    +0.000 OA
BRANCH  16  17
ATOM     17  C   UNL     1       6.148   5.863  15.916  0.00  0.00    +0.000 C 
ATOM     18  O   UNL     1       5.959   5.454  14.778  0.00  0.00    +0.000 OA
BRANCH  17  20
ATOM     19  C   UNL     1       4.415   4.780  17.254  0.00  0.00    +0.000 C 
ATOM     20  C   UNL     1       5.150   5.873  17.004  0.00  0.00    +0.000 C 
BRANCH  19  26
ATOM     21  C   UNL     1       2.551   3.557  18.498  0.00  0.00    +0.000 A 
ATOM     22  C   UNL     1       1.564   3.581  19.493  0.00  0.00    +0.000 A 
ATOM     23  C   UNL     1       1.359   4.728  20.262  0.00  0.00    +0.000 A 
ATOM     24  C   UNL     1       2.132   5.862  20.035  0.00  0.00    +0.000 A 
ATOM     25  C   UNL     1       3.101   5.856  19.029  0.00  0.00    +0.000 A 
ATOM     26  C   UNL     1       3.314   4.715  18.237  0.00  0.00    +0.000 A 
BRANCH  21  28
ATOM     27  C   UNL     1       3.558   1.402  18.364  0.00  0.00    +0.000 C 
ATOM     28  O   UNL     1       2.811   2.440  17.741  0.00  0.00    +0.000 OA
ENDBRANCH  21  28
ENDBRANCH  19  26
ENDBRANCH  17  20
ENDBRANCH  16  17
ENDBRANCH   1  16
TORSDOF 8
ENDMDL
MODEL 3
REMARK VINA RESULT:      -7.2      3.985      7.239
REMARK  Name = 
REMARK  9 active torsions:
REMARK  status: ('A' for Active; 'I' for Inactive)
REMARK    1  A    between atoms: C_1  and  O_2
REMARK    2  A    between atoms: O_2  and  C_3
REMARK    3  A    between atoms: C_8  and  C_9
REMARK    4  A    between atoms: C_10  and  C_11
REMARK    5  A    between atoms: C_11  and  O_13
REMARK    6  A    between atoms: O_13  and  C_14
REMARK    7  A    between atoms: C_14  and  C_15
REMARK    8  A    between atoms: N_17  and  C_18
REMARK    9  A    between atoms: C_18  and  C_19
REMARK                            x       y       z     vdW  Elec       q    Type
REMARK                         _______ _______ _______ _____ _____    ______ ____
ROOT
ATOM      1  C   UNL     1       6.089   7.107  17.097  0.00  0.00    +0.000 C 
ENDROOT
BRANCH   1   2
ATOM      2  C   UNL     1       5.932   5.601  16.881  0.00  0.00    +0.000 C 
ATOM      3  O   UNL     1       6.809   4.794  17.182  0.00  0.00    +0.000 OA
ATOM      4  N   UNL     1       4.713   5.234  16.352  0.00  0.00    +0.000 N 
ATOM      5  H   UNL     1       4.052   5.940  16.056  0.00  0.00    +0.000 HD
BRANCH   4   6
ATOM      6  C   UNL     1       4.332   3.855  16.203  0.00  0.00    +0.000 C 
BRANCH   6   7
ATOM      7  C   UNL     1       3.418   3.289  17.268  0.00  0.00    +0.000 A 
ATOM      8  C   UNL     1       3.518   1.962  17.751  0.00  0.00    +0.000 A 
ATOM      9  C   UNL     1       2.883   1.574  18.938  0.00  0.00    +0.000 A 
ATOM     10  C   UNL     1       2.199   2.543  19.634  0.00  0.00    +0.000 A 
ATOM     11  C   UNL     1       2.038   3.817  19.137  0.00  0.00    +0.000 A 
ATOM     12  C   UNL     1       2.593   4.208  17.941  0.00  0.00    +0.000 A 
ATOM     13  O   UNL     1       1.415   4.642  20.022  0.00  0.00    +0.000 OA
ATOM     14  C   UNL     1       1.542   3.835  21.208  0.00  0.00    +0.000 C 
ATOM     15  O   UNL     1       1.708   2.435  20.900  0.00  0.00    +0.000 OA
ENDBRANCH   6   7
ENDBRANCH   4   6
ENDBRANCH   1   2
BRANCH   1  16
ATOM     16  O   UNL     1       7.421   7.555  16.887  0.00  0.00    +0.000 OA
BRANCH  16  17
ATOM     17  C   UNL     1       8.073   7.881  18.032  0.00  0.00    +0.000 C 
ATOM     18  O   UNL     1       8.391   7.107  18.926  0.00  0.00    +0.000 OA
BRANCH  17  20
ATOM     19  C   UNL     1       9.191   9.876  18.891  0.00  0.00    +0.000 C 
ATOM     20  C   UNL     1       8.320   9.336  18.026  0.00  0.00    +0.000 C 
BRANCH  19  26
ATOM     21  C   UNL     1       9.415  12.001  20.288  0.00  0.00    +0.000 A 
ATOM     22  C   UNL     1       9.710  13.371  20.340  0.00  0.00    +0.000 A 
ATOM     23  C   UNL     1      10.064  14.065  19.181  0.00  0.00    +0.000 A 
ATOM     24  C   UNL     1      10.115  13.398  17.963  0.00  0.00    +0.000 A 
ATOM     25  C   UNL     1       9.799  12.039  17.896  0.00  0.00    +0.000 A 
ATOM     26  C   UNL     1       9.430  11.325  19.049  0.00  0.00    +0.000 A 
BRANCH  21  28
ATOM     27  C   UNL     1       8.270  11.907  22.375  0.00  0.00    +0.000 C 
ATOM     28  O   UNL     1       9.095  11.270  21.407  0.00  0.00    +0.000 OA
ENDBRANCH  21  28
ENDBRANCH  19  26
ENDBRANCH  17  20
ENDBRANCH  16  17
ENDBRANCH   1  16
TORSDOF 8
ENDMDL
MODEL 4
REMARK VINA RESULT:      -7.1      1.756      2.906
REMARK  Name = 
REMARK  9 active torsions:
REMARK  status: ('A' for Active; 'I' for Inactive)
REMARK    1  A    between atoms: C_1  and  O_2
REMARK    2  A    between atoms: O_2  and  C_3
REMARK    3  A    between atoms: C_8  and  C_9
REMARK    4  A    between atoms: C_10  and  C_11
REMARK    5  A    between atoms: C_11  and  O_13
REMARK    6  A    between atoms: O_13  and  C_14
REMARK    7  A    between atoms: C_14  and  C_15
REMARK    8  A    between atoms: N_17  and  C_18
REMARK    9  A    between atoms: C_18  and  C_19
REMARK                            x       y       z     vdW  Elec       q    Type
REMARK                         _______ _______ _______ _____ _____    ______ ____
ROOT
ATOM      1  C   UNL     1       0.939   3.978  20.155  0.00  0.00    +0.000 C 
ENDROOT
BRANCH   1   2
ATOM      2  C   UNL     1       1.660   3.120  19.113  0.00  0.00    +0.000 C 
ATOM      3  O   UNL     1       1.260   2.007  18.781  0.00  0.00    +0.000 OA
ATOM      4  N   UNL     1       2.771   3.723  18.561  0.00  0.00    +0.000 N 
ATOM      5  H   UNL     1       3.099   4.610  18.919  0.00  0.00    +0.000 HD
BRANCH   4   6
ATOM      6  C   UNL     1       3.498   3.127  17.473  0.00  0.00    +0.000 C 
BRANCH   6   7
ATOM      7  C   UNL     1       4.780   3.818  17.061  0.00  0.00    +0.000 A 
ATOM      8  C   UNL     1       5.084   4.153  15.719  0.00  0.00    +0.000 A 
ATOM      9  C   UNL     1       6.108   5.059  15.414  0.00  0.00    +0.000 A 
ATOM     10  C   UNL     1       6.771   5.641  16.469  0.00  0.00    +0.000 A 
ATOM     11  C   UNL     1       6.530   5.270  17.773  0.00  0.00    +0.000 A 
ATOM     12  C   UNL     1       5.577   4.332  18.099  0.00  0.00    +0.000 A 
ATOM     13  O   UNL     1       7.221   6.033  18.664  0.00  0.00    +0.000 OA
ATOM     14  C   UNL     1       7.612   7.105  17.786  0.00  0.00    +0.000 C 
ATOM     15  O   UNL     1       7.631   6.697  16.401  0.00  0.00    +0.000 OA
ENDBRANCH   6   7
ENDBRANCH   4   6
ENDBRANCH   1   2
BRANCH   1  16
ATOM     16  O   UNL     1       1.838   4.686  20.998  0.00  0.00    +0.000 OA
BRANCH  16  17
ATOM     17  C   UNL     1       2.199   5.901  20.512  0.00  0.00    +0.000 C 
ATOM     18  O   UNL     1       3.186   6.139  19.828  0.00  0.00    +0.000 OA
BRANCH  17  20
ATOM     19  C   UNL     1       1.439   8.205  20.802  0.00  0.00    +0.000 C 
ATOM     20  C   UNL     1       1.206   6.895  20.965  0.00  0.00    +0.000 C 
BRANCH  19  26
ATOM     21  C   UNL     1      -0.056  10.253  20.506  0.00  0.00    +0.000 A 
ATOM     22  C   UNL     1      -0.907  11.204  21.086  0.00  0.00    +0.000 A 
ATOM     23  C   UNL     1      -1.177  11.173  22.456  0.00  0.00    +0.000 A 
ATOM     24  C   UNL     1      -0.590  10.199  23.256  0.00  0.00    +0.000 A 
ATOM     25  C   UNL     1       0.280   9.263  22.691  0.00  0.00    +0.000 A 
ATOM     26  C   UNL     1       0.572   9.284  21.317  0.00  0.00    +0.000 A 
BRANCH  21  28
ATOM     27  C   UNL     1      -0.879  10.484  18.283  0.00  0.00    +0.000 C 
ATOM     28  O   UNL     1       0.212  10.223  19.158  0.00  0.00    +0.000 OA
ENDBRANCH  21  28
ENDBRANCH  19  26
ENDBRANCH  17  20
ENDBRANCH  16  17
ENDBRANCH   1  16
TORSDOF 8
ENDMDL
MODEL 5
REMARK VINA RESULT:      -7.1      4.446      6.678
REMARK  Name = 
REMARK  9 active torsions:
REMARK  status: ('A' for Active; 'I' for Inactive)
REMARK    1  A    between atoms: C_1  and  O_2
REMARK    2  A    between atoms: O_2  and  C_3
REMARK    3  A    between atoms: C_8  and  C_9
REMARK    4  A    between atoms: C_10  and  C_11
REMARK    5  A    between atoms: C_11  and  O_13
REMARK    6  A    between atoms: O_13  and  C_14
REMARK    7  A    between atoms: C_14  and  C_15
REMARK    8  A    between atoms: N_17  and  C_18
REMARK    9  A    between atoms: C_18  and  C_19
REMARK                            x       y       z     vdW  Elec       q    Type
REMARK                         _______ _______ _______ _____ _____    ______ ____
ROOT
ATOM      1  C   UNL     1       6.997   6.344  16.864  0.00  0.00    +0.000 C 
ENDROOT
BRANCH   1   2
ATOM      2  C   UNL     1       7.715   7.072  18.002  0.00  0.00    +0.000 C 
ATOM      3  O   UNL     1       8.082   6.500  19.026  0.00  0.00    +0.000 OA
ATOM      4  N   UNL     1       7.941   8.410  17.758  0.00  0.00    +0.000 N 
ATOM      5  H   UNL     1       7.558   8.849  16.931  0.00  0.00    +0.000 HD
BRANCH   4   6
ATOM      6  C   UNL     1       8.718   9.225  18.652  0.00  0.00    +0.000 C 
BRANCH   6   7
ATOM      7  C   UNL     1       9.060  10.618  18.168  0.00  0.00    +0.000 A 
ATOM      8  C   UNL     1       8.098  11.512  17.638  0.00  0.00    +0.000 A 
ATOM      9  C   UNL     1       8.379  12.878  17.500  0.00  0.00    +0.000 A 
ATOM     10  C   UNL     1       9.605  13.318  17.940  0.00  0.00    +0.000 A 
ATOM     11  C   UNL     1      10.571  12.446  18.391  0.00  0.00    +0.000 A 
ATOM     12  C   UNL     1      10.348  11.091  18.474  0.00  0.00    +0.000 A 
ATOM     13  O   UNL     1      11.670  13.093  18.866  0.00  0.00    +0.000 OA
ATOM     14  C   UNL     1      11.118  14.419  18.978  0.00  0.00    +0.000 C 
ATOM     15  O   UNL     1       9.988  14.616  18.102  0.00  0.00    +0.000 OA
ENDBRANCH   6   7
ENDBRANCH   4   6
ENDBRANCH   1   2
BRANCH   1  16
ATOM     16  O   UNL     1       7.079   4.930  16.978  0.00  0.00    +0.000 OA
BRANCH  16  17
ATOM     17  C   UNL     1       6.042   4.275  16.398  0.00  0.00    +0.000 C 
ATOM     18  O   UNL     1       6.083   3.643  15.350  0.00  0.00    +0.000 OA
BRANCH  17  20
ATOM     19  C   UNL     1       4.671   3.737  18.348  0.00  0.00    +0.000 C 
ATOM     20  C   UNL     1       4.843   4.469  17.238  0.00  0.00    +0.000 C 
BRANCH  19  26
ATOM     21  C   UNL     1       2.843   4.951  19.652  0.00  0.00    +0.000 A 
ATOM     22  C   UNL     1       1.664   4.875  20.407  0.00  0.00    +0.000 A 
ATOM     23  C   UNL     1       1.070   3.640  20.674  0.00  0.00    +0.000 A 
ATOM     24  C   UNL     1       1.656   2.472  20.198  0.00  0.00    +0.000 A 
ATOM     25  C   UNL     1       2.844   2.535  19.466  0.00  0.00    +0.000 A 
ATOM     26  C   UNL     1       3.463   3.768  19.196  0.00  0.00    +0.000 A 
BRANCH  21  28
ATOM     27  C   UNL     1       2.614   7.147  18.760  0.00  0.00    +0.000 C 
ATOM     28  O   UNL     1       3.444   6.145  19.336  0.00  0.00    +0.000 OA
ENDBRANCH  21  28
ENDBRANCH  19  26
ENDBRANCH  17  20
ENDBRANCH  16  17
ENDBRANCH   1  16
TORSDOF 8
ENDMDL
MODEL 6
REMARK VINA RESULT:      -7.1      4.696      7.179
REMARK  Name = 
REMARK  9 active torsions:
REMARK  status: ('A' for Active; 'I' for Inactive)
REMARK    1  A    between atoms: C_1  and  O_2
REMARK    2  A    between atoms: O_2  and  C_3
REMARK    3  A    between atoms: C_8  and  C_9
REMARK    4  A    between atoms: C_10  and  C_11
REMARK    5  A    between atoms: C_11  and  O_13
REMARK    6  A    between atoms: O_13  and  C_14
REMARK    7  A    between atoms: C_14  and  C_15
REMARK    8  A    between atoms: N_17  and  C_18
REMARK    9  A    between atoms: C_18  and  C_19
REMARK                            x       y       z     vdW  Elec       q    Type
REMARK                         _______ _______ _______ _____ _____    ______ ____
ROOT
ATOM      1  C   UNL     1       7.225   7.260  16.955  0.00  0.00    +0.000 C 
ENDROOT
BRANCH   1   2
ATOM      2  C   UNL     1       8.006   7.646  18.212  0.00  0.00    +0.000 C 
ATOM      3  O   UNL     1       8.304   6.831  19.082  0.00  0.00    +0.000 OA
ATOM      4  N   UNL     1       8.369   8.975  18.261  0.00  0.00    +0.000 N 
ATOM      5  H   UNL     1       8.038   9.620  17.556  0.00  0.00    +0.000 HD
BRANCH   4   6
ATOM      6  C   UNL     1       9.220   9.494  19.299  0.00  0.00    +0.000 C 
BRANCH   6   7
ATOM      7  C   UNL     1       9.654  10.936  19.155  0.00  0.00    +0.000 A 
ATOM      8  C   UNL     1      10.004  11.754  20.256  0.00  0.00    +0.000 A 
ATOM      9  C   UNL     1      10.696  12.959  20.072  0.00  0.00    +0.000 A 
ATOM     10  C   UNL     1      11.057  13.289  18.786  0.00  0.00    +0.000 A 
ATOM     11  C   UNL     1      10.659  12.536  17.704  0.00  0.00    +0.000 A 
ATOM     12  C   UNL     1       9.922  11.384  17.849  0.00  0.00    +0.000 A 
ATOM     13  O   UNL     1      11.201  12.982  16.538  0.00  0.00    +0.000 OA
ATOM     14  C   UNL     1      12.224  13.840  17.079  0.00  0.00    +0.000 C 
ATOM     15  O   UNL     1      11.912  14.284  18.417  0.00  0.00    +0.000 OA
ENDBRANCH   6   7
ENDBRANCH   4   6
ENDBRANCH   1   2
BRANCH   1  16
ATOM     16  O   UNL     1       6.939   5.869  16.892  0.00  0.00    +0.000 OA
BRANCH  16  17
ATOM     17  C   UNL     1       6.151   5.522  15.843  0.00  0.00    +0.000 C 
ATOM     18  O   UNL     1       6.462   5.572  14.660  0.00  0.00    +0.000 OA
BRANCH  17  20
ATOM     19  C   UNL     1       4.738   4.634  17.628  0.00  0.00    +0.000 C 
ATOM     20  C   UNL     1       4.842   5.088  16.371  0.00  0.00    +0.000 C 
BRANCH  19  26
ATOM     21  C   UNL     1       2.684   4.755  19.138  0.00  0.00    +0.000 A 
ATOM     22  C   UNL     1       1.504   4.154  19.599  0.00  0.00    +0.000 A 
ATOM     23  C   UNL     1       1.111   2.903  19.121  0.00  0.00    +0.000 A 
ATOM     24  C   UNL     1       1.899   2.238  18.188  0.00  0.00    +0.000 A 
ATOM     25  C   UNL     1       3.090   2.816  17.742  0.00  0.00    +0.000 A 
ATOM     26  C   UNL     1       3.508   4.070  18.219  0.00  0.00    +0.000 A 
BRANCH  21  28
ATOM     27  C   UNL     1       2.468   7.118  18.936  0.00  0.00    +0.000 C 
ATOM     28  O   UNL     1       3.092   5.999  19.553  0.00  0.00    +0.000 OA
ENDBRANCH  21  28
ENDBRANCH  19  26
ENDBRANCH  17  20
ENDBRANCH  16  17
ENDBRANCH   1  16
TORSDOF 8
ENDMDL
MODEL 7
REMARK VINA RESULT:      -7.1      3.957      7.464
REMARK  Name = 
REMARK  9 active torsions:
REMARK  status: ('A' for Active; 'I' for Inactive)
REMARK    1  A    between atoms: C_1  and  O_2
REMARK    2  A    between atoms: O_2  and  C_3
REMARK    3  A    between atoms: C_8  and  C_9
REMARK    4  A    between atoms: C_10  and  C_11
REMARK    5  A    between atoms: C_11  and  O_13
REMARK    6  A    between atoms: O_13  and  C_14
REMARK    7  A    between atoms: C_14  and  C_15
REMARK    8  A    between atoms: N_17  and  C_18
REMARK    9  A    between atoms: C_18  and  C_19
REMARK                            x       y       z     vdW  Elec       q    Type
REMARK                         _______ _______ _______ _____ _____    ______ ____
ROOT
ATOM      1  C   UNL     1       8.023   5.706  18.544  0.00  0.00    +0.000 C 
ENDROOT
BRANCH   1   2
ATOM      2  C   UNL     1       7.066   5.091  17.521  0.00  0.00    +0.000 C 
ATOM      3  O   UNL     1       7.457   4.413  16.574  0.00  0.00    +0.000 OA
ATOM      4  N   UNL     1       5.735   5.341  17.777  0.00  0.00    +0.000 N 
ATOM      5  H   UNL     1       5.469   5.964  18.528  0.00  0.00    +0.000 HD
BRANCH   4   6
ATOM      6  C   UNL     1       4.685   4.736  17.002  0.00  0.00    +0.000 C 
BRANCH   6   7
ATOM      7  C   UNL     1       3.476   4.250  17.771  0.00  0.00    +0.000 A 
ATOM      8  C   UNL     1       2.681   3.154  17.356  0.00  0.00    +0.000 A 
ATOM      9  C   UNL     1       1.781   2.539  18.235  0.00  0.00    +0.000 A 
ATOM     10  C   UNL     1       1.734   3.013  19.525  0.00  0.00    +0.000 A 
ATOM     11  C   UNL     1       2.450   4.122  19.918  0.00  0.00    +0.000 A 
ATOM     12  C   UNL     1       3.291   4.788  19.057  0.00  0.00    +0.000 A 
ATOM     13  O   UNL     1       2.336   4.364  21.252  0.00  0.00    +0.000 OA
ATOM     14  C   UNL     1       1.778   3.102  21.663  0.00  0.00    +0.000 C 
ATOM     15  O   UNL     1       1.103   2.425  20.581  0.00  0.00    +0.000 OA
ENDBRANCH   6   7
ENDBRANCH   4   6
ENDBRANCH   1   2
BRANCH   1  16
ATOM     16  O   UNL     1       7.679   7.042  18.883  0.00  0.00    +0.000 OA
BRANCH  16  17
ATOM     17  C   UNL     1       7.820   7.918  17.855  0.00  0.00    +0.000 C 
ATOM     18  O   UNL     1       7.224   7.877  16.786  0.00  0.00    +0.000 OA
BRANCH  17  20
ATOM     19  C   UNL     1       8.466  10.190  18.481  0.00  0.00    +0.000 C 
ATOM     20  C   UNL     1       8.831   8.923  18.237  0.00  0.00    +0.000 C 
BRANCH  19  26
ATOM     21  C   UNL     1       9.277  12.596  18.223  0.00  0.00    +0.000 A 
ATOM     22  C   UNL     1      10.189  13.595  18.593  0.00  0.00    +0.000 A 
ATOM     23  C   UNL     1      11.196  13.328  19.523  0.00  0.00    +0.000 A 
ATOM     24  C   UNL     1      11.305  12.059  20.081  0.00  0.00    +0.000 A 
ATOM     25  C   UNL     1      10.417  11.050  19.700  0.00  0.00    +0.000 A 
ATOM     26  C   UNL     1       9.404  11.297  18.759  0.00  0.00    +0.000 A 
BRANCH  21  28
ATOM     27  C   UNL     1       7.329  13.853  17.676  0.00  0.00    +0.000 C 
ATOM     28  O   UNL     1       8.250  12.822  17.339  0.00  0.00    +0.000 OA
ENDBRANCH  21  28
ENDBRANCH  19  26
ENDBRANCH  17  20
ENDBRANCH  16  17
ENDBRANCH   1  16
TORSDOF 8
ENDMDL
MODEL 8
REMARK VINA RESULT:      -7.0      0.911      1.004
REMARK  Name = 
REMARK  9 active torsions:
REMARK  status: ('A' for Active; 'I' for Inactive)
REMARK    1  A    between atoms: C_1  and  O_2
REMARK    2  A    between atoms: O_2  and  C_3
REMARK    3  A    between atoms: C_8  and  C_9
REMARK    4  A    between atoms: C_10  and  C_11
REMARK    5  A    between atoms: C_11  and  O_13
REMARK    6  A    between atoms: O_13  and  C_14
REMARK    7  A    between atoms: C_14  and  C_15
REMARK    8  A    between atoms: N_17  and  C_18
REMARK    9  A    between atoms: C_18  and  C_19
REMARK                            x       y       z     vdW  Elec       q    Type
REMARK                         _______ _______ _______ _____ _____    ______ ____
ROOT
ATOM      1  C   UNL     1       1.390   2.896  19.044  0.00  0.00    +0.000 C 
ENDROOT
BRANCH   1   2
ATOM      2  C   UNL     1       2.415   2.609  17.945  0.00  0.00    +0.000 C 
ATOM      3  O   UNL     1       2.105   2.113  16.864  0.00  0.00    +0.000 OA
ATOM      4  N   UNL     1       3.702   2.985  18.266  0.00  0.00    +0.000 N 
ATOM      5  H   UNL     1       3.918   3.323  19.195  0.00  0.00    +0.000 HD
BRANCH   4   6
ATOM      6  C   UNL     1       4.775   2.916  17.311  0.00  0.00    +0.000 C 
BRANCH   6   7
ATOM      7  C   UNL     1       5.420   4.229  16.927  0.00  0.00    +0.000 A 
ATOM      8  C   UNL     1       4.725   5.269  16.263  0.00  0.00    +0.000 A 
ATOM      9  C   UNL     1       5.246   6.568  16.209  0.00  0.00    +0.000 A 
ATOM     10  C   UNL     1       6.434   6.799  16.862  0.00  0.00    +0.000 A 
ATOM     11  C   UNL     1       7.151   5.780  17.448  0.00  0.00    +0.000 A 
ATOM     12  C   UNL     1       6.696   4.482  17.459  0.00  0.00    +0.000 A 
ATOM     13  O   UNL     1       8.244   6.237  18.120  0.00  0.00    +0.000 OA
ATOM     14  C   UNL     1       7.908   7.637  18.169  0.00  0.00    +0.000 C 
ATOM     15  O   UNL     1       6.993   8.016  17.118  0.00  0.00    +0.000 OA
ENDBRANCH   6   7
ENDBRANCH   4   6
ENDBRANCH   1   2
BRANCH   1  16
ATOM     16  O   UNL     1       1.884   2.603  20.344  0.00  0.00    +0.000 OA
BRANCH  16  17
ATOM     17  C   UNL     1       1.920   3.681  21.169  0.00  0.00    +0.000 C 
ATOM     18  O   UNL     1       2.209   3.669  22.359  0.00  0.00    +0.000 OA
BRANCH  17  20
ATOM     19  C   UNL     1       2.355   5.929  20.316  0.00  0.00    +0.000 C 
ATOM     20  C   UNL     1       1.531   4.874  20.390  0.00  0.00    +0.000 C 
BRANCH  19  26
ATOM     21  C   UNL     1       1.402   8.297  20.318  0.00  0.00    +0.000 A 
ATOM     22  C   UNL     1       1.177   9.495  19.625  0.00  0.00    +0.000 A 
ATOM     23  C   UNL     1       1.604   9.640  18.303  0.00  0.00    +0.000 A 
ATOM     24  C   UNL     1       2.247   8.587  17.663  0.00  0.00    +0.000 A 
ATOM     25  C   UNL     1       2.452   7.381  18.337  0.00  0.00    +0.000 A 
ATOM     26  C   UNL     1       2.021   7.211  19.664  0.00  0.00    +0.000 A 
BRANCH  21  28
ATOM     27  C   UNL     1      -0.022   8.945  22.115  0.00  0.00    +0.000 C 
ATOM     28  O   UNL     1       1.031   8.120  21.630  0.00  0.00    +0.000 OA
ENDBRANCH  21  28
ENDBRANCH  19  26
ENDBRANCH  17  20
ENDBRANCH  16  17
ENDBRANCH   1  16
TORSDOF 8
ENDMDL
MODEL 9
REMARK VINA RESULT:      -7.0      1.836      6.151
REMARK  Name = 
REMARK  9 active torsions:
REMARK  status: ('A' for Active; 'I' for Inactive)
REMARK    1  A    between atoms: C_1  and  O_2
REMARK    2  A    between atoms: O_2  and  C_3
REMARK    3  A    between atoms: C_8  and  C_9
REMARK    4  A    between atoms: C_10  and  C_11
REMARK    5  A    between atoms: C_11  and  O_13
REMARK    6  A    between atoms: O_13  and  C_14
REMARK    7  A    between atoms: C_14  and  C_15
REMARK    8  A    between atoms: N_17  and  C_18
REMARK    9  A    between atoms: C_18  and  C_19
REMARK                            x       y       z     vdW  Elec       q    Type
REMARK                         _______ _______ _______ _____ _____    ______ ____
ROOT
ATOM      1  C   UNL     1       1.634   2.202  20.106  0.00  0.00    +0.000 C 
ENDROOT
BRANCH   1   2
ATOM      2  C   UNL     1       1.853   3.381  21.056  0.00  0.00    +0.000 C 
ATOM      3  O   UNL     1       2.232   3.235  22.215  0.00  0.00    +0.000 OA
ATOM      4  N   UNL     1       1.620   4.614  20.484  0.00  0.00    +0.000 N 
ATOM      5  H   UNL     1       1.241   4.677  19.548  0.00  0.00    +0.000 HD
BRANCH   4   6
ATOM      6  C   UNL     1       1.900   5.841  21.179  0.00  0.00    +0.000 C 
BRANCH   6   7
ATOM      7  C   UNL     1       1.972   7.093  20.333  0.00  0.00    +0.000 A 
ATOM      8  C   UNL     1       2.484   7.109  19.013  0.00  0.00    +0.000 A 
ATOM      9  C   UNL     1       2.246   8.192  18.157  0.00  0.00    +0.000 A 
ATOM     10  C   UNL     1       1.461   9.214  18.637  0.00  0.00    +0.000 A 
ATOM     11  C   UNL     1       1.018   9.240  19.940  0.00  0.00    +0.000 A 
ATOM     12  C   UNL     1       1.293   8.222  20.823  0.00  0.00    +0.000 A 
ATOM     13  O   UNL     1       0.180  10.286  20.181  0.00  0.00    +0.000 OA
ATOM     14  C   UNL     1      -0.104  10.663  18.820  0.00  0.00    +0.000 C 
ATOM     15  O   UNL     1       0.931  10.237  17.908  0.00  0.00    +0.000 OA
ENDBRANCH   6   7
ENDBRANCH   4   6
ENDBRANCH   1   2
BRANCH   1  16
ATOM     16  O   UNL     1       2.407   2.305  18.918  0.00  0.00    +0.000 OA
BRANCH  16  17
ATOM     17  C   UNL     1       1.919   3.205  18.026  0.00  0.00    +0.000 C 
ATOM     18  O   UNL     1       0.749   3.318  17.682  0.00  0.00    +0.000 OA
BRANCH  17  20
ATOM     19  C   UNL     1       4.287   3.805  17.983  0.00  0.00    +0.000 C 
ATOM     20  C   UNL     1       3.045   4.017  17.525  0.00  0.00    +0.000 C 
BRANCH  19  26
ATOM     21  C   UNL     1       6.103   4.611  16.381  0.00  0.00    +0.000 A 
ATOM     22  C   UNL     1       7.180   5.474  16.133  0.00  0.00    +0.000 A 
ATOM     23  C   UNL     1       7.596   6.387  17.104  0.00  0.00    +0.000 A 
ATOM     24  C   UNL     1       6.947   6.435  18.333  0.00  0.00    +0.000 A 
ATOM     25  C   UNL     1       5.889   5.561  18.599  0.00  0.00    +0.000 A 
ATOM     26  C   UNL     1       5.463   4.629  17.638  0.00  0.00    +0.000 A 
BRANCH  21  28
ATOM     27  C   UNL     1       6.112   3.884  14.112  0.00  0.00    +0.000 C 
ATOM     28  O   UNL     1       5.637   3.721  15.443  0.00  0.00    +0.000 OA
ENDBRANCH  21  28
ENDBRANCH  19  26
ENDBRANCH  17  20
ENDBRANCH  16  17
ENDBRANCH   1  16
TORSDOF 8
ENDMDL
