MODEL 1
REMARK VINA RESULT:      -8.4      0.000      0.000
REMARK  Name = 
REMARK  10 active torsions:
REMARK  status: ('A' for Active; 'I' for Inactive)
REMARK    1  A    between atoms: C_1  and  O_2
REMARK    2  A    between atoms: O_2  and  C_3
REMARK    3  A    between atoms: C_5  and  C_6
REMARK    4  A    between atoms: N_7  and  N_8
REMARK    5  A    between atoms: N_8  and  C_9
REMARK    6  A    between atoms: C_14  and  C_15
REMARK    7  A    between atoms: C_15  and  O_17
REMARK    8  A    between atoms: C_21  and  O_22
REMARK    9  A    between atoms: O_22  and  C_23
REMARK   10  A    between atoms: C_23  and  C_25
REMARK                            x       y       z     vdW  Elec       q    Type
REMARK                         _______ _______ _______ _____ _____    ______ ____
ROOT
ATOM      1  C   UNL     1       5.760   4.780  18.653  0.00  0.00    +0.000 A 
ATOM      2  C   UNL     1       4.782   5.239  19.542  0.00  0.00    +0.000 A 
ATOM      3  C   UNL     1       3.460   5.417  19.116  0.00  0.00    +0.000 A 
ATOM      4  C   UNL     1       3.096   5.146  17.800  0.00  0.00    +0.000 A 
ATOM      5  C   UNL     1       4.055   4.668  16.912  0.00  0.00    +0.000 A 
ATOM      6  C   UNL     1       5.373   4.451  17.344  0.00  0.00    +0.000 A 
ENDROOT
BRANCH   1   8
ATOM      7  C   UNL     1       7.763   5.825  19.378  0.00  0.00    +0.000 C 
ATOM      8  O   UNL     1       7.080   4.626  18.996  0.00  0.00    +0.000 OA
ENDBRANCH   1   8
BRANCH   3   9
ATOM      9  C   UNL     1       2.434   5.888  20.068  0.00  0.00    +0.000 C 
ATOM     10  N   UNL     1       2.218   7.150  20.255  0.00  0.00    +0.000 NA
BRANCH  10  11
ATOM     11  N   UNL     1       1.279   7.441  21.185  0.00  0.00    +0.000 N 
ATOM     12  H   UNL     1       0.742   6.702  21.634  0.00  0.00    +0.000 HD
BRANCH  11  13
ATOM     13  C   UNL     1       0.683   8.713  21.177  0.00  0.00    +0.000 A 
ATOM     14  C   UNL     1       0.186   9.235  22.377  0.00  0.00    +0.000 A 
ATOM     15  C   UNL     1      -0.341  10.527  22.436  0.00  0.00    +0.000 A 
ATOM     16  C   UNL     1      -0.369  11.332  21.293  0.00  0.00    +0.000 A 
ATOM     17 CL   UNL     1      -1.060  12.905  21.472  0.00  0.00    +0.000 Cl
ATOM     18  C   UNL     1       0.142  10.845  20.082  0.00  0.00    +0.000 A 
ATOM     19  C   UNL     1       0.665   9.540  20.043  0.00  0.00    +0.000 A 
BRANCH  18  20
ATOM     20  C   UNL     1       0.154  11.597  18.802  0.00  0.00    +0.000 C 
ATOM     21  O   UNL     1      -0.870  11.878  18.200  0.00  0.00    +0.000 OA
BRANCH  20  22
ATOM     22  O   UNL     1       1.375  11.869  18.292  0.00  0.00    +0.000 OA
ATOM     23  H   UNL     1       1.406  12.616  17.664  0.00  0.00    +0.000 HD
ENDBRANCH  20  22
ENDBRANCH  18  20
ENDBRANCH  11  13
ENDBRANCH  10  11
ENDBRANCH   3   9
BRANCH   6  24
ATOM     24  O   UNL     1       6.345   4.030  16.409  0.00  0.00    +0.000 OA
BRANCH  24  25
ATOM     25  C   UNL     1       6.825   4.992  15.534  0.00  0.00    +0.000 C 
ATOM     26  O   UNL     1       7.276   6.091  15.826  0.00  0.00    +0.000 OA
BRANCH  25  27
ATOM     27  C   UNL     1       6.761   4.528  14.128  0.00  0.00    +0.000 A 
ATOM     28  C   UNL     1       5.709   3.679  13.749  0.00  0.00    +0.000 A 
ATOM     29  C   UNL     1       5.571   3.272  12.417  0.00  0.00    +0.000 A 
ATOM     30  C   UNL     1       6.476   3.719  11.455  0.00  0.00    +0.000 A 
ATOM     31  C   UNL     1       7.509   4.580  11.821  0.00  0.00    +0.000 A 
ATOM     32  C   UNL     1       7.645   4.985  13.149  0.00  0.00    +0.000 A 
ATOM     33  F   UNL     1       8.614   5.863  13.439  0.00  0.00    +0.000 F 
ENDBRANCH  25  27
ENDBRANCH  24  25
ENDBRANCH   6  24
TORSDOF 9
ENDMDL
MODEL 2
REMARK VINA RESULT:      -8.1      3.137      4.418
REMARK  Name = 
REMARK  10 active torsions:
REMARK  status: ('A' for Active; 'I' for Inactive)
REMARK    1  A    between atoms: C_1  and  O_2
REMARK    2  A    between atoms: O_2  and  C_3
REMARK    3  A    between atoms: C_5  and  C_6
REMARK    4  A    between atoms: N_7  and  N_8
REMARK    5  A    between atoms: N_8  and  C_9
REMARK    6  A    between atoms: C_14  and  C_15
REMARK    7  A    between atoms: C_15  and  O_17
REMARK    8  A    between atoms: C_21  and  O_22
REMARK    9  A    between atoms: O_22  and  C_23
REMARK   10  A    between atoms: C_23  and  C_25
REMARK                            x       y       z     vdW  Elec       q    Type
REMARK                         _______ _______ _______ _____ _____    ______ ____
ROOT
ATOM      1  C   UNL     1       1.796   4.640  19.802  0.00  0.00    +0.000 A 
ATOM      2  C   UNL     1       1.474   5.685  20.676  0.00  0.00    +0.000 A 
ATOM      3  C   UNL     1       1.744   7.014  20.327  0.00  0.00    +0.000 A 
ATOM      4  C   UNL     1       2.344   7.320  19.109  0.00  0.00    +0.000 A 
ATOM      5  C   UNL     1       2.648   6.292  18.221  0.00  0.00    +0.000 A 
ATOM      6  C   UNL     1       2.344   4.962  18.550  0.00  0.00    +0.000 A 
ENDROOT
BRANCH   1   8
ATOM      7  C   UNL     1       1.645   2.983  21.493  0.00  0.00    +0.000 C 
ATOM      8  O   UNL     1       1.597   3.316  20.101  0.00  0.00    +0.000 OA
ENDBRANCH   1   8
BRANCH   3   9
ATOM      9  C   UNL     1       1.386   8.107  21.252  0.00  0.00    +0.000 C 
ATOM     10  N   UNL     1       0.848   9.203  20.823  0.00  0.00    +0.000 NA
BRANCH  10  11
ATOM     11  N   UNL     1       0.609  10.137  21.772  0.00  0.00    +0.000 N 
ATOM     12  H   UNL     1       0.911   9.994  22.734  0.00  0.00    +0.000 HD
BRANCH  11  13
ATOM     13  C   UNL     1      -0.456  11.035  21.594  0.00  0.00    +0.000 A 
ATOM     14  C   UNL     1      -0.822  11.403  20.294  0.00  0.00    +0.000 A 
ATOM     15  C   UNL     1      -1.925  12.228  20.063  0.00  0.00    +0.000 A 
ATOM     16  C   UNL     1      -2.697  12.692  21.133  0.00  0.00    +0.000 A 
ATOM     17 CL   UNL     1      -4.026  13.722  20.738  0.00  0.00    +0.000 Cl
ATOM     18  C   UNL     1      -2.368  12.323  22.444  0.00  0.00    +0.000 A 
ATOM     19  C   UNL     1      -1.251  11.495  22.656  0.00  0.00    +0.000 A 
BRANCH  18  20
ATOM     20  C   UNL     1      -3.099  12.763  23.659  0.00  0.00    +0.000 C 
ATOM     21  O   UNL     1      -2.884  13.838  24.198  0.00  0.00    +0.000 OA
BRANCH  20  22
ATOM     22  O   UNL     1      -3.953  11.861  24.190  0.00  0.00    +0.000 OA
ATOM     23  H   UNL     1      -3.557  10.996  24.412  0.00  0.00    +0.000 HD
ENDBRANCH  20  22
ENDBRANCH  18  20
ENDBRANCH  11  13
ENDBRANCH  10  11
ENDBRANCH   3   9
BRANCH   6  24
ATOM     24  O   UNL     1       2.724   3.929  17.663  0.00  0.00    +0.000 OA
BRANCH  24  25
ATOM     25  C   UNL     1       3.927   3.293  17.927  0.00  0.00    +0.000 C 
ATOM     26  O   UNL     1       4.086   2.254  18.554  0.00  0.00    +0.000 OA
BRANCH  25  27
ATOM     27  C   UNL     1       5.069   4.018  17.322  0.00  0.00    +0.000 A 
ATOM     28  C   UNL     1       5.152   4.091  15.923  0.00  0.00    +0.000 A 
ATOM     29  C   UNL     1       6.176   4.823  15.311  0.00  0.00    +0.000 A 
ATOM     30  C   UNL     1       7.114   5.496  16.092  0.00  0.00    +0.000 A 
ATOM     31  C   UNL     1       7.023   5.446  17.483  0.00  0.00    +0.000 A 
ATOM     32  C   UNL     1       6.003   4.715  18.091  0.00  0.00    +0.000 A 
ATOM     33  F   UNL     1       5.920   4.751  19.428  0.00  0.00    +0.000 F 
ENDBRANCH  25  27
ENDBRANCH  24  25
ENDBRANCH   6  24
TORSDOF 9
ENDMDL
MODEL 3
REMARK VINA RESULT:      -8.0      5.222      7.614
REMARK  Name = 
REMARK  10 active torsions:
REMARK  status: ('A' for Active; 'I' for Inactive)
REMARK    1  A    between atoms: C_1  and  O_2
REMARK    2  A    between atoms: O_2  and  C_3
REMARK    3  A    between atoms: C_5  and  C_6
REMARK    4  A    between atoms: N_7  and  N_8
REMARK    5  A    between atoms: N_8  and  C_9
REMARK    6  A    between atoms: C_14  and  C_15
REMARK    7  A    between atoms: C_15  and  O_17
REMARK    8  A    between atoms: C_21  and  O_22
REMARK    9  A    between atoms: O_22  and  C_23
REMARK   10  A    between atoms: C_23  and  C_25
REMARK                            x       y       z     vdW  Elec       q    Type
REMARK                         _______ _______ _______ _____ _____    ______ ____
ROOT
ATOM      1  C   UNL     1       5.699   5.396  16.473  0.00  0.00    +0.000 A 
ATOM      2  C   UNL     1       6.770   6.212  16.855  0.00  0.00    +0.000 A 
ATOM      3  C   UNL     1       7.138   6.319  18.201  0.00  0.00    +0.000 A 
ATOM      4  C   UNL     1       6.443   5.621  19.185  0.00  0.00    +0.000 A 
ATOM      5  C   UNL     1       5.391   4.789  18.815  0.00  0.00    +0.000 A 
ATOM      6  C   UNL     1       5.042   4.648  17.463  0.00  0.00    +0.000 A 
ENDROOT
BRANCH   1   8
ATOM      7  C   UNL     1       5.982   4.351  14.362  0.00  0.00    +0.000 C 
ATOM      8  O   UNL     1       5.261   5.281  15.177  0.00  0.00    +0.000 OA
ENDBRANCH   1   8
BRANCH   3   9
ATOM      9  C   UNL     1       8.279   7.173  18.589  0.00  0.00    +0.000 C 
ATOM     10  N   UNL     1       8.215   8.462  18.504  0.00  0.00    +0.000 NA
BRANCH  10  11
ATOM     11  N   UNL     1       9.345   9.119  18.852  0.00  0.00    +0.000 N 
ATOM     12  H   UNL     1      10.173   8.609  19.155  0.00  0.00    +0.000 HD
BRANCH  11  13
ATOM     13  C   UNL     1       9.254  10.452  19.287  0.00  0.00    +0.000 A 
ATOM     14  C   UNL     1       9.204  10.713  20.661  0.00  0.00    +0.000 A 
ATOM     15  C   UNL     1       9.196  12.024  21.144  0.00  0.00    +0.000 A 
ATOM     16  C   UNL     1       9.252  13.104  20.258  0.00  0.00    +0.000 A 
ATOM     17 CL   UNL     1       9.216  14.682  20.959  0.00  0.00    +0.000 Cl
ATOM     18  C   UNL     1       9.325  12.873  18.878  0.00  0.00    +0.000 A 
ATOM     19  C   UNL     1       9.327  11.546  18.411  0.00  0.00    +0.000 A 
BRANCH  18  20
ATOM     20  C   UNL     1       9.372  13.934  17.840  0.00  0.00    +0.000 C 
ATOM     21  O   UNL     1      10.424  14.355  17.384  0.00  0.00    +0.000 OA
BRANCH  20  22
ATOM     22  O   UNL     1       8.182  14.475  17.499  0.00  0.00    +0.000 OA
ATOM     23  H   UNL     1       7.538  13.850  17.112  0.00  0.00    +0.000 HD
ENDBRANCH  20  22
ENDBRANCH  18  20
ENDBRANCH  11  13
ENDBRANCH  10  11
ENDBRANCH   3   9
BRANCH   6  24
ATOM     24  O   UNL     1       3.928   3.851  17.118  0.00  0.00    +0.000 OA
BRANCH  24  25
ATOM     25  C   UNL     1       3.750   2.682  17.841  0.00  0.00    +0.000 C 
ATOM     26  O   UNL     1       4.204   1.578  17.575  0.00  0.00    +0.000 OA
BRANCH  25  27
ATOM     27  C   UNL     1       2.930   2.913  19.054  0.00  0.00    +0.000 A 
ATOM     28  C   UNL     1       1.626   3.408  18.898  0.00  0.00    +0.000 A 
ATOM     29  C   UNL     1       0.794   3.577  20.010  0.00  0.00    +0.000 A 
ATOM     30  C   UNL     1       1.254   3.240  21.283  0.00  0.00    +0.000 A 
ATOM     31  C   UNL     1       2.541   2.726  21.441  0.00  0.00    +0.000 A 
ATOM     32  C   UNL     1       3.369   2.559  20.331  0.00  0.00    +0.000 A 
ATOM     33  F   UNL     1       4.571   2.002  20.527  0.00  0.00    +0.000 F 
ENDBRANCH  25  27
ENDBRANCH  24  25
ENDBRANCH   6  24
TORSDOF 9
ENDMDL
MODEL 4
REMARK VINA RESULT:      -8.0      2.642      3.793
REMARK  Name = 
REMARK  10 active torsions:
REMARK  status: ('A' for Active; 'I' for Inactive)
REMARK    1  A    between atoms: C_1  and  O_2
REMARK    2  A    between atoms: O_2  and  C_3
REMARK    3  A    between atoms: C_5  and  C_6
REMARK    4  A    between atoms: N_7  and  N_8
REMARK    5  A    between atoms: N_8  and  C_9
REMARK    6  A    between atoms: C_14  and  C_15
REMARK    7  A    between atoms: C_15  and  O_17
REMARK    8  A    between atoms: C_21  and  O_22
REMARK    9  A    between atoms: O_22  and  C_23
REMARK   10  A    between atoms: C_23  and  C_25
REMARK                            x       y       z     vdW  Elec       q    Type
REMARK                         _______ _______ _______ _____ _____    ______ ____
ROOT
ATOM      1  C   UNL     1       1.869   4.602  19.636  0.00  0.00    +0.000 A 
ATOM      2  C   UNL     1       1.650   5.668  20.517  0.00  0.00    +0.000 A 
ATOM      3  C   UNL     1       1.892   6.986  20.113  0.00  0.00    +0.000 A 
ATOM      4  C   UNL     1       2.361   7.261  18.831  0.00  0.00    +0.000 A 
ATOM      5  C   UNL     1       2.561   6.212  17.939  0.00  0.00    +0.000 A 
ATOM      6  C   UNL     1       2.283   4.892  18.326  0.00  0.00    +0.000 A 
ENDROOT
BRANCH   1   8
ATOM      7  C   UNL     1       1.426   3.044  21.369  0.00  0.00    +0.000 C 
ATOM      8  O   UNL     1       1.692   3.286  19.984  0.00  0.00    +0.000 OA
ENDBRANCH   1   8
BRANCH   3   9
ATOM      9  C   UNL     1       1.643   8.102  21.047  0.00  0.00    +0.000 C 
ATOM     10  N   UNL     1       0.442   8.420  21.412  0.00  0.00    +0.000 NA
BRANCH  10  11
ATOM     11  N   UNL     1       0.355   9.487  22.238  0.00  0.00    +0.000 N 
ATOM     12  H   UNL     1       0.485   9.383  23.242  0.00  0.00    +0.000 HD
BRANCH  11  13
ATOM     13  C   UNL     1      -0.391  10.606  21.832  0.00  0.00    +0.000 A 
ATOM     14  C   UNL     1      -1.199  11.258  22.770  0.00  0.00    +0.000 A 
ATOM     15  C   UNL     1      -1.895  12.422  22.435  0.00  0.00    +0.000 A 
ATOM     16  C   UNL     1      -1.785  12.967  21.152  0.00  0.00    +0.000 A 
ATOM     17 CL   UNL     1      -2.703  14.396  20.838  0.00  0.00    +0.000 Cl
ATOM     18  C   UNL     1      -0.966  12.349  20.198  0.00  0.00    +0.000 A 
ATOM     19  C   UNL     1      -0.277  11.175  20.553  0.00  0.00    +0.000 A 
BRANCH  18  20
ATOM     20  C   UNL     1      -0.781  12.822  18.802  0.00  0.00    +0.000 C 
ATOM     21  O   UNL     1      -0.331  13.927  18.541  0.00  0.00    +0.000 OA
BRANCH  20  22
ATOM     22  O   UNL     1      -1.230  11.991  17.837  0.00  0.00    +0.000 OA
ATOM     23  H   UNL     1      -1.323  11.056  18.104  0.00  0.00    +0.000 HD
ENDBRANCH  20  22
ENDBRANCH  18  20
ENDBRANCH  11  13
ENDBRANCH  10  11
ENDBRANCH   3   9
BRANCH   6  24
ATOM     24  O   UNL     1       2.559   3.837  17.427  0.00  0.00    +0.000 OA
BRANCH  24  25
ATOM     25  C   UNL     1       3.745   3.147  17.621  0.00  0.00    +0.000 C 
ATOM     26  O   UNL     1       3.869   2.003  18.036  0.00  0.00    +0.000 OA
BRANCH  25  27
ATOM     27  C   UNL     1       4.918   3.964  17.233  0.00  0.00    +0.000 A 
ATOM     28  C   UNL     1       5.103   4.271  15.876  0.00  0.00    +0.000 A 
ATOM     29  C   UNL     1       6.159   5.096  15.472  0.00  0.00    +0.000 A 
ATOM     30  C   UNL     1       7.029   5.629  16.423  0.00  0.00    +0.000 A 
ATOM     31  C   UNL     1       6.837   5.347  17.775  0.00  0.00    +0.000 A 
ATOM     32  C   UNL     1       5.784   4.524  18.175  0.00  0.00    +0.000 A 
ATOM     33  F   UNL     1       5.603   4.335  19.489  0.00  0.00    +0.000 F 
ENDBRANCH  25  27
ENDBRANCH  24  25
ENDBRANCH   6  24
TORSDOF 9
ENDMDL
MODEL 5
REMARK VINA RESULT:      -8.0      3.020      4.370
REMARK  Name = 
REMARK  10 active torsions:
REMARK  status: ('A' for Active; 'I' for Inactive)
REMARK    1  A    between atoms: C_1  and  O_2
REMARK    2  A    between atoms: O_2  and  C_3
REMARK    3  A    between atoms: C_5  and  C_6
REMARK    4  A    between atoms: N_7  and  N_8
REMARK    5  A    between atoms: N_8  and  C_9
REMARK    6  A    between atoms: C_14  and  C_15
REMARK    7  A    between atoms: C_15  and  O_17
REMARK    8  A    between atoms: C_21  and  O_22
REMARK    9  A    between atoms: O_22  and  C_23
REMARK   10  A    between atoms: C_23  and  C_25
REMARK                            x       y       z     vdW  Elec       q    Type
REMARK                         _______ _______ _______ _____ _____    ______ ____
ROOT
ATOM      1  C   UNL     1       2.279   5.263  20.390  0.00  0.00    +0.000 A 
ATOM      2  C   UNL     1       1.781   6.488  20.848  0.00  0.00    +0.000 A 
ATOM      3  C   UNL     1       1.838   7.627  20.037  0.00  0.00    +0.000 A 
ATOM      4  C   UNL     1       2.397   7.565  18.764  0.00  0.00    +0.000 A 
ATOM      5  C   UNL     1       2.876   6.348  18.288  0.00  0.00    +0.000 A 
ATOM      6  C   UNL     1       2.785   5.194  19.082  0.00  0.00    +0.000 A 
ENDROOT
BRANCH   1   8
ATOM      7  C   UNL     1       1.175   3.243  20.964  0.00  0.00    +0.000 C 
ATOM      8  O   UNL     1       2.291   4.120  21.150  0.00  0.00    +0.000 OA
ENDBRANCH   1   8
BRANCH   3   9
ATOM      9  C   UNL     1       1.296   8.911  20.527  0.00  0.00    +0.000 C 
ATOM     10  N   UNL     1       0.953   9.853  19.709  0.00  0.00    +0.000 NA
BRANCH  10  11
ATOM     11  N   UNL     1       0.511  10.990  20.294  0.00  0.00    +0.000 N 
ATOM     12  H   UNL     1       0.970  11.363  21.122  0.00  0.00    +0.000 HD
BRANCH  11  13
ATOM     13  C   UNL     1      -0.827  11.378  20.108  0.00  0.00    +0.000 A 
ATOM     14  C   UNL     1      -1.418  12.239  21.040  0.00  0.00    +0.000 A 
ATOM     15  C   UNL     1      -2.717  12.717  20.855  0.00  0.00    +0.000 A 
ATOM     16  C   UNL     1      -3.450  12.352  19.721  0.00  0.00    +0.000 A 
ATOM     17 CL   UNL     1      -5.052  12.983  19.601  0.00  0.00    +0.000 Cl
ATOM     18  C   UNL     1      -2.876  11.509  18.760  0.00  0.00    +0.000 A 
ATOM     19  C   UNL     1      -1.569  11.034  18.967  0.00  0.00    +0.000 A 
BRANCH  18  20
ATOM     20  C   UNL     1      -3.558  11.040  17.526  0.00  0.00    +0.000 C 
ATOM     21  O   UNL     1      -3.652   9.856  17.242  0.00  0.00    +0.000 OA
BRANCH  20  22
ATOM     22  O   UNL     1      -3.985  12.008  16.688  0.00  0.00    +0.000 OA
ATOM     23  H   UNL     1      -4.715  12.561  17.029  0.00  0.00    +0.000 HD
ENDBRANCH  20  22
ENDBRANCH  18  20
ENDBRANCH  11  13
ENDBRANCH  10  11
ENDBRANCH   3   9
BRANCH   6  24
ATOM     24  O   UNL     1       3.338   3.984  18.605  0.00  0.00    +0.000 OA
BRANCH  24  25
ATOM     25  C   UNL     1       4.650   3.715  18.964  0.00  0.00    +0.000 C 
ATOM     26  O   UNL     1       5.041   2.817  19.697  0.00  0.00    +0.000 OA
BRANCH  25  27
ATOM     27  C   UNL     1       5.594   4.658  18.320  0.00  0.00    +0.000 A 
ATOM     28  C   UNL     1       6.471   5.391  19.133  0.00  0.00    +0.000 A 
ATOM     29  C   UNL     1       7.425   6.241  18.563  0.00  0.00    +0.000 A 
ATOM     30  C   UNL     1       7.515   6.355  17.176  0.00  0.00    +0.000 A 
ATOM     31  C   UNL     1       6.661   5.613  16.362  0.00  0.00    +0.000 A 
ATOM     32  C   UNL     1       5.711   4.766  16.933  0.00  0.00    +0.000 A 
ATOM     33  F   UNL     1       4.958   4.026  16.108  0.00  0.00    +0.000 F 
ENDBRANCH  25  27
ENDBRANCH  24  25
ENDBRANCH   6  24
TORSDOF 9
ENDMDL
MODEL 6
REMARK VINA RESULT:      -8.0      3.156      4.376
REMARK  Name = 
REMARK  10 active torsions:
REMARK  status: ('A' for Active; 'I' for Inactive)
REMARK    1  A    between atoms: C_1  and  O_2
REMARK    2  A    between atoms: O_2  and  C_3
REMARK    3  A    between atoms: C_5  and  C_6
REMARK    4  A    between atoms: N_7  and  N_8
REMARK    5  A    between atoms: N_8  and  C_9
REMARK    6  A    between atoms: C_14  and  C_15
REMARK    7  A    between atoms: C_15  and  O_17
REMARK    8  A    between atoms: C_21  and  O_22
REMARK    9  A    between atoms: O_22  and  C_23
REMARK   10  A    between atoms: C_23  and  C_25
REMARK                            x       y       z     vdW  Elec       q    Type
REMARK                         _______ _______ _______ _____ _____    ______ ____
ROOT
ATOM      1  C   UNL     1       2.466   6.314  19.772  0.00  0.00    +0.000 A 
ATOM      2  C   UNL     1       1.819   7.553  19.715  0.00  0.00    +0.000 A 
ATOM      3  C   UNL     1       2.089   8.449  18.673  0.00  0.00    +0.000 A 
ATOM      4  C   UNL     1       3.010   8.127  17.680  0.00  0.00    +0.000 A 
ATOM      5  C   UNL     1       3.644   6.888  17.714  0.00  0.00    +0.000 A 
ATOM      6  C   UNL     1       3.348   5.971  18.734  0.00  0.00    +0.000 A 
ENDROOT
BRANCH   1   8
ATOM      7  C   UNL     1       1.232   4.455  20.578  0.00  0.00    +0.000 C 
ATOM      8  O   UNL     1       2.278   5.409  20.787  0.00  0.00    +0.000 OA
ENDBRANCH   1   8
BRANCH   3   9
ATOM      9  C   UNL     1       1.389   9.748  18.616  0.00  0.00    +0.000 C 
ATOM     10  N   UNL     1       0.349   9.985  19.349  0.00  0.00    +0.000 NA
BRANCH  10  11
ATOM     11  N   UNL     1      -0.219  11.199  19.167  0.00  0.00    +0.000 N 
ATOM     12  H   UNL     1       0.180  12.032  19.595  0.00  0.00    +0.000 HD
BRANCH  11  13
ATOM     13  C   UNL     1      -1.584  11.273  18.842  0.00  0.00    +0.000 A 
ATOM     14  C   UNL     1      -2.086  10.446  17.830  0.00  0.00    +0.000 A 
ATOM     15  C   UNL     1      -3.449  10.425  17.529  0.00  0.00    +0.000 A 
ATOM     16  C   UNL     1      -4.345  11.224  18.246  0.00  0.00    +0.000 A 
ATOM     17 CL   UNL     1      -6.005  11.137  17.779  0.00  0.00    +0.000 Cl
ATOM     18  C   UNL     1      -3.875  12.046  19.280  0.00  0.00    +0.000 A 
ATOM     19  C   UNL     1      -2.498  12.056  19.565  0.00  0.00    +0.000 A 
BRANCH  18  20
ATOM     20  C   UNL     1      -4.723  12.948  20.100  0.00  0.00    +0.000 C 
ATOM     21  O   UNL     1      -5.081  12.659  21.231  0.00  0.00    +0.000 OA
BRANCH  20  22
ATOM     22  O   UNL     1      -5.153  14.070  19.483  0.00  0.00    +0.000 OA
ATOM     23  H   UNL     1      -5.294  13.986  18.519  0.00  0.00    +0.000 HD
ENDBRANCH  20  22
ENDBRANCH  18  20
ENDBRANCH  11  13
ENDBRANCH  10  11
ENDBRANCH   3   9
BRANCH   6  24
ATOM     24  O   UNL     1       4.053   4.747  18.787  0.00  0.00    +0.000 OA
BRANCH  24  25
ATOM     25  C   UNL     1       5.436   4.822  18.726  0.00  0.00    +0.000 C 
ATOM     26  O   UNL     1       6.204   4.987  19.664  0.00  0.00    +0.000 OA
BRANCH  25  27
ATOM     27  C   UNL     1       5.928   4.648  17.340  0.00  0.00    +0.000 A 
ATOM     28  C   UNL     1       5.222   3.795  16.478  0.00  0.00    +0.000 A 
ATOM     29  C   UNL     1       5.612   3.654  15.142  0.00  0.00    +0.000 A 
ATOM     30  C   UNL     1       6.703   4.374  14.655  0.00  0.00    +0.000 A 
ATOM     31  C   UNL     1       7.394   5.241  15.500  0.00  0.00    +0.000 A 
ATOM     32  C   UNL     1       7.004   5.379  16.832  0.00  0.00    +0.000 A 
ATOM     33  F   UNL     1       7.660   6.272  17.586  0.00  0.00    +0.000 F 
ENDBRANCH  25  27
ENDBRANCH  24  25
ENDBRANCH   6  24
TORSDOF 9
ENDMDL
MODEL 7
REMARK VINA RESULT:      -8.0      3.526      5.447
REMARK  Name = 
REMARK  10 active torsions:
REMARK  status: ('A' for Active; 'I' for Inactive)
REMARK    1  A    between atoms: C_1  and  O_2
REMARK    2  A    between atoms: O_2  and  C_3
REMARK    3  A    between atoms: C_5  and  C_6
REMARK    4  A    between atoms: N_7  and  N_8
REMARK    5  A    between atoms: N_8  and  C_9
REMARK    6  A    between atoms: C_14  and  C_15
REMARK    7  A    between atoms: C_15  and  O_17
REMARK    8  A    between atoms: C_21  and  O_22
REMARK    9  A    between atoms: O_22  and  C_23
REMARK   10  A    between atoms: C_23  and  C_25
REMARK                            x       y       z     vdW  Elec       q    Type
REMARK                         _______ _______ _______ _____ _____    ______ ____
ROOT
ATOM      1  C   UNL     1       4.311   6.739  17.331  0.00  0.00    +0.000 A 
ATOM      2  C   UNL     1       3.603   7.937  17.185  0.00  0.00    +0.000 A 
ATOM      3  C   UNL     1       2.626   8.304  18.119  0.00  0.00    +0.000 A 
ATOM      4  C   UNL     1       2.338   7.483  19.205  0.00  0.00    +0.000 A 
ATOM      5  C   UNL     1       3.051   6.299  19.373  0.00  0.00    +0.000 A 
ATOM      6  C   UNL     1       4.058   5.945  18.461  0.00  0.00    +0.000 A 
ENDROOT
BRANCH   1   8
ATOM      7  C   UNL     1       6.605   6.641  16.735  0.00  0.00    +0.000 C 
ATOM      8  O   UNL     1       5.249   6.301  16.429  0.00  0.00    +0.000 OA
ENDBRANCH   1   8
BRANCH   3   9
ATOM      9  C   UNL     1       1.896   9.578  17.962  0.00  0.00    +0.000 C 
ATOM     10  N   UNL     1       0.619   9.651  18.156  0.00  0.00    +0.000 NA
BRANCH  10  11
ATOM     11  N   UNL     1       0.072  10.869  17.938  0.00  0.00    +0.000 N 
ATOM     12  H   UNL     1       0.514  11.534  17.306  0.00  0.00    +0.000 HD
BRANCH  11  13
ATOM     13  C   UNL     1      -0.777  11.421  18.912  0.00  0.00    +0.000 A 
ATOM     14  C   UNL     1      -2.054  11.850  18.533  0.00  0.00    +0.000 A 
ATOM     15  C   UNL     1      -2.962  12.330  19.479  0.00  0.00    +0.000 A 
ATOM     16  C   UNL     1      -2.614  12.377  20.833  0.00  0.00    +0.000 A 
ATOM     17 CL   UNL     1      -3.803  13.006  21.915  0.00  0.00    +0.000 Cl
ATOM     18  C   UNL     1      -1.350  11.933  21.245  0.00  0.00    +0.000 A 
ATOM     19  C   UNL     1      -0.448  11.458  20.276  0.00  0.00    +0.000 A 
BRANCH  18  20
ATOM     20  C   UNL     1      -0.860  11.948  22.647  0.00  0.00    +0.000 C 
ATOM     21  O   UNL     1      -0.978  10.987  23.391  0.00  0.00    +0.000 OA
BRANCH  20  22
ATOM     22  O   UNL     1      -0.360  13.125  23.081  0.00  0.00    +0.000 OA
ATOM     23  H   UNL     1      -0.522  13.888  22.492  0.00  0.00    +0.000 HD
ENDBRANCH  20  22
ENDBRANCH  18  20
ENDBRANCH  11  13
ENDBRANCH  10  11
ENDBRANCH   3   9
BRANCH   6  24
ATOM     24  O   UNL     1       4.721   4.707  18.614  0.00  0.00    +0.000 OA
BRANCH  24  25
ATOM     25  C   UNL     1       4.013   3.572  18.251  0.00  0.00    +0.000 C 
ATOM     26  O   UNL     1       4.158   2.911  17.232  0.00  0.00    +0.000 OA
BRANCH  25  27
ATOM     27  C   UNL     1       3.022   3.197  19.286  0.00  0.00    +0.000 A 
ATOM     28  C   UNL     1       3.486   2.809  20.552  0.00  0.00    +0.000 A 
ATOM     29  C   UNL     1       2.583   2.512  21.579  0.00  0.00    +0.000 A 
ATOM     30  C   UNL     1       1.212   2.613  21.351  0.00  0.00    +0.000 A 
ATOM     31  C   UNL     1       0.744   3.019  20.101  0.00  0.00    +0.000 A 
ATOM     32  C   UNL     1       1.646   3.314  19.079  0.00  0.00    +0.000 A 
ATOM     33  F   UNL     1       1.149   3.762  17.918  0.00  0.00    +0.000 F 
ENDBRANCH  25  27
ENDBRANCH  24  25
ENDBRANCH   6  24
TORSDOF 9
ENDMDL
MODEL 8
REMARK VINA RESULT:      -8.0      5.228      7.561
REMARK  Name = 
REMARK  10 active torsions:
REMARK  status: ('A' for Active; 'I' for Inactive)
REMARK    1  A    between atoms: C_1  and  O_2
REMARK    2  A    between atoms: O_2  and  C_3
REMARK    3  A    between atoms: C_5  and  C_6
REMARK    4  A    between atoms: N_7  and  N_8
REMARK    5  A    between atoms: N_8  and  C_9
REMARK    6  A    between atoms: C_14  and  C_15
REMARK    7  A    between atoms: C_15  and  O_17
REMARK    8  A    between atoms: C_21  and  O_22
REMARK    9  A    between atoms: O_22  and  C_23
REMARK   10  A    between atoms: C_23  and  C_25
REMARK                            x       y       z     vdW  Elec       q    Type
REMARK                         _______ _______ _______ _____ _____    ______ ____
ROOT
ATOM      1  C   UNL     1       4.469   6.324  17.346  0.00  0.00    +0.000 A 
ATOM      2  C   UNL     1       5.586   7.138  17.567  0.00  0.00    +0.000 A 
ATOM      3  C   UNL     1       6.865   6.578  17.675  0.00  0.00    +0.000 A 
ATOM      4  C   UNL     1       7.049   5.203  17.571  0.00  0.00    +0.000 A 
ATOM      5  C   UNL     1       5.949   4.384  17.328  0.00  0.00    +0.000 A 
ATOM      6  C   UNL     1       4.670   4.944  17.181  0.00  0.00    +0.000 A 
ENDROOT
BRANCH   1   8
ATOM      7  C   UNL     1       2.639   7.292  18.503  0.00  0.00    +0.000 C 
ATOM      8  O   UNL     1       3.186   6.805  17.273  0.00  0.00    +0.000 OA
ENDBRANCH   1   8
BRANCH   3   9
ATOM      9  C   UNL     1       8.036   7.450  17.894  0.00  0.00    +0.000 C 
ATOM     10  N   UNL     1       7.921   8.739  17.925  0.00  0.00    +0.000 NA
BRANCH  10  11
ATOM     11  N   UNL     1       9.079   9.417  18.092  0.00  0.00    +0.000 N 
ATOM     12  H   UNL     1       9.974   8.931  18.087  0.00  0.00    +0.000 HD
BRANCH  11  13
ATOM     13  C   UNL     1       9.058  10.651  18.762  0.00  0.00    +0.000 A 
ATOM     14  C   UNL     1       9.312  10.680  20.138  0.00  0.00    +0.000 A 
ATOM     15  C   UNL     1       9.383  11.890  20.832  0.00  0.00    +0.000 A 
ATOM     16  C   UNL     1       9.213  13.103  20.157  0.00  0.00    +0.000 A 
ATOM     17 CL   UNL     1       9.299  14.538  21.113  0.00  0.00    +0.000 Cl
ATOM     18  C   UNL     1       8.979  13.107  18.775  0.00  0.00    +0.000 A 
ATOM     19  C   UNL     1       8.907  11.878  18.095  0.00  0.00    +0.000 A 
BRANCH  18  20
ATOM     20  C   UNL     1       8.767  14.325  17.953  0.00  0.00    +0.000 C 
ATOM     21  O   UNL     1       9.621  15.191  17.835  0.00  0.00    +0.000 OA
BRANCH  20  22
ATOM     22  O   UNL     1       7.535  14.465  17.417  0.00  0.00    +0.000 OA
ATOM     23  H   UNL     1       7.450  14.173  16.489  0.00  0.00    +0.000 HD
ENDBRANCH  20  22
ENDBRANCH  18  20
ENDBRANCH  11  13
ENDBRANCH  10  11
ENDBRANCH   3   9
BRANCH   6  24
ATOM     24  O   UNL     1       3.559   4.089  17.003  0.00  0.00    +0.000 OA
BRANCH  24  25
ATOM     25  C   UNL     1       3.556   2.913  17.736  0.00  0.00    +0.000 C 
ATOM     26  O   UNL     1       4.112   1.863  17.444  0.00  0.00    +0.000 OA
BRANCH  25  27
ATOM     27  C   UNL     1       2.789   3.060  18.996  0.00  0.00    +0.000 A 
ATOM     28  C   UNL     1       3.345   2.557  20.183  0.00  0.00    +0.000 A 
ATOM     29  C   UNL     1       2.687   2.735  21.405  0.00  0.00    +0.000 A 
ATOM     30  C   UNL     1       1.477   3.427  21.451  0.00  0.00    +0.000 A 
ATOM     31  C   UNL     1       0.932   3.949  20.278  0.00  0.00    +0.000 A 
ATOM     32  C   UNL     1       1.589   3.770  19.061  0.00  0.00    +0.000 A 
ATOM     33  F   UNL     1       1.057   4.345  17.974  0.00  0.00    +0.000 F 
ENDBRANCH  25  27
ENDBRANCH  24  25
ENDBRANCH   6  24
TORSDOF 9
ENDMDL
MODEL 9
REMARK VINA RESULT:      -7.9      3.531      5.712
REMARK  Name = 
REMARK  10 active torsions:
REMARK  status: ('A' for Active; 'I' for Inactive)
REMARK    1  A    between atoms: C_1  and  O_2
REMARK    2  A    between atoms: O_2  and  C_3
REMARK    3  A    between atoms: C_5  and  C_6
REMARK    4  A    between atoms: N_7  and  N_8
REMARK    5  A    between atoms: N_8  and  C_9
REMARK    6  A    between atoms: C_14  and  C_15
REMARK    7  A    between atoms: C_15  and  O_17
REMARK    8  A    between atoms: C_21  and  O_22
REMARK    9  A    between atoms: O_22  and  C_23
REMARK   10  A    between atoms: C_23  and  C_25
REMARK                            x       y       z     vdW  Elec       q    Type
REMARK                         _______ _______ _______ _____ _____    ______ ____
ROOT
ATOM      1  C   UNL     1       4.433   6.771  17.511  0.00  0.00    +0.000 A 
ATOM      2  C   UNL     1       3.718   7.950  17.269  0.00  0.00    +0.000 A 
ATOM      3  C   UNL     1       2.623   8.295  18.071  0.00  0.00    +0.000 A 
ATOM      4  C   UNL     1       2.221   7.471  19.118  0.00  0.00    +0.000 A 
ATOM      5  C   UNL     1       2.938   6.307  19.382  0.00  0.00    +0.000 A 
ATOM      6  C   UNL     1       4.060   5.976  18.606  0.00  0.00    +0.000 A 
ENDROOT
BRANCH   1   8
ATOM      7  C   UNL     1       5.201   6.185  15.344  0.00  0.00    +0.000 C 
ATOM      8  O   UNL     1       5.487   6.355  16.737  0.00  0.00    +0.000 OA
ENDBRANCH   1   8
BRANCH   3   9
ATOM      9  C   UNL     1       1.886   9.549  17.814  0.00  0.00    +0.000 C 
ATOM     10  N   UNL     1       1.086  10.053  18.698  0.00  0.00    +0.000 NA
BRANCH  10  11
ATOM     11  N   UNL     1       0.445  11.181  18.316  0.00  0.00    +0.000 N 
ATOM     12  H   UNL     1       0.895  12.091  18.400  0.00  0.00    +0.000 HD
BRANCH  11  13
ATOM     13  C   UNL     1      -0.960  11.194  18.292  0.00  0.00    +0.000 A 
ATOM     14  C   UNL     1      -1.629  10.331  17.417  0.00  0.00    +0.000 A 
ATOM     15  C   UNL     1      -3.024  10.248  17.415  0.00  0.00    +0.000 A 
ATOM     16  C   UNL     1      -3.779  11.021  18.302  0.00  0.00    +0.000 A 
ATOM     17 CL   UNL     1      -5.495  10.857  18.201  0.00  0.00    +0.000 Cl
ATOM     18  C   UNL     1      -3.135  11.878  19.205  0.00  0.00    +0.000 A 
ATOM     19  C   UNL     1      -1.731  11.950  19.189  0.00  0.00    +0.000 A 
BRANCH  18  20
ATOM     20  C   UNL     1      -3.827  12.757  20.181  0.00  0.00    +0.000 C 
ATOM     21  O   UNL     1      -4.615  12.324  21.007  0.00  0.00    +0.000 OA
BRANCH  20  22
ATOM     22  O   UNL     1      -3.603  14.082  20.039  0.00  0.00    +0.000 OA
ATOM     23  H   UNL     1      -2.669  14.357  20.123  0.00  0.00    +0.000 HD
ENDBRANCH  20  22
ENDBRANCH  18  20
ENDBRANCH  11  13
ENDBRANCH  10  11
ENDBRANCH   3   9
BRANCH   6  24
ATOM     24  O   UNL     1       4.730   4.756  18.849  0.00  0.00    +0.000 OA
BRANCH  24  25
ATOM     25  C   UNL     1       4.090   3.600  18.432  0.00  0.00    +0.000 C 
ATOM     26  O   UNL     1       4.337   2.945  17.429  0.00  0.00    +0.000 OA
BRANCH  25  27
ATOM     27  C   UNL     1       3.032   3.191  19.385  0.00  0.00    +0.000 A 
ATOM     28  C   UNL     1       3.401   2.862  20.698  0.00  0.00    +0.000 A 
ATOM     29  C   UNL     1       2.427   2.536  21.649  0.00  0.00    +0.000 A 
ATOM     30  C   UNL     1       1.078   2.549  21.297  0.00  0.00    +0.000 A 
ATOM     31  C   UNL     1       0.704   2.898  19.999  0.00  0.00    +0.000 A 
ATOM     32  C   UNL     1       1.676   3.221  19.053  0.00  0.00    +0.000 A 
ATOM     33  F   UNL     1       1.262   3.612  17.840  0.00  0.00    +0.000 F 
ENDBRANCH  25  27
ENDBRANCH  24  25
ENDBRANCH   6  24
TORSDOF 9
ENDMDL
