MODEL 1
REMARK VINA RESULT:      -8.3      0.000      0.000
REMARK  Name = 
REMARK  7 active torsions:
REMARK  status: ('A' for Active; 'I' for Inactive)
REMARK    1  A    between atoms: C_1  and  O_2
REMARK    2  A    between atoms: O_2  and  C_3
REMARK    3  A    between atoms: C_5  and  C_6
REMARK    4  A    between atoms: N_8  and  C_9
REMARK    5  A    between atoms: C_9  and  C_10
REMARK    6  A    between atoms: C_13  and  C_14
REMARK    7  A    between atoms: C_23  and  C_24
REMARK                            x       y       z     vdW  Elec       q    Type
REMARK                         _______ _______ _______ _____ _____    ______ ____
ROOT
ATOM      1  C   UNL     1       1.899   6.890  20.302  0.00  0.00    +0.000 C 
ATOM      2  O   UNL     1       1.138   6.063  20.790  0.00  0.00    +0.000 OA
ATOM      3  N   UNL     1       1.881   8.227  20.622  0.00  0.00    +0.000 N 
ATOM      4  H   UNL     1       2.481   8.888  20.150  0.00  0.00    +0.000 HD
ENDROOT
BRANCH   1   7
ATOM      5  C   UNL     1       4.279   4.712  18.345  0.00  0.00    +0.000 A 
ATOM      6  C   UNL     1       3.413   5.194  19.338  0.00  0.00    +0.000 A 
ATOM      7  C   UNL     1       2.870   6.480  19.256  0.00  0.00    +0.000 A 
ATOM      8  C   UNL     1       3.247   7.326  18.215  0.00  0.00    +0.000 A 
ATOM      9  C   UNL     1       4.147   6.870  17.248  0.00  0.00    +0.000 A 
ATOM     10  C   UNL     1       4.666   5.560  17.285  0.00  0.00    +0.000 A 
BRANCH  10  11
ATOM     11  C   UNL     1       5.569   5.129  16.221  0.00  0.00    +0.000 A 
ATOM     12  C   UNL     1       5.360   4.331  15.072  0.00  0.00    +0.000 A 
ATOM     13  N   UNL     1       6.470   4.167  14.342  0.00  0.00    +0.000 NA
ATOM     14  N   UNL     1       7.392   4.870  15.014  0.00  0.00    +0.000 N 
ATOM     15  C   UNL     1       6.909   5.459  16.145  0.00  0.00    +0.000 A 
ATOM     16  H   UNL     1       8.335   4.904  14.642  0.00  0.00    +0.000 HD
ENDBRANCH  10  11
BRANCH   5  18
ATOM     17  C   UNL     1       4.528   2.706  19.579  0.00  0.00    +0.000 C 
ATOM     18  O   UNL     1       4.776   3.431  18.375  0.00  0.00    +0.000 OA
ENDBRANCH   5  18
ENDBRANCH   1   7
BRANCH   3  19
ATOM     19  C   UNL     1       0.949   8.768  21.588  0.00  0.00    +0.000 C 
BRANCH  19  20
ATOM     20  C   UNL     1       0.154   9.840  20.921  0.00  0.00    +0.000 A 
ATOM     21  C   UNL     1       0.063  11.152  21.338  0.00  0.00    +0.000 A 
ATOM     22  S   UNL     1      -0.955  12.034  20.291  0.00  0.00    +0.000 S 
ATOM     23  C   UNL     1      -1.198  10.620  19.329  0.00  0.00    +0.000 A 
ATOM     24  N   UNL     1      -0.568   9.546  19.768  0.00  0.00    +0.000 NA
BRANCH  23  25
ATOM     25  C   UNL     1      -2.089  10.651  18.154  0.00  0.00    +0.000 A 
ATOM     26  C   UNL     1      -1.846   9.884  17.003  0.00  0.00    +0.000 A 
ATOM     27  C   UNL     1      -2.695   9.958  15.894  0.00  0.00    +0.000 A 
ATOM     28  C   UNL     1      -3.806  10.796  15.920  0.00  0.00    +0.000 A 
ATOM     29  C   UNL     1      -4.077  11.551  17.060  0.00  0.00    +0.000 A 
ATOM     30  C   UNL     1      -3.228  11.473  18.169  0.00  0.00    +0.000 A 
ENDBRANCH  23  25
ENDBRANCH  19  20
ENDBRANCH   3  19
TORSDOF 6
ENDMDL
MODEL 2
REMARK VINA RESULT:      -8.3      0.254      1.166
REMARK  Name = 
REMARK  7 active torsions:
REMARK  status: ('A' for Active; 'I' for Inactive)
REMARK    1  A    between atoms: C_1  and  O_2
REMARK    2  A    between atoms: O_2  and  C_3
REMARK    3  A    between atoms: C_5  and  C_6
REMARK    4  A    between atoms: N_8  and  C_9
REMARK    5  A    between atoms: C_9  and  C_10
REMARK    6  A    between atoms: C_13  and  C_14
REMARK    7  A    between atoms: C_23  and  C_24
REMARK                            x       y       z     vdW  Elec       q    Type
REMARK                         _______ _______ _______ _____ _____    ______ ____
ROOT
ATOM      1  C   UNL     1       1.885   6.978  20.447  0.00  0.00    +0.000 C 
ATOM      2  O   UNL     1       1.174   6.127  20.968  0.00  0.00    +0.000 OA
ATOM      3  N   UNL     1       1.790   8.322  20.718  0.00  0.00    +0.000 N 
ATOM      4  H   UNL     1       2.351   8.999  20.220  0.00  0.00    +0.000 HD
ENDROOT
BRANCH   1   7
ATOM      5  C   UNL     1       4.477   4.922  18.634  0.00  0.00    +0.000 A 
ATOM      6  C   UNL     1       3.581   5.392  19.603  0.00  0.00    +0.000 A 
ATOM      7  C   UNL     1       2.876   6.586  19.414  0.00  0.00    +0.000 A 
ATOM      8  C   UNL     1       3.120   7.360  18.281  0.00  0.00    +0.000 A 
ATOM      9  C   UNL     1       4.048   6.923  17.333  0.00  0.00    +0.000 A 
ATOM     10  C   UNL     1       4.730   5.698  17.482  0.00  0.00    +0.000 A 
BRANCH  10  11
ATOM     11  C   UNL     1       5.657   5.275  16.434  0.00  0.00    +0.000 A 
ATOM     12  C   UNL     1       7.009   5.604  16.182  0.00  0.00    +0.000 A 
ATOM     13  N   UNL     1       7.500   4.994  15.096  0.00  0.00    +0.000 NA
ATOM     14  N   UNL     1       6.468   4.262  14.656  0.00  0.00    +0.000 N 
ATOM     15  C   UNL     1       5.342   4.397  15.414  0.00  0.00    +0.000 A 
ATOM     16  H   UNL     1       6.602   3.690  13.828  0.00  0.00    +0.000 HD
ENDBRANCH  10  11
BRANCH   5  18
ATOM     17  C   UNL     1       4.303   2.600  19.069  0.00  0.00    +0.000 C 
ATOM     18  O   UNL     1       5.134   3.722  18.773  0.00  0.00    +0.000 OA
ENDBRANCH   5  18
ENDBRANCH   1   7
BRANCH   3  19
ATOM     19  C   UNL     1       0.831   8.843  21.666  0.00  0.00    +0.000 C 
BRANCH  19  20
ATOM     20  C   UNL     1       0.047   9.921  20.995  0.00  0.00    +0.000 A 
ATOM     21  C   UNL     1      -0.039  11.234  21.413  0.00  0.00    +0.000 A 
ATOM     22  S   UNL     1      -1.043  12.123  20.359  0.00  0.00    +0.000 S 
ATOM     23  C   UNL     1      -1.287  10.712  19.393  0.00  0.00    +0.000 A 
ATOM     24  N   UNL     1      -0.667   9.633  19.837  0.00  0.00    +0.000 NA
BRANCH  23  25
ATOM     25  C   UNL     1      -2.169  10.750  18.212  0.00  0.00    +0.000 A 
ATOM     26  C   UNL     1      -3.333  11.535  18.165  0.00  0.00    +0.000 A 
ATOM     27  C   UNL     1      -4.164  11.527  17.041  0.00  0.00    +0.000 A 
ATOM     28  C   UNL     1      -3.843  10.737  15.940  0.00  0.00    +0.000 A 
ATOM     29  C   UNL     1      -2.682   9.965  15.958  0.00  0.00    +0.000 A 
ATOM     30  C   UNL     1      -1.850   9.978  17.083  0.00  0.00    +0.000 A 
ENDBRANCH  23  25
ENDBRANCH  19  20
ENDBRANCH   3  19
TORSDOF 6
ENDMDL
MODEL 3
REMARK VINA RESULT:      -8.0      3.660      9.531
REMARK  Name = 
REMARK  7 active torsions:
REMARK  status: ('A' for Active; 'I' for Inactive)
REMARK    1  A    between atoms: C_1  and  O_2
REMARK    2  A    between atoms: O_2  and  C_3
REMARK    3  A    between atoms: C_5  and  C_6
REMARK    4  A    between atoms: N_8  and  C_9
REMARK    5  A    between atoms: C_9  and  C_10
REMARK    6  A    between atoms: C_13  and  C_14
REMARK    7  A    between atoms: C_23  and  C_24
REMARK                            x       y       z     vdW  Elec       q    Type
REMARK                         _______ _______ _______ _____ _____    ______ ____
ROOT
ATOM      1  C   UNL     1       0.759  10.581  18.638  0.00  0.00    +0.000 C 
ATOM      2  O   UNL     1       1.374  11.309  19.407  0.00  0.00    +0.000 OA
ATOM      3  N   UNL     1       1.357   9.641  17.834  0.00  0.00    +0.000 N 
ATOM      4  H   UNL     1       0.822   9.104  17.165  0.00  0.00    +0.000 HD
ENDROOT
BRANCH   1   7
ATOM      5  C   UNL     1      -2.734  11.905  19.175  0.00  0.00    +0.000 A 
ATOM      6  C   UNL     1      -1.360  11.657  19.311  0.00  0.00    +0.000 A 
ATOM      7  C   UNL     1      -0.711  10.730  18.489  0.00  0.00    +0.000 A 
ATOM      8  C   UNL     1      -1.448   9.987  17.568  0.00  0.00    +0.000 A 
ATOM      9  C   UNL     1      -2.826  10.193  17.459  0.00  0.00    +0.000 A 
ATOM     10  C   UNL     1      -3.489  11.158  18.244  0.00  0.00    +0.000 A 
BRANCH  10  11
ATOM     11  C   UNL     1      -4.923  11.357  18.053  0.00  0.00    +0.000 A 
ATOM     12  C   UNL     1      -6.047  10.840  18.740  0.00  0.00    +0.000 A 
ATOM     13  N   UNL     1      -7.210  11.275  18.238  0.00  0.00    +0.000 NA
ATOM     14  N   UNL     1      -6.835  12.081  17.235  0.00  0.00    +0.000 N 
ATOM     15  C   UNL     1      -5.482  12.161  17.078  0.00  0.00    +0.000 A 
ATOM     16  H   UNL     1      -7.558  12.546  16.696  0.00  0.00    +0.000 HD
ENDBRANCH  10  11
BRANCH   5  18
ATOM     17  C   UNL     1      -3.258  12.695  21.345  0.00  0.00    +0.000 C 
ATOM     18  O   UNL     1      -3.378  12.853  19.932  0.00  0.00    +0.000 OA
ENDBRANCH   5  18
ENDBRANCH   1   7
BRANCH   3  19
ATOM     19  C   UNL     1       2.788   9.428  17.842  0.00  0.00    +0.000 C 
BRANCH  19  20
ATOM     20  C   UNL     1       3.043   7.959  17.894  0.00  0.00    +0.000 A 
ATOM     21  C   UNL     1       3.911   7.263  17.076  0.00  0.00    +0.000 A 
ATOM     22  S   UNL     1       3.892   5.604  17.473  0.00  0.00    +0.000 S 
ATOM     23  C   UNL     1       2.745   5.913  18.727  0.00  0.00    +0.000 A 
ATOM     24  N   UNL     1       2.384   7.178  18.838  0.00  0.00    +0.000 NA
BRANCH  23  25
ATOM     25  C   UNL     1       2.204   4.809  19.543  0.00  0.00    +0.000 A 
ATOM     26  C   UNL     1       2.518   4.653  20.903  0.00  0.00    +0.000 A 
ATOM     27  C   UNL     1       2.012   3.579  21.642  0.00  0.00    +0.000 A 
ATOM     28  C   UNL     1       1.177   2.645  21.034  0.00  0.00    +0.000 A 
ATOM     29  C   UNL     1       0.837   2.792  19.689  0.00  0.00    +0.000 A 
ATOM     30  C   UNL     1       1.343   3.870  18.954  0.00  0.00    +0.000 A 
ENDBRANCH  23  25
ENDBRANCH  19  20
ENDBRANCH   3  19
TORSDOF 6
ENDMDL
MODEL 4
REMARK VINA RESULT:      -8.0      3.306      9.079
REMARK  Name = 
REMARK  7 active torsions:
REMARK  status: ('A' for Active; 'I' for Inactive)
REMARK    1  A    between atoms: C_1  and  O_2
REMARK    2  A    between atoms: O_2  and  C_3
REMARK    3  A    between atoms: C_5  and  C_6
REMARK    4  A    between atoms: N_8  and  C_9
REMARK    5  A    between atoms: C_9  and  C_10
REMARK    6  A    between atoms: C_13  and  C_14
REMARK    7  A    between atoms: C_23  and  C_24
REMARK                            x       y       z     vdW  Elec       q    Type
REMARK                         _______ _______ _______ _____ _____    ______ ____
ROOT
ATOM      1  C   UNL     1       2.279   6.550  19.698  0.00  0.00    +0.000 C 
ATOM      2  O   UNL     1       1.842   5.892  20.634  0.00  0.00    +0.000 OA
ATOM      3  N   UNL     1       3.247   6.098  18.832  0.00  0.00    +0.000 N 
ATOM      4  H   UNL     1       3.628   6.696  18.112  0.00  0.00    +0.000 HD
ENDROOT
BRANCH   1   7
ATOM      5  C   UNL     1       1.003  10.011  20.493  0.00  0.00    +0.000 A 
ATOM      6  C   UNL     1       1.388   8.667  20.606  0.00  0.00    +0.000 A 
ATOM      7  C   UNL     1       1.811   7.943  19.486  0.00  0.00    +0.000 A 
ATOM      8  C   UNL     1       1.782   8.539  18.226  0.00  0.00    +0.000 A 
ATOM      9  C   UNL     1       1.353   9.862  18.098  0.00  0.00    +0.000 A 
ATOM     10  C   UNL     1       0.972  10.624  19.221  0.00  0.00    +0.000 A 
BRANCH  10  11
ATOM     11  C   UNL     1       0.575  12.016  19.027  0.00  0.00    +0.000 A 
ATOM     12  C   UNL     1       1.302  13.226  19.118  0.00  0.00    +0.000 A 
ATOM     13  N   UNL     1       0.553  14.306  18.866  0.00  0.00    +0.000 NA
ATOM     14  N   UNL     1      -0.656  13.791  18.600  0.00  0.00    +0.000 N 
ATOM     15  C   UNL     1      -0.699  12.430  18.687  0.00  0.00    +0.000 A 
ATOM     16  H   UNL     1      -1.409  14.429  18.365  0.00  0.00    +0.000 HD
ENDBRANCH  10  11
BRANCH   5  18
ATOM     17  C   UNL     1      -0.577  10.368  22.220  0.00  0.00    +0.000 C 
ATOM     18  O   UNL     1       0.642  10.757  21.589  0.00  0.00    +0.000 OA
ENDBRANCH   5  18
ENDBRANCH   1   7
BRANCH   3  19
ATOM     19  C   UNL     1       3.826   4.779  18.958  0.00  0.00    +0.000 C 
BRANCH  19  20
ATOM     20  C   UNL     1       5.060   4.728  18.119  0.00  0.00    +0.000 A 
ATOM     21  C   UNL     1       6.355   4.827  18.585  0.00  0.00    +0.000 A 
ATOM     22  S   UNL     1       7.458   4.723  17.288  0.00  0.00    +0.000 S 
ATOM     23  C   UNL     1       6.145   4.530  16.182  0.00  0.00    +0.000 A 
ATOM     24  N   UNL     1       4.950   4.555  16.743  0.00  0.00    +0.000 NA
BRANCH  23  25
ATOM     25  C   UNL     1       6.392   4.407  14.733  0.00  0.00    +0.000 A 
ATOM     26  C   UNL     1       5.611   3.586  13.902  0.00  0.00    +0.000 A 
ATOM     27  C   UNL     1       5.888   3.469  12.537  0.00  0.00    +0.000 A 
ATOM     28  C   UNL     1       6.948   4.176  11.976  0.00  0.00    +0.000 A 
ATOM     29  C   UNL     1       7.724   5.012  12.779  0.00  0.00    +0.000 A 
ATOM     30  C   UNL     1       7.442   5.130  14.144  0.00  0.00    +0.000 A 
ENDBRANCH  23  25
ENDBRANCH  19  20
ENDBRANCH   3  19
TORSDOF 6
ENDMDL
MODEL 5
REMARK VINA RESULT:      -7.8      0.910      1.339
REMARK  Name = 
REMARK  7 active torsions:
REMARK  status: ('A' for Active; 'I' for Inactive)
REMARK    1  A    between atoms: C_1  and  O_2
REMARK    2  A    between atoms: O_2  and  C_3
REMARK    3  A    between atoms: C_5  and  C_6
REMARK    4  A    between atoms: N_8  and  C_9
REMARK    5  A    between atoms: C_9  and  C_10
REMARK    6  A    between atoms: C_13  and  C_14
REMARK    7  A    between atoms: C_23  and  C_24
REMARK                            x       y       z     vdW  Elec       q    Type
REMARK                         _______ _______ _______ _____ _____    ______ ____
ROOT
ATOM      1  C   UNL     1       2.139   7.013  19.854  0.00  0.00    +0.000 C 
ATOM      2  O   UNL     1       1.685   6.218  20.668  0.00  0.00    +0.000 OA
ATOM      3  N   UNL     1       1.798   8.343  19.814  0.00  0.00    +0.000 N 
ATOM      4  H   UNL     1       2.144   8.953  19.086  0.00  0.00    +0.000 HD
ENDROOT
BRANCH   1   7
ATOM      5  C   UNL     1       4.213   4.656  17.760  0.00  0.00    +0.000 A 
ATOM      6  C   UNL     1       3.403   5.185  18.775  0.00  0.00    +0.000 A 
ATOM      7  C   UNL     1       3.067   6.543  18.794  0.00  0.00    +0.000 A 
ATOM      8  C   UNL     1       3.602   7.401  17.835  0.00  0.00    +0.000 A 
ATOM      9  C   UNL     1       4.450   6.891  16.848  0.00  0.00    +0.000 A 
ATOM     10  C   UNL     1       4.759   5.517  16.783  0.00  0.00    +0.000 A 
BRANCH  10  11
ATOM     11  C   UNL     1       5.617   5.038  15.702  0.00  0.00    +0.000 A 
ATOM     12  C   UNL     1       5.323   4.370  14.490  0.00  0.00    +0.000 A 
ATOM     13  N   UNL     1       6.415   4.098  13.766  0.00  0.00    +0.000 NA
ATOM     14  N   UNL     1       7.413   4.602  14.506  0.00  0.00    +0.000 N 
ATOM     15  C   UNL     1       6.992   5.169  15.673  0.00  0.00    +0.000 A 
ATOM     16  H   UNL     1       8.361   4.523  14.152  0.00  0.00    +0.000 HD
ENDBRANCH  10  11
BRANCH   5  18
ATOM     17  C   UNL     1       3.396   2.436  17.875  0.00  0.00    +0.000 C 
ATOM     18  O   UNL     1       4.505   3.315  17.689  0.00  0.00    +0.000 OA
ENDBRANCH   5  18
ENDBRANCH   1   7
BRANCH   3  19
ATOM     19  C   UNL     1       0.864   8.920  20.756  0.00  0.00    +0.000 C 
BRANCH  19  20
ATOM     20  C   UNL     1       0.233  10.113  20.119  0.00  0.00    +0.000 A 
ATOM     21  C   UNL     1       0.776  11.381  20.068  0.00  0.00    +0.000 A 
ATOM     22  S   UNL     1      -0.282  12.442  19.252  0.00  0.00    +0.000 S 
ATOM     23  C   UNL     1      -1.392  11.144  18.994  0.00  0.00    +0.000 A 
ATOM     24  N   UNL     1      -1.006   9.986  19.499  0.00  0.00    +0.000 NA
BRANCH  23  25
ATOM     25  C   UNL     1      -2.677  11.377  18.308  0.00  0.00    +0.000 A 
ATOM     26  C   UNL     1      -3.800  11.903  18.969  0.00  0.00    +0.000 A 
ATOM     27  C   UNL     1      -5.013  12.085  18.298  0.00  0.00    +0.000 A 
ATOM     28  C   UNL     1      -5.123  11.748  16.952  0.00  0.00    +0.000 A 
ATOM     29  C   UNL     1      -4.016  11.242  16.271  0.00  0.00    +0.000 A 
ATOM     30  C   UNL     1      -2.802  11.065  16.945  0.00  0.00    +0.000 A 
ENDBRANCH  23  25
ENDBRANCH  19  20
ENDBRANCH   3  19
TORSDOF 6
ENDMDL
MODEL 6
REMARK VINA RESULT:      -7.7      2.708      3.635
REMARK  Name = 
REMARK  7 active torsions:
REMARK  status: ('A' for Active; 'I' for Inactive)
REMARK    1  A    between atoms: C_1  and  O_2
REMARK    2  A    between atoms: O_2  and  C_3
REMARK    3  A    between atoms: C_5  and  C_6
REMARK    4  A    between atoms: N_8  and  C_9
REMARK    5  A    between atoms: C_9  and  C_10
REMARK    6  A    between atoms: C_13  and  C_14
REMARK    7  A    between atoms: C_23  and  C_24
REMARK                            x       y       z     vdW  Elec       q    Type
REMARK                         _______ _______ _______ _____ _____    ______ ____
ROOT
ATOM      1  C   UNL     1       1.761   6.581  20.427  0.00  0.00    +0.000 C 
ATOM      2  O   UNL     1       1.151   5.621  20.883  0.00  0.00    +0.000 OA
ATOM      3  N   UNL     1       1.517   7.883  20.791  0.00  0.00    +0.000 N 
ATOM      4  H   UNL     1       1.996   8.652  20.343  0.00  0.00    +0.000 HD
ENDROOT
BRANCH   1   7
ATOM      5  C   UNL     1       4.342   4.839  18.295  0.00  0.00    +0.000 A 
ATOM      6  C   UNL     1       3.417   5.129  19.308  0.00  0.00    +0.000 A 
ATOM      7  C   UNL     1       2.788   6.376  19.374  0.00  0.00    +0.000 A 
ATOM      8  C   UNL     1       3.134   7.374  18.465  0.00  0.00    +0.000 A 
ATOM      9  C   UNL     1       4.091   7.110  17.481  0.00  0.00    +0.000 A 
ATOM     10  C   UNL     1       4.699   5.843  17.368  0.00  0.00    +0.000 A 
BRANCH  10  11
ATOM     11  C   UNL     1       5.660   5.616  16.292  0.00  0.00    +0.000 A 
ATOM     12  C   UNL     1       5.491   5.207  14.947  0.00  0.00    +0.000 A 
ATOM     13  N   UNL     1       6.649   5.113  14.282  0.00  0.00    +0.000 NA
ATOM     14  N   UNL     1       7.562   5.472  15.194  0.00  0.00    +0.000 N 
ATOM     15  C   UNL     1       7.027   5.777  16.411  0.00  0.00    +0.000 A 
ATOM     16  H   UNL     1       8.539   5.487  14.917  0.00  0.00    +0.000 HD
ENDBRANCH  10  11
BRANCH   5  18
ATOM     17  C   UNL     1       4.027   2.520  17.933  0.00  0.00    +0.000 C 
ATOM     18  O   UNL     1       4.926   3.601  18.178  0.00  0.00    +0.000 OA
ENDBRANCH   5  18
ENDBRANCH   1   7
BRANCH   3  19
ATOM     19  C   UNL     1       0.507   8.226  21.768  0.00  0.00    +0.000 C 
BRANCH  19  20
ATOM     20  C   UNL     1       0.241   9.691  21.672  0.00  0.00    +0.000 A 
ATOM     21  C   UNL     1       0.829  10.560  20.774  0.00  0.00    +0.000 A 
ATOM     22  S   UNL     1       0.241  12.143  21.015  0.00  0.00    +0.000 S 
ATOM     23  C   UNL     1      -0.781  11.575  22.287  0.00  0.00    +0.000 A 
ATOM     24  N   UNL     1      -0.682  10.281  22.530  0.00  0.00    +0.000 NA
BRANCH  23  25
ATOM     25  C   UNL     1      -1.633  12.511  23.043  0.00  0.00    +0.000 A 
ATOM     26  C   UNL     1      -2.950  12.195  23.420  0.00  0.00    +0.000 A 
ATOM     27  C   UNL     1      -3.742  13.116  24.112  0.00  0.00    +0.000 A 
ATOM     28  C   UNL     1      -3.230  14.367  24.446  0.00  0.00    +0.000 A 
ATOM     29  C   UNL     1      -1.920  14.693  24.099  0.00  0.00    +0.000 A 
ATOM     30  C   UNL     1      -1.128  13.769  23.409  0.00  0.00    +0.000 A 
ENDBRANCH  23  25
ENDBRANCH  19  20
ENDBRANCH   3  19
TORSDOF 6
ENDMDL
MODEL 7
REMARK VINA RESULT:      -7.7      1.196      1.923
REMARK  Name = 
REMARK  7 active torsions:
REMARK  status: ('A' for Active; 'I' for Inactive)
REMARK    1  A    between atoms: C_1  and  O_2
REMARK    2  A    between atoms: O_2  and  C_3
REMARK    3  A    between atoms: C_5  and  C_6
REMARK    4  A    between atoms: N_8  and  C_9
REMARK    5  A    between atoms: C_9  and  C_10
REMARK    6  A    between atoms: C_13  and  C_14
REMARK    7  A    between atoms: C_23  and  C_24
REMARK                            x       y       z     vdW  Elec       q    Type
REMARK                         _______ _______ _______ _____ _____    ______ ____
ROOT
ATOM      1  C   UNL     1       2.078   6.422  20.140  0.00  0.00    +0.000 C 
ATOM      2  O   UNL     1       1.525   5.636  20.899  0.00  0.00    +0.000 OA
ATOM      3  N   UNL     1       1.999   7.789  20.267  0.00  0.00    +0.000 N 
ATOM      4  H   UNL     1       2.415   8.404  19.582  0.00  0.00    +0.000 HD
ENDROOT
BRANCH   1   7
ATOM      5  C   UNL     1       4.579   6.335  17.316  0.00  0.00    +0.000 A 
ATOM      6  C   UNL     1       3.774   6.771  18.378  0.00  0.00    +0.000 A 
ATOM      7  C   UNL     1       2.836   5.916  18.968  0.00  0.00    +0.000 A 
ATOM      8  C   UNL     1       2.643   4.637  18.449  0.00  0.00    +0.000 A 
ATOM      9  C   UNL     1       3.407   4.213  17.358  0.00  0.00    +0.000 A 
ATOM     10  C   UNL     1       4.392   5.041  16.783  0.00  0.00    +0.000 A 
BRANCH  10  11
ATOM     11  C   UNL     1       5.188   4.523  15.673  0.00  0.00    +0.000 A 
ATOM     12  C   UNL     1       4.973   4.528  14.275  0.00  0.00    +0.000 A 
ATOM     13  N   UNL     1       5.960   3.935  13.593  0.00  0.00    +0.000 NA
ATOM     14  N   UNL     1       6.818   3.558  14.552  0.00  0.00    +0.000 N 
ATOM     15  C   UNL     1       6.403   3.879  15.811  0.00  0.00    +0.000 A 
ATOM     16  H   UNL     1       7.671   3.083  14.274  0.00  0.00    +0.000 HD
ENDBRANCH  10  11
BRANCH   5  18
ATOM     17  C   UNL     1       6.792   7.165  17.460  0.00  0.00    +0.000 C 
ATOM     18  O   UNL     1       5.547   7.138  16.763  0.00  0.00    +0.000 OA
ENDBRANCH   5  18
ENDBRANCH   1   7
BRANCH   3  19
ATOM     19  C   UNL     1       1.249   8.414  21.334  0.00  0.00    +0.000 C 
BRANCH  19  20
ATOM     20  C   UNL     1       0.503   9.574  20.765  0.00  0.00    +0.000 A 
ATOM     21  C   UNL     1       0.607  10.884  21.188  0.00  0.00    +0.000 A 
ATOM     22  S   UNL     1      -0.425  11.884  20.267  0.00  0.00    +0.000 S 
ATOM     23  C   UNL     1      -0.934  10.516  19.343  0.00  0.00    +0.000 A 
ATOM     24  N   UNL     1      -0.378   9.374  19.707  0.00  0.00    +0.000 NA
BRANCH  23  25
ATOM     25  C   UNL     1      -1.949  10.658  18.283  0.00  0.00    +0.000 A 
ATOM     26  C   UNL     1      -3.083  11.473  18.431  0.00  0.00    +0.000 A 
ATOM     27  C   UNL     1      -4.043  11.564  17.417  0.00  0.00    +0.000 A 
ATOM     28  C   UNL     1      -3.882  10.845  16.237  0.00  0.00    +0.000 A 
ATOM     29  C   UNL     1      -2.754  10.043  16.062  0.00  0.00    +0.000 A 
ATOM     30  C   UNL     1      -1.794   9.958  17.076  0.00  0.00    +0.000 A 
ENDBRANCH  23  25
ENDBRANCH  19  20
ENDBRANCH   3  19
TORSDOF 6
ENDMDL
MODEL 8
REMARK VINA RESULT:      -7.6      2.814      3.957
REMARK  Name = 
REMARK  7 active torsions:
REMARK  status: ('A' for Active; 'I' for Inactive)
REMARK    1  A    between atoms: C_1  and  O_2
REMARK    2  A    between atoms: O_2  and  C_3
REMARK    3  A    between atoms: C_5  and  C_6
REMARK    4  A    between atoms: N_8  and  C_9
REMARK    5  A    between atoms: C_9  and  C_10
REMARK    6  A    between atoms: C_13  and  C_14
REMARK    7  A    between atoms: C_23  and  C_24
REMARK                            x       y       z     vdW  Elec       q    Type
REMARK                         _______ _______ _______ _____ _____    ______ ____
ROOT
ATOM      1  C   UNL     1       1.598   9.548  18.397  0.00  0.00    +0.000 C 
ATOM      2  O   UNL     1       2.209  10.325  17.675  0.00  0.00    +0.000 OA
ATOM      3  N   UNL     1       0.461   9.884  19.092  0.00  0.00    +0.000 N 
ATOM      4  H   UNL     1       0.022   9.233  19.729  0.00  0.00    +0.000 HD
ENDROOT
BRANCH   1   7
ATOM      5  C   UNL     1       3.447   6.323  17.748  0.00  0.00    +0.000 A 
ATOM      6  C   UNL     1       2.865   7.588  17.586  0.00  0.00    +0.000 A 
ATOM      7  C   UNL     1       2.113   8.172  18.612  0.00  0.00    +0.000 A 
ATOM      8  C   UNL     1       1.875   7.459  19.786  0.00  0.00    +0.000 A 
ATOM      9  C   UNL     1       2.410   6.177  19.936  0.00  0.00    +0.000 A 
ATOM     10  C   UNL     1       3.211   5.593  18.934  0.00  0.00    +0.000 A 
BRANCH  10  11
ATOM     11  C   UNL     1       3.778   4.267  19.168  0.00  0.00    +0.000 A 
ATOM     12  C   UNL     1       3.181   2.987  19.252  0.00  0.00    +0.000 A 
ATOM     13  N   UNL     1       4.067   2.013  19.488  0.00  0.00    +0.000 NA
ATOM     14  N   UNL     1       5.238   2.663  19.545  0.00  0.00    +0.000 N 
ATOM     15  C   UNL     1       5.121   4.010  19.367  0.00  0.00    +0.000 A 
ATOM     16  H   UNL     1       6.081   2.122  19.710  0.00  0.00    +0.000 HD
ENDBRANCH  10  11
BRANCH   5  18
ATOM     17  C   UNL     1       5.451   6.454  16.493  0.00  0.00    +0.000 C 
ATOM     18  O   UNL     1       4.237   5.758  16.777  0.00  0.00    +0.000 OA
ENDBRANCH   5  18
ENDBRANCH   1   7
BRANCH   3  19
ATOM     19  C   UNL     1      -0.119  11.207  19.013  0.00  0.00    +0.000 C 
BRANCH  19  20
ATOM     20  C   UNL     1      -1.458  11.093  18.366  0.00  0.00    +0.000 A 
ATOM     21  C   UNL     1      -1.741  10.377  17.220  0.00  0.00    +0.000 A 
ATOM     22  S   UNL     1      -3.396  10.523  16.828  0.00  0.00    +0.000 S 
ATOM     23  C   UNL     1      -3.644  11.513  18.222  0.00  0.00    +0.000 A 
ATOM     24  N   UNL     1      -2.554  11.736  18.934  0.00  0.00    +0.000 NA
BRANCH  23  25
ATOM     25  C   UNL     1      -4.972  12.082  18.515  0.00  0.00    +0.000 A 
ATOM     26  C   UNL     1      -6.035  12.026  17.599  0.00  0.00    +0.000 A 
ATOM     27  C   UNL     1      -7.275  12.600  17.896  0.00  0.00    +0.000 A 
ATOM     28  C   UNL     1      -7.475  13.237  19.118  0.00  0.00    +0.000 A 
ATOM     29  C   UNL     1      -6.439  13.287  20.050  0.00  0.00    +0.000 A 
ATOM     30  C   UNL     1      -5.200  12.708  19.751  0.00  0.00    +0.000 A 
ENDBRANCH  23  25
ENDBRANCH  19  20
ENDBRANCH   3  19
TORSDOF 6
ENDMDL
MODEL 9
REMARK VINA RESULT:      -7.5      2.678      3.842
REMARK  Name = 
REMARK  7 active torsions:
REMARK  status: ('A' for Active; 'I' for Inactive)
REMARK    1  A    between atoms: C_1  and  O_2
REMARK    2  A    between atoms: O_2  and  C_3
REMARK    3  A    between atoms: C_5  and  C_6
REMARK    4  A    between atoms: N_8  and  C_9
REMARK    5  A    between atoms: C_9  and  C_10
REMARK    6  A    between atoms: C_13  and  C_14
REMARK    7  A    between atoms: C_23  and  C_24
REMARK                            x       y       z     vdW  Elec       q    Type
REMARK                         _______ _______ _______ _____ _____    ______ ____
ROOT
ATOM      1  C   UNL     1       0.903  10.061  19.451  0.00  0.00    +0.000 C 
ATOM      2  O   UNL     1       0.535  10.189  20.613  0.00  0.00    +0.000 OA
ATOM      3  N   UNL     1       0.578  10.940  18.446  0.00  0.00    +0.000 N 
ATOM      4  H   UNL     1       0.847  10.764  17.488  0.00  0.00    +0.000 HD
ENDROOT
BRANCH   1   7
ATOM      5  C   UNL     1       2.453   6.624  19.618  0.00  0.00    +0.000 A 
ATOM      6  C   UNL     1       1.786   7.810  19.958  0.00  0.00    +0.000 A 
ATOM      7  C   UNL     1       1.694   8.870  19.050  0.00  0.00    +0.000 A 
ATOM      8  C   UNL     1       2.336   8.781  17.816  0.00  0.00    +0.000 A 
ATOM      9  C   UNL     1       3.045   7.622  17.489  0.00  0.00    +0.000 A 
ATOM     10  C   UNL     1       3.105   6.524  18.370  0.00  0.00    +0.000 A 
BRANCH  10  11
ATOM     11  C   UNL     1       3.825   5.324  17.952  0.00  0.00    +0.000 A 
ATOM     12  C   UNL     1       3.376   4.087  17.432  0.00  0.00    +0.000 A 
ATOM     13  N   UNL     1       4.376   3.234  17.177  0.00  0.00    +0.000 NA
ATOM     14  N   UNL     1       5.471   3.926  17.521  0.00  0.00    +0.000 N 
ATOM     15  C   UNL     1       5.199   5.176  17.995  0.00  0.00    +0.000 A 
ATOM     16  H   UNL     1       6.376   3.482  17.407  0.00  0.00    +0.000 HD
ENDBRANCH  10  11
BRANCH   5  18
ATOM     17  C   UNL     1       1.307   4.775  20.552  0.00  0.00    +0.000 C 
ATOM     18  O   UNL     1       2.502   5.549  20.473  0.00  0.00    +0.000 OA
ENDBRANCH   5  18
ENDBRANCH   1   7
BRANCH   3  19
ATOM     19  C   UNL     1      -0.231  12.113  18.691  0.00  0.00    +0.000 C 
BRANCH  19  20
ATOM     20  C   UNL     1      -1.642  11.795  18.324  0.00  0.00    +0.000 A 
ATOM     21  C   UNL     1      -2.050  11.160  17.168  0.00  0.00    +0.000 A 
ATOM     22  S   UNL     1      -3.748  11.001  17.151  0.00  0.00    +0.000 S 
ATOM     23  C   UNL     1      -3.840  11.767  18.696  0.00  0.00    +0.000 A 
ATOM     24  N   UNL     1      -2.673  12.135  19.194  0.00  0.00    +0.000 NA
BRANCH  23  25
ATOM     25  C   UNL     1      -5.144  12.016  19.338  0.00  0.00    +0.000 A 
ATOM     26  C   UNL     1      -5.393  13.154  20.123  0.00  0.00    +0.000 A 
ATOM     27  C   UNL     1      -6.632  13.347  20.742  0.00  0.00    +0.000 A 
ATOM     28  C   UNL     1      -7.646  12.408  20.581  0.00  0.00    +0.000 A 
ATOM     29  C   UNL     1      -7.427  11.281  19.790  0.00  0.00    +0.000 A 
ATOM     30  C   UNL     1      -6.188  11.092  19.169  0.00  0.00    +0.000 A 
ENDBRANCH  23  25
ENDBRANCH  19  20
ENDBRANCH   3  19
TORSDOF 6
ENDMDL
