MODEL 1
REMARK VINA RESULT:      -6.2      0.000      0.000
REMARK  Name = 
REMARK  11 active torsions:
REMARK  status: ('A' for Active; 'I' for Inactive)
REMARK    1  A    between atoms: C_1  and  C_2
REMARK    2  A    between atoms: N_4  and  C_5
REMARK    3  A    between atoms: C_5  and  C_6
REMARK    4  A    between atoms: C_5  and  C_7
REMARK    5  A    between atoms: C_11  and  C_12
REMARK    6  A    between atoms: C_13  and  N_14
REMARK    7  A    between atoms: C_15  and  O_17
REMARK    8  A    between atoms: O_17  and  C_18
REMARK    9  A    between atoms: C_18  and  C_19
REMARK   10  A    between atoms: C_18  and  C_20
REMARK   11  A    between atoms: C_18  and  C_21
REMARK                            x       y       z     vdW  Elec       q    Type
REMARK                         _______ _______ _______ _____ _____    ______ ____
ROOT
ATOM      1  C   UNL     1       4.431   5.987  17.779  0.00  0.00    +0.000 C 
ATOM      2  O   UNL     1       3.633   6.917  17.632  0.00  0.00    +0.000 OA
ATOM      3  N   UNL     1       5.791   6.175  17.646  0.00  0.00    +0.000 N 
ATOM      4  C   UNL     1       6.831   5.168  17.578  0.00  0.00    +0.000 C 
ATOM      5  C   UNL     1       8.023   5.811  18.274  0.00  0.00    +0.000 C 
ATOM      6  C   UNL     1       7.962   5.503  19.770  0.00  0.00    +0.000 C 
ATOM      7  C   UNL     1       7.879   7.299  17.892  0.00  0.00    +0.000 C 
ATOM      8  C   UNL     1       6.376   7.509  17.601  0.00  0.00    +0.000 C 
ENDROOT
BRANCH   7   9
ATOM      9  N   UNL     1       8.430   8.219  18.869  0.00  0.00    +0.000 N 
ATOM     10  C   UNL     1       8.691   9.513  18.551  0.00  0.00    +0.000 C 
ATOM     11  O   UNL     1       8.544   9.977  17.426  0.00  0.00    +0.000 OA
ATOM     12  H   UNL     1       8.418   8.007  19.861  0.00  0.00    +0.000 HD
BRANCH  10  13
ATOM     13  O   UNL     1       9.141  10.185  19.639  0.00  0.00    +0.000 OA
BRANCH  13  14
ATOM     14  C   UNL     1       9.856  11.436  19.446  0.00  0.00    +0.000 C 
ATOM     15  C   UNL     1       8.958  12.485  18.778  0.00  0.00    +0.000 C 
ATOM     16  C   UNL     1      10.219  11.943  20.851  0.00  0.00    +0.000 C 
ATOM     17  C   UNL     1      11.165  11.212  18.676  0.00  0.00    +0.000 C 
ENDBRANCH  13  14
ENDBRANCH  10  13
ENDBRANCH   7   9
BRANCH   1  18
ATOM     18  C   UNL     1       3.941   4.582  18.214  0.00  0.00    +0.000 C 
ATOM     19  C   UNL     1       3.472   3.694  17.067  0.00  0.00    +0.000 C 
BRANCH  18  23
ATOM     20  C   UNL     1       1.424   4.103  21.013  0.00  0.00    +0.000 C 
ATOM     21  C   UNL     1       2.648   3.831  20.184  0.00  0.00    +0.000 C 
ATOM     22  O   UNL     1       3.384   2.871  20.392  0.00  0.00    +0.000 OA
ATOM     23  N   UNL     1       2.849   4.733  19.171  0.00  0.00    +0.000 N 
ATOM     24  H   UNL     1       2.294   5.584  19.112  0.00  0.00    +0.000 HD
ENDBRANCH  18  23
ENDBRANCH   1  18
TORSDOF 5
ENDMDL
MODEL 2
REMARK VINA RESULT:      -6.1      5.073      6.352
REMARK  Name = 
REMARK  11 active torsions:
REMARK  status: ('A' for Active; 'I' for Inactive)
REMARK    1  A    between atoms: C_1  and  C_2
REMARK    2  A    between atoms: N_4  and  C_5
REMARK    3  A    between atoms: C_5  and  C_6
REMARK    4  A    between atoms: C_5  and  C_7
REMARK    5  A    between atoms: C_11  and  C_12
REMARK    6  A    between atoms: C_13  and  N_14
REMARK    7  A    between atoms: C_15  and  O_17
REMARK    8  A    between atoms: O_17  and  C_18
REMARK    9  A    between atoms: C_18  and  C_19
REMARK   10  A    between atoms: C_18  and  C_20
REMARK   11  A    between atoms: C_18  and  C_21
REMARK                            x       y       z     vdW  Elec       q    Type
REMARK                         _______ _______ _______ _____ _____    ______ ____
ROOT
ATOM      1  C   UNL     1       3.653   3.920  17.805  0.00  0.00    +0.000 C 
ATOM      2  O   UNL     1       3.607   3.696  16.591  0.00  0.00    +0.000 OA
ATOM      3  N   UNL     1       3.576   5.203  18.306  0.00  0.00    +0.000 N 
ATOM      4  C   UNL     1       3.821   5.649  19.663  0.00  0.00    +0.000 C 
ATOM      5  C   UNL     1       2.841   6.796  19.864  0.00  0.00    +0.000 C 
ATOM      6  C   UNL     1       1.518   6.245  20.393  0.00  0.00    +0.000 C 
ATOM      7  C   UNL     1       2.783   7.445  18.465  0.00  0.00    +0.000 C 
ATOM      8  C   UNL     1       3.163   6.324  17.471  0.00  0.00    +0.000 C 
ENDROOT
BRANCH   7   9
ATOM      9  N   UNL     1       1.525   8.103  18.166  0.00  0.00    +0.000 N 
ATOM     10  C   UNL     1       1.456   9.447  17.990  0.00  0.00    +0.000 C 
ATOM     11  O   UNL     1       2.415  10.199  18.126  0.00  0.00    +0.000 OA
ATOM     12  H   UNL     1       0.716   7.579  17.851  0.00  0.00    +0.000 HD
BRANCH  10  13
ATOM     13  O   UNL     1       0.192   9.816  17.664  0.00  0.00    +0.000 OA
BRANCH  13  14
ATOM     14  C   UNL     1      -0.613  10.514  18.653  0.00  0.00    +0.000 C 
ATOM     15  C   UNL     1      -0.378  12.029  18.583  0.00  0.00    +0.000 C 
ATOM     16  C   UNL     1      -2.080  10.240  18.283  0.00  0.00    +0.000 C 
ATOM     17  C   UNL     1      -0.372   9.950  20.061  0.00  0.00    +0.000 C 
ENDBRANCH  13  14
ENDBRANCH  10  13
ENDBRANCH   7   9
BRANCH   1  18
ATOM     18  C   UNL     1       3.706   2.754  18.825  0.00  0.00    +0.000 C 
ATOM     19  C   UNL     1       3.761   1.366  18.195  0.00  0.00    +0.000 C 
BRANCH  18  23
ATOM     20  C   UNL     1       1.298   2.595  21.753  0.00  0.00    +0.000 C 
ATOM     21  C   UNL     1       2.619   2.549  21.037  0.00  0.00    +0.000 C 
ATOM     22  O   UNL     1       3.667   2.266  21.607  0.00  0.00    +0.000 OA
ATOM     23  N   UNL     1       2.538   2.830  19.697  0.00  0.00    +0.000 N 
ATOM     24  H   UNL     1       1.676   3.186  19.290  0.00  0.00    +0.000 HD
ENDBRANCH  18  23
ENDBRANCH   1  18
TORSDOF 5
ENDMDL
MODEL 3
REMARK VINA RESULT:      -6.1      4.603      6.587
REMARK  Name = 
REMARK  11 active torsions:
REMARK  status: ('A' for Active; 'I' for Inactive)
REMARK    1  A    between atoms: C_1  and  C_2
REMARK    2  A    between atoms: N_4  and  C_5
REMARK    3  A    between atoms: C_5  and  C_6
REMARK    4  A    between atoms: C_5  and  C_7
REMARK    5  A    between atoms: C_11  and  C_12
REMARK    6  A    between atoms: C_13  and  N_14
REMARK    7  A    between atoms: C_15  and  O_17
REMARK    8  A    between atoms: O_17  and  C_18
REMARK    9  A    between atoms: C_18  and  C_19
REMARK   10  A    between atoms: C_18  and  C_20
REMARK   11  A    between atoms: C_18  and  C_21
REMARK                            x       y       z     vdW  Elec       q    Type
REMARK                         _______ _______ _______ _____ _____    ______ ____
ROOT
ATOM      1  C   UNL     1       5.025   5.831  16.410  0.00  0.00    +0.000 C 
ATOM      2  O   UNL     1       5.277   6.388  15.337  0.00  0.00    +0.000 OA
ATOM      3  N   UNL     1       4.387   6.495  17.436  0.00  0.00    +0.000 N 
ATOM      4  C   UNL     1       4.208   6.061  18.808  0.00  0.00    +0.000 C 
ATOM      5  C   UNL     1       2.851   6.624  19.206  0.00  0.00    +0.000 C 
ATOM      6  C   UNL     1       1.760   5.615  18.850  0.00  0.00    +0.000 C 
ATOM      7  C   UNL     1       2.798   7.962  18.439  0.00  0.00    +0.000 C 
ATOM      8  C   UNL     1       3.736   7.782  17.224  0.00  0.00    +0.000 C 
ENDROOT
BRANCH   7   9
ATOM      9  N   UNL     1       1.458   8.398  18.095  0.00  0.00    +0.000 N 
ATOM     10  C   UNL     1       1.148   9.716  17.994  0.00  0.00    +0.000 C 
ATOM     11  O   UNL     1       1.940  10.619  18.240  0.00  0.00    +0.000 OA
ATOM     12  H   UNL     1       0.780   7.758  17.694  0.00  0.00    +0.000 HD
BRANCH  10  13
ATOM     13  O   UNL     1      -0.142   9.869  17.606  0.00  0.00    +0.000 OA
BRANCH  13  14
ATOM     14  C   UNL     1      -1.064  10.564  18.489  0.00  0.00    +0.000 C 
ATOM     15  C   UNL     1      -1.025  12.078  18.244  0.00  0.00    +0.000 C 
ATOM     16  C   UNL     1      -2.470  10.057  18.127  0.00  0.00    +0.000 C 
ATOM     17  C   UNL     1      -0.800  10.203  19.958  0.00  0.00    +0.000 C 
ENDBRANCH  13  14
ENDBRANCH  10  13
ENDBRANCH   7   9
BRANCH   1  18
ATOM     18  C   UNL     1       5.332   4.325  16.613  0.00  0.00    +0.000 C 
ATOM     19  C   UNL     1       6.173   3.698  15.505  0.00  0.00    +0.000 C 
BRANCH  18  23
ATOM     20  C   UNL     1       2.483   2.074  17.714  0.00  0.00    +0.000 C 
ATOM     21  C   UNL     1       3.783   2.822  17.820  0.00  0.00    +0.000 C 
ATOM     22  O   UNL     1       4.519   2.729  18.797  0.00  0.00    +0.000 OA
ATOM     23  N   UNL     1       4.074   3.592  16.723  0.00  0.00    +0.000 N 
ATOM     24  H   UNL     1       3.382   3.745  15.993  0.00  0.00    +0.000 HD
ENDBRANCH  18  23
ENDBRANCH   1  18
TORSDOF 5
ENDMDL
MODEL 4
REMARK VINA RESULT:      -6.0      5.779      8.489
REMARK  Name = 
REMARK  11 active torsions:
REMARK  status: ('A' for Active; 'I' for Inactive)
REMARK    1  A    between atoms: C_1  and  C_2
REMARK    2  A    between atoms: N_4  and  C_5
REMARK    3  A    between atoms: C_5  and  C_6
REMARK    4  A    between atoms: C_5  and  C_7
REMARK    5  A    between atoms: C_11  and  C_12
REMARK    6  A    between atoms: C_13  and  N_14
REMARK    7  A    between atoms: C_15  and  O_17
REMARK    8  A    between atoms: O_17  and  C_18
REMARK    9  A    between atoms: C_18  and  C_19
REMARK   10  A    between atoms: C_18  and  C_20
REMARK   11  A    between atoms: C_18  and  C_21
REMARK                            x       y       z     vdW  Elec       q    Type
REMARK                         _______ _______ _______ _____ _____    ______ ____
ROOT
ATOM      1  C   UNL     1       2.336   7.334  18.845  0.00  0.00    +0.000 C 
ATOM      2  O   UNL     1       2.419   7.346  17.613  0.00  0.00    +0.000 OA
ATOM      3  N   UNL     1       1.806   8.400  19.542  0.00  0.00    +0.000 N 
ATOM      4  C   UNL     1       1.829   8.633  20.972  0.00  0.00    +0.000 C 
ATOM      5  C   UNL     1       0.510   9.337  21.259  0.00  0.00    +0.000 C 
ATOM      6  C   UNL     1      -0.569   8.293  21.548  0.00  0.00    +0.000 C 
ATOM      7  C   UNL     1       0.294  10.187  19.990  0.00  0.00    +0.000 C 
ATOM      8  C   UNL     1       1.073   9.464  18.868  0.00  0.00    +0.000 C 
ENDROOT
BRANCH   7   9
ATOM      9  N   UNL     1      -1.100  10.443  19.677  0.00  0.00    +0.000 N 
ATOM     10  C   UNL     1      -1.477  11.557  18.999  0.00  0.00    +0.000 C 
ATOM     11  O   UNL     1      -0.698  12.442  18.661  0.00  0.00    +0.000 OA
ATOM     12  H   UNL     1      -1.799   9.711  19.736  0.00  0.00    +0.000 HD
BRANCH  10  13
ATOM     13  O   UNL     1      -2.814  11.543  18.775  0.00  0.00    +0.000 OA
BRANCH  13  14
ATOM     14  C   UNL     1      -3.312  10.989  17.527  0.00  0.00    +0.000 C 
ATOM     15  C   UNL     1      -2.295  11.182  16.395  0.00  0.00    +0.000 C 
ATOM     16  C   UNL     1      -3.481   9.479  17.766  0.00  0.00    +0.000 C 
ATOM     17  C   UNL     1      -4.692  11.565  17.177  0.00  0.00    +0.000 C 
ENDBRANCH  13  14
ENDBRANCH  10  13
ENDBRANCH   7   9
BRANCH   1  18
ATOM     18  C   UNL     1       2.738   6.076  19.656  0.00  0.00    +0.000 C 
ATOM     19  C   UNL     1       4.191   5.648  19.476  0.00  0.00    +0.000 C 
BRANCH  18  23
ATOM     20  C   UNL     1       0.679   2.890  19.582  0.00  0.00    +0.000 C 
ATOM     21  C   UNL     1       1.504   3.998  20.177  0.00  0.00    +0.000 C 
ATOM     22  O   UNL     1       1.831   4.013  21.358  0.00  0.00    +0.000 OA
ATOM     23  N   UNL     1       1.868   4.966  19.277  0.00  0.00    +0.000 N 
ATOM     24  H   UNL     1       1.470   4.986  18.341  0.00  0.00    +0.000 HD
ENDBRANCH  18  23
ENDBRANCH   1  18
TORSDOF 5
ENDMDL
MODEL 5
REMARK VINA RESULT:      -6.0      0.280      1.014
REMARK  Name = 
REMARK  11 active torsions:
REMARK  status: ('A' for Active; 'I' for Inactive)
REMARK    1  A    between atoms: C_1  and  C_2
REMARK    2  A    between atoms: N_4  and  C_5
REMARK    3  A    between atoms: C_5  and  C_6
REMARK    4  A    between atoms: C_5  and  C_7
REMARK    5  A    between atoms: C_11  and  C_12
REMARK    6  A    between atoms: C_13  and  N_14
REMARK    7  A    between atoms: C_15  and  O_17
REMARK    8  A    between atoms: O_17  and  C_18
REMARK    9  A    between atoms: C_18  and  C_19
REMARK   10  A    between atoms: C_18  and  C_20
REMARK   11  A    between atoms: C_18  and  C_21
REMARK                            x       y       z     vdW  Elec       q    Type
REMARK                         _______ _______ _______ _____ _____    ______ ____
ROOT
ATOM      1  C   UNL     1       4.404   6.063  17.736  0.00  0.00    +0.000 C 
ATOM      2  O   UNL     1       3.606   6.995  17.598  0.00  0.00    +0.000 OA
ATOM      3  N   UNL     1       5.762   6.248  17.579  0.00  0.00    +0.000 N 
ATOM      4  C   UNL     1       6.798   5.238  17.499  0.00  0.00    +0.000 C 
ATOM      5  C   UNL     1       8.003   5.881  18.172  0.00  0.00    +0.000 C 
ATOM      6  C   UNL     1       7.966   5.580  19.670  0.00  0.00    +0.000 C 
ATOM      7  C   UNL     1       7.857   7.367  17.785  0.00  0.00    +0.000 C 
ATOM      8  C   UNL     1       6.349   7.580  17.517  0.00  0.00    +0.000 C 
ENDROOT
BRANCH   7   9
ATOM      9  N   UNL     1       8.426   8.291  18.748  0.00  0.00    +0.000 N 
ATOM     10  C   UNL     1       8.560   9.612  18.465  0.00  0.00    +0.000 C 
ATOM     11  O   UNL     1       8.275  10.104  17.379  0.00  0.00    +0.000 OA
ATOM     12  H   UNL     1       8.522   8.042  19.727  0.00  0.00    +0.000 HD
BRANCH  10  13
ATOM     13  O   UNL     1       9.058  10.276  19.537  0.00  0.00    +0.000 OA
BRANCH  13  14
ATOM     14  C   UNL     1       9.842  11.480  19.315  0.00  0.00    +0.000 C 
ATOM     15  C   UNL     1      10.656  11.844  20.563  0.00  0.00    +0.000 C 
ATOM     16  C   UNL     1      10.827  11.147  18.182  0.00  0.00    +0.000 C 
ATOM     17  C   UNL     1       8.953  12.638  18.838  0.00  0.00    +0.000 C 
ENDBRANCH  13  14
ENDBRANCH  10  13
ENDBRANCH   7   9
BRANCH   1  18
ATOM     18  C   UNL     1       3.918   4.662  18.186  0.00  0.00    +0.000 C 
ATOM     19  C   UNL     1       3.677   3.681  17.044  0.00  0.00    +0.000 C 
BRANCH  18  23
ATOM     20  C   UNL     1       1.011   4.204  20.581  0.00  0.00    +0.000 C 
ATOM     21  C   UNL     1       2.361   3.949  19.969  0.00  0.00    +0.000 C 
ATOM     22  O   UNL     1       3.091   3.037  20.343  0.00  0.00    +0.000 OA
ATOM     23  N   UNL     1       2.684   4.809  18.951  0.00  0.00    +0.000 N 
ATOM     24  H   UNL     1       2.112   5.628  18.759  0.00  0.00    +0.000 HD
ENDBRANCH  18  23
ENDBRANCH   1  18
TORSDOF 5
ENDMDL
MODEL 6
REMARK VINA RESULT:      -6.0      5.357      8.536
REMARK  Name = 
REMARK  11 active torsions:
REMARK  status: ('A' for Active; 'I' for Inactive)
REMARK    1  A    between atoms: C_1  and  C_2
REMARK    2  A    between atoms: N_4  and  C_5
REMARK    3  A    between atoms: C_5  and  C_6
REMARK    4  A    between atoms: C_5  and  C_7
REMARK    5  A    between atoms: C_11  and  C_12
REMARK    6  A    between atoms: C_13  and  N_14
REMARK    7  A    between atoms: C_15  and  O_17
REMARK    8  A    between atoms: O_17  and  C_18
REMARK    9  A    between atoms: C_18  and  C_19
REMARK   10  A    between atoms: C_18  and  C_20
REMARK   11  A    between atoms: C_18  and  C_21
REMARK                            x       y       z     vdW  Elec       q    Type
REMARK                         _______ _______ _______ _____ _____    ______ ____
ROOT
ATOM      1  C   UNL     1      -0.039  10.088  19.953  0.00  0.00    +0.000 C 
ATOM      2  O   UNL     1      -0.665  10.057  21.018  0.00  0.00    +0.000 OA
ATOM      3  N   UNL     1       1.077   9.303  19.750  0.00  0.00    +0.000 N 
ATOM      4  C   UNL     1       2.031   9.371  18.661  0.00  0.00    +0.000 C 
ATOM      5  C   UNL     1       2.452   7.925  18.440  0.00  0.00    +0.000 C 
ATOM      6  C   UNL     1       1.504   7.270  17.435  0.00  0.00    +0.000 C 
ATOM      7  C   UNL     1       2.421   7.338  19.866  0.00  0.00    +0.000 C 
ATOM      8  C   UNL     1       1.417   8.211  20.653  0.00  0.00    +0.000 C 
ENDROOT
BRANCH   7   9
ATOM      9  N   UNL     1       2.141   5.916  19.918  0.00  0.00    +0.000 N 
ATOM     10  C   UNL     1       3.135   4.996  19.827  0.00  0.00    +0.000 C 
ATOM     11  O   UNL     1       4.312   5.287  19.637  0.00  0.00    +0.000 OA
ATOM     12  H   UNL     1       1.251   5.564  20.254  0.00  0.00    +0.000 HD
BRANCH  10  13
ATOM     13  O   UNL     1       2.634   3.744  19.961  0.00  0.00    +0.000 OA
BRANCH  13  14
ATOM     14  C   UNL     1       2.310   2.986  18.763  0.00  0.00    +0.000 C 
ATOM     15  C   UNL     1       2.624   3.795  17.498  0.00  0.00    +0.000 C 
ATOM     16  C   UNL     1       3.224   1.749  18.778  0.00  0.00    +0.000 C 
ATOM     17  C   UNL     1       0.856   2.494  18.797  0.00  0.00    +0.000 C 
ENDBRANCH  13  14
ENDBRANCH  10  13
ENDBRANCH   7   9
BRANCH   1  18
ATOM     18  C   UNL     1      -0.541  10.943  18.762  0.00  0.00    +0.000 C 
ATOM     19  C   UNL     1      -0.105  12.404  18.806  0.00  0.00    +0.000 C 
BRANCH  18  23
ATOM     20  C   UNL     1      -4.167  10.600  17.696  0.00  0.00    +0.000 C 
ATOM     21  C   UNL     1      -2.670  10.512  17.580  0.00  0.00    +0.000 C 
ATOM     22  O   UNL     1      -2.110  10.155  16.549  0.00  0.00    +0.000 OA
ATOM     23  N   UNL     1      -2.000  10.886  18.716  0.00  0.00    +0.000 N 
ATOM     24  H   UNL     1      -2.499  11.050  19.587  0.00  0.00    +0.000 HD
ENDBRANCH  18  23
ENDBRANCH   1  18
TORSDOF 5
ENDMDL
MODEL 7
REMARK VINA RESULT:      -6.0      5.415      8.859
REMARK  Name = 
REMARK  11 active torsions:
REMARK  status: ('A' for Active; 'I' for Inactive)
REMARK    1  A    between atoms: C_1  and  C_2
REMARK    2  A    between atoms: N_4  and  C_5
REMARK    3  A    between atoms: C_5  and  C_6
REMARK    4  A    between atoms: C_5  and  C_7
REMARK    5  A    between atoms: C_11  and  C_12
REMARK    6  A    between atoms: C_13  and  N_14
REMARK    7  A    between atoms: C_15  and  O_17
REMARK    8  A    between atoms: O_17  and  C_18
REMARK    9  A    between atoms: C_18  and  C_19
REMARK   10  A    between atoms: C_18  and  C_20
REMARK   11  A    between atoms: C_18  and  C_21
REMARK                            x       y       z     vdW  Elec       q    Type
REMARK                         _______ _______ _______ _____ _____    ______ ____
ROOT
ATOM      1  C   UNL     1      -0.155  10.150  21.189  0.00  0.00    +0.000 C 
ATOM      2  O   UNL     1      -0.599   9.620  22.213  0.00  0.00    +0.000 OA
ATOM      3  N   UNL     1       0.899   9.598  20.491  0.00  0.00    +0.000 N 
ATOM      4  C   UNL     1       1.664  10.191  19.412  0.00  0.00    +0.000 C 
ATOM      5  C   UNL     1       2.018   9.014  18.513  0.00  0.00    +0.000 C 
ATOM      6  C   UNL     1       0.908   8.814  17.481  0.00  0.00    +0.000 C 
ATOM      7  C   UNL     1       2.210   7.861  19.519  0.00  0.00    +0.000 C 
ATOM      8  C   UNL     1       1.363   8.242  20.754  0.00  0.00    +0.000 C 
ENDROOT
BRANCH   7   9
ATOM      9  N   UNL     1       1.918   6.546  18.980  0.00  0.00    +0.000 N 
ATOM     10  C   UNL     1       2.830   5.543  19.032  0.00  0.00    +0.000 C 
ATOM     11  O   UNL     1       3.967   5.683  19.472  0.00  0.00    +0.000 OA
ATOM     12  H   UNL     1       0.968   6.262  18.766  0.00  0.00    +0.000 HD
BRANCH  10  13
ATOM     13  O   UNL     1       2.307   4.401  18.522  0.00  0.00    +0.000 OA
BRANCH  13  14
ATOM     14  C   UNL     1       1.928   3.334  19.434  0.00  0.00    +0.000 C 
ATOM     15  C   UNL     1       1.288   3.900  20.708  0.00  0.00    +0.000 C 
ATOM     16  C   UNL     1       0.868   2.497  18.697  0.00  0.00    +0.000 C 
ATOM     17  C   UNL     1       3.121   2.416  19.736  0.00  0.00    +0.000 C 
ENDBRANCH  13  14
ENDBRANCH  10  13
ENDBRANCH   7   9
BRANCH   1  18
ATOM     18  C   UNL     1      -0.830  11.410  20.591  0.00  0.00    +0.000 C 
ATOM     19  C   UNL     1      -1.759  12.145  21.552  0.00  0.00    +0.000 C 
BRANCH  18  23
ATOM     20  C   UNL     1      -2.444  11.262  17.160  0.00  0.00    +0.000 C 
ATOM     21  C   UNL     1      -1.529  11.759  18.244  0.00  0.00    +0.000 C 
ATOM     22  O   UNL     1      -0.812  12.743  18.101  0.00  0.00    +0.000 OA
ATOM     23  N   UNL     1      -1.588  11.027  19.403  0.00  0.00    +0.000 N 
ATOM     24  H   UNL     1      -2.094  10.145  19.439  0.00  0.00    +0.000 HD
ENDBRANCH  18  23
ENDBRANCH   1  18
TORSDOF 5
ENDMDL
MODEL 8
REMARK VINA RESULT:      -5.9      3.899      7.001
REMARK  Name = 
REMARK  11 active torsions:
REMARK  status: ('A' for Active; 'I' for Inactive)
REMARK    1  A    between atoms: C_1  and  C_2
REMARK    2  A    between atoms: N_4  and  C_5
REMARK    3  A    between atoms: C_5  and  C_6
REMARK    4  A    between atoms: C_5  and  C_7
REMARK    5  A    between atoms: C_11  and  C_12
REMARK    6  A    between atoms: C_13  and  N_14
REMARK    7  A    between atoms: C_15  and  O_17
REMARK    8  A    between atoms: O_17  and  C_18
REMARK    9  A    between atoms: C_18  and  C_19
REMARK   10  A    between atoms: C_18  and  C_20
REMARK   11  A    between atoms: C_18  and  C_21
REMARK                            x       y       z     vdW  Elec       q    Type
REMARK                         _______ _______ _______ _____ _____    ______ ____
ROOT
ATOM      1  C   UNL     1       5.552   5.311  18.699  0.00  0.00    +0.000 C 
ATOM      2  O   UNL     1       6.160   4.978  19.722  0.00  0.00    +0.000 OA
ATOM      3  N   UNL     1       4.228   5.693  18.739  0.00  0.00    +0.000 N 
ATOM      4  C   UNL     1       3.325   5.907  17.626  0.00  0.00    +0.000 C 
ATOM      5  C   UNL     1       2.422   7.042  18.087  0.00  0.00    +0.000 C 
ATOM      6  C   UNL     1       3.053   8.380  17.701  0.00  0.00    +0.000 C 
ATOM      7  C   UNL     1       2.288   6.779  19.601  0.00  0.00    +0.000 C 
ATOM      8  C   UNL     1       3.557   5.989  19.998  0.00  0.00    +0.000 C 
ENDROOT
BRANCH   7   9
ATOM      9  N   UNL     1       2.059   7.972  20.394  0.00  0.00    +0.000 N 
ATOM     10  C   UNL     1       0.955   8.100  21.174  0.00  0.00    +0.000 C 
ATOM     11  O   UNL     1       0.058   7.264  21.220  0.00  0.00    +0.000 OA
ATOM     12  H   UNL     1       2.803   8.635  20.580  0.00  0.00    +0.000 HD
BRANCH  10  13
ATOM     13  O   UNL     1       0.993   9.268  21.860  0.00  0.00    +0.000 OA
BRANCH  13  14
ATOM     14  C   UNL     1       0.136  10.362  21.433  0.00  0.00    +0.000 C 
ATOM     15  C   UNL     1      -0.824  10.778  22.555  0.00  0.00    +0.000 C 
ATOM     16  C   UNL     1       1.068  11.548  21.136  0.00  0.00    +0.000 C 
ATOM     17  C   UNL     1      -0.603  10.011  20.133  0.00  0.00    +0.000 C 
ENDBRANCH  13  14
ENDBRANCH  10  13
ENDBRANCH   7   9
BRANCH   1  18
ATOM     18  C   UNL     1       6.285   5.405  17.336  0.00  0.00    +0.000 C 
ATOM     19  C   UNL     1       7.505   4.498  17.212  0.00  0.00    +0.000 C 
BRANCH  18  23
ATOM     20  C   UNL     1       7.892   8.835  17.557  0.00  0.00    +0.000 C 
ATOM     21  C   UNL     1       7.665   7.384  17.879  0.00  0.00    +0.000 C 
ATOM     22  O   UNL     1       8.280   6.803  18.766  0.00  0.00    +0.000 OA
ATOM     23  N   UNL     1       6.699   6.787  17.111  0.00  0.00    +0.000 N 
ATOM     24  H   UNL     1       6.305   7.264  16.303  0.00  0.00    +0.000 HD
ENDBRANCH  18  23
ENDBRANCH   1  18
TORSDOF 5
ENDMDL
MODEL 9
REMARK VINA RESULT:      -5.8      1.001      1.301
REMARK  Name = 
REMARK  11 active torsions:
REMARK  status: ('A' for Active; 'I' for Inactive)
REMARK    1  A    between atoms: C_1  and  C_2
REMARK    2  A    between atoms: N_4  and  C_5
REMARK    3  A    between atoms: C_5  and  C_6
REMARK    4  A    between atoms: C_5  and  C_7
REMARK    5  A    between atoms: C_11  and  C_12
REMARK    6  A    between atoms: C_13  and  N_14
REMARK    7  A    between atoms: C_15  and  O_17
REMARK    8  A    between atoms: O_17  and  C_18
REMARK    9  A    between atoms: C_18  and  C_19
REMARK   10  A    between atoms: C_18  and  C_20
REMARK   11  A    between atoms: C_18  and  C_21
REMARK                            x       y       z     vdW  Elec       q    Type
REMARK                         _______ _______ _______ _____ _____    ______ ____
ROOT
ATOM      1  C   UNL     1       3.845   5.642  18.339  0.00  0.00    +0.000 C 
ATOM      2  O   UNL     1       3.131   6.500  18.867  0.00  0.00    +0.000 OA
ATOM      3  N   UNL     1       5.005   5.978  17.672  0.00  0.00    +0.000 N 
ATOM      4  C   UNL     1       5.831   5.132  16.833  0.00  0.00    +0.000 C 
ATOM      5  C   UNL     1       7.248   5.630  17.077  0.00  0.00    +0.000 C 
ATOM      6  C   UNL     1       7.853   4.875  18.260  0.00  0.00    +0.000 C 
ATOM      7  C   UNL     1       7.046   7.146  17.286  0.00  0.00    +0.000 C 
ATOM      8  C   UNL     1       5.593   7.306  17.786  0.00  0.00    +0.000 C 
ENDROOT
BRANCH   7   9
ATOM      9  N   UNL     1       8.041   7.766  18.141  0.00  0.00    +0.000 N 
ATOM     10  C   UNL     1       8.250   9.107  18.122  0.00  0.00    +0.000 C 
ATOM     11  O   UNL     1       7.673   9.872  17.357  0.00  0.00    +0.000 OA
ATOM     12  H   UNL     1       8.440   7.273  18.932  0.00  0.00    +0.000 HD
BRANCH  10  13
ATOM     13  O   UNL     1       9.181   9.453  19.046  0.00  0.00    +0.000 OA
BRANCH  13  14
ATOM     14  C   UNL     1       9.493  10.860  19.235  0.00  0.00    +0.000 C 
ATOM     15  C   UNL     1       9.153  11.311  20.661  0.00  0.00    +0.000 C 
ATOM     16  C   UNL     1      11.013  10.991  19.042  0.00  0.00    +0.000 C 
ATOM     17  C   UNL     1       8.809  11.727  18.169  0.00  0.00    +0.000 C 
ENDBRANCH  13  14
ENDBRANCH  10  13
ENDBRANCH   7   9
BRANCH   1  18
ATOM     18  C   UNL     1       3.514   4.135  18.487  0.00  0.00    +0.000 C 
ATOM     19  C   UNL     1       2.768   3.533  17.301  0.00  0.00    +0.000 C 
BRANCH  18  23
ATOM     20  C   UNL     1       2.046   2.860  21.746  0.00  0.00    +0.000 C 
ATOM     21  C   UNL     1       3.031   2.971  20.615  0.00  0.00    +0.000 C 
ATOM     22  O   UNL     1       4.013   2.242  20.524  0.00  0.00    +0.000 OA
ATOM     23  N   UNL     1       2.717   3.938  19.695  0.00  0.00    +0.000 N 
ATOM     24  H   UNL     1       1.970   4.605  19.872  0.00  0.00    +0.000 HD
ENDBRANCH  18  23
ENDBRANCH   1  18
TORSDOF 5
ENDMDL
