MODEL 1
REMARK VINA RESULT:      -8.7      0.000      0.000
REMARK  Name = 
REMARK  6 active torsions:
REMARK  status: ('A' for Active; 'I' for Inactive)
REMARK    1  A    between atoms: C_1  and  C_2
REMARK    2  A    between atoms: C_10  and  C_11
REMARK    3  A    between atoms: C_11  and  N_12
REMARK    4  A    between atoms: C_13  and  C_14
REMARK    5  A    between atoms: C_14  and  O_16
REMARK    6  A    between atoms: C_17  and  C_18
REMARK                            x       y       z     vdW  Elec       q    Type
REMARK                         _______ _______ _______ _____ _____    ______ ____
ROOT
ATOM      1  N   UNL     1      -0.363  11.077  19.616  0.00  0.00    +0.000 N 
ATOM      2  C   UNL     1      -0.855  11.899  20.644  0.00  0.00    +0.000 A 
ATOM      3  C   UNL     1      -2.176  12.231  20.304  0.00  0.00    +0.000 A 
ATOM      4  C   UNL     1      -2.446  11.585  19.077  0.00  0.00    +0.000 A 
ATOM      5  C   UNL     1      -3.588  11.625  18.313  0.00  0.00    +0.000 A 
ATOM      6  O   UNL     1      -4.664  12.335  18.614  0.00  0.00    +0.000 OA
ATOM      7  C   UNL     1      -5.538  12.136  17.582  0.00  0.00    +0.000 A 
ATOM      8  C   UNL     1      -4.996  11.278  16.642  0.00  0.00    +0.000 A 
ATOM      9  C   UNL     1      -3.711  10.933  17.124  0.00  0.00    +0.000 A 
ATOM     10  C   UNL     1      -2.617  10.144  16.726  0.00  0.00    +0.000 A 
ATOM     11  F   UNL     1      -2.675   9.438  15.587  0.00  0.00    +0.000 F 
ATOM     12  C   UNL     1      -1.429  10.082  17.496  0.00  0.00    +0.000 A 
ATOM     13  C   UNL     1      -1.355  10.844  18.677  0.00  0.00    +0.000 A 
ENDROOT
BRANCH   3  14
ATOM     14  C   UNL     1      -3.031  13.081  21.074  0.00  0.00    +0.000 A 
ATOM     15  C   UNL     1      -3.989  12.620  21.905  0.00  0.00    +0.000 A 
ATOM     16  C   UNL     1      -4.801  13.511  22.699  0.00  0.00    +0.000 A 
ATOM     17  C   UNL     1      -4.614  14.833  22.620  0.00  0.00    +0.000 A 
ATOM     18  N   UNL     1      -3.662  15.345  21.778  0.00  0.00    +0.000 N 
ATOM     19  C   UNL     1      -2.834  14.576  20.989  0.00  0.00    +0.000 A 
ATOM     20  O   UNL     1      -1.970  15.090  20.281  0.00  0.00    +0.000 OA
ATOM     21  H   UNL     1      -3.514  16.345  21.723  0.00  0.00    +0.000 HD
ENDBRANCH   3  14
BRANCH   2  22
ATOM     22  C   UNL     1      -0.192  12.254  21.889  0.00  0.00    +0.000 C 
ATOM     23  O   UNL     1      -0.446  11.774  22.984  0.00  0.00    +0.000 OA
BRANCH  22  24
ATOM     24  O   UNL     1       0.756  13.204  21.742  0.00  0.00    +0.000 OA
ATOM     25  H   UNL     1       0.719  13.626  20.868  0.00  0.00    +0.000 HD
ENDBRANCH  22  24
ENDBRANCH   2  22
BRANCH   1  26
ATOM     26  C   UNL     1       1.010  10.640  19.388  0.00  0.00    +0.000 C 
BRANCH  26  36
ATOM     27  C   UNL     1       0.237   8.659  21.809  0.00  0.00    +0.000 C 
ATOM     28  C   UNL     1       1.106   8.312  20.629  0.00  0.00    +0.000 A 
ATOM     29  C   UNL     1       1.672   7.012  20.649  0.00  0.00    +0.000 A 
ATOM     30  C   UNL     1       2.449   6.591  19.571  0.00  0.00    +0.000 A 
ATOM     31  N   UNL     1       3.110   5.422  19.310  0.00  0.00    +0.000 N 
ATOM     32  N   UNL     1       3.722   5.392  18.112  0.00  0.00    +0.000 NA
ATOM     33  C   UNL     1       3.458   6.597  17.601  0.00  0.00    +0.000 A 
ATOM     34  C   UNL     1       2.681   7.395  18.466  0.00  0.00    +0.000 A 
ATOM     35  C   UNL     1       2.154   8.695  18.459  0.00  0.00    +0.000 A 
ATOM     36  C   UNL     1       1.387   9.185  19.555  0.00  0.00    +0.000 A 
ATOM     37  H   UNL     1       3.183   4.612  19.913  0.00  0.00    +0.000 HD
ENDBRANCH  26  36
ENDBRANCH   1  26
TORSDOF 5
ENDMDL
MODEL 2
REMARK VINA RESULT:      -8.6      0.929      1.372
REMARK  Name = 
REMARK  6 active torsions:
REMARK  status: ('A' for Active; 'I' for Inactive)
REMARK    1  A    between atoms: C_1  and  C_2
REMARK    2  A    between atoms: C_10  and  C_11
REMARK    3  A    between atoms: C_11  and  N_12
REMARK    4  A    between atoms: C_13  and  C_14
REMARK    5  A    between atoms: C_14  and  O_16
REMARK    6  A    between atoms: C_17  and  C_18
REMARK                            x       y       z     vdW  Elec       q    Type
REMARK                         _______ _______ _______ _____ _____    ______ ____
ROOT
ATOM      1  N   UNL     1      -0.560  11.514  19.831  0.00  0.00    +0.000 N 
ATOM      2  C   UNL     1      -0.956  12.447  20.806  0.00  0.00    +0.000 A 
ATOM      3  C   UNL     1      -2.307  12.740  20.566  0.00  0.00    +0.000 A 
ATOM      4  C   UNL     1      -2.692  11.963  19.450  0.00  0.00    +0.000 A 
ATOM      5  C   UNL     1      -3.905  11.919  18.805  0.00  0.00    +0.000 A 
ATOM      6  O   UNL     1      -4.952  12.660  19.132  0.00  0.00    +0.000 OA
ATOM      7  C   UNL     1      -5.922  12.348  18.221  0.00  0.00    +0.000 A 
ATOM      8  C   UNL     1      -5.469  11.391  17.332  0.00  0.00    +0.000 A 
ATOM      9  C   UNL     1      -4.139  11.099  17.718  0.00  0.00    +0.000 A 
ATOM     10  C   UNL     1      -3.082  10.269  17.302  0.00  0.00    +0.000 A 
ATOM     11  F   UNL     1      -3.246   9.441  16.260  0.00  0.00    +0.000 F 
ATOM     12  C   UNL     1      -1.822  10.292  17.951  0.00  0.00    +0.000 A 
ATOM     13  C   UNL     1      -1.639  11.180  19.028  0.00  0.00    +0.000 A 
ENDROOT
BRANCH   3  14
ATOM     14  C   UNL     1      -3.090  13.672  21.319  0.00  0.00    +0.000 A 
ATOM     15  C   UNL     1      -3.287  14.953  20.945  0.00  0.00    +0.000 A 
ATOM     16  C   UNL     1      -4.121  15.848  21.709  0.00  0.00    +0.000 A 
ATOM     17  C   UNL     1      -4.722  15.414  22.823  0.00  0.00    +0.000 A 
ATOM     18  N   UNL     1      -4.538  14.124  23.247  0.00  0.00    +0.000 N 
ATOM     19  C   UNL     1      -3.769  13.194  22.580  0.00  0.00    +0.000 A 
ATOM     20  O   UNL     1      -3.671  12.039  22.988  0.00  0.00    +0.000 OA
ATOM     21  H   UNL     1      -4.999  13.791  24.084  0.00  0.00    +0.000 HD
ENDBRANCH   3  14
BRANCH   2  22
ATOM     22  C   UNL     1      -0.176  12.936  21.931  0.00  0.00    +0.000 C 
ATOM     23  O   UNL     1       0.731  13.752  21.859  0.00  0.00    +0.000 OA
BRANCH  22  24
ATOM     24  O   UNL     1      -0.535  12.390  23.114  0.00  0.00    +0.000 OA
ATOM     25  H   UNL     1       0.136  11.772  23.449  0.00  0.00    +0.000 HD
ENDBRANCH  22  24
ENDBRANCH   2  22
BRANCH   1  26
ATOM     26  C   UNL     1       0.787  11.053  19.517  0.00  0.00    +0.000 C 
BRANCH  26  36
ATOM     27  C   UNL     1       0.107   9.149  22.027  0.00  0.00    +0.000 C 
ATOM     28  C   UNL     1       0.923   8.762  20.821  0.00  0.00    +0.000 A 
ATOM     29  C   UNL     1       1.482   7.459  20.856  0.00  0.00    +0.000 A 
ATOM     30  C   UNL     1       2.210   7.001  19.759  0.00  0.00    +0.000 A 
ATOM     31  N   UNL     1       2.853   5.821  19.505  0.00  0.00    +0.000 N 
ATOM     32  N   UNL     1       3.412   5.751  18.284  0.00  0.00    +0.000 NA
ATOM     33  C   UNL     1       3.133   6.942  17.748  0.00  0.00    +0.000 A 
ATOM     34  C   UNL     1       2.398   7.770  18.621  0.00  0.00    +0.000 A 
ATOM     35  C   UNL     1       1.879   9.073  18.599  0.00  0.00    +0.000 A 
ATOM     36  C   UNL     1       1.162   9.601  19.711  0.00  0.00    +0.000 A 
ATOM     37  H   UNL     1       2.947   5.028  20.128  0.00  0.00    +0.000 HD
ENDBRANCH  26  36
ENDBRANCH   1  26
TORSDOF 5
ENDMDL
MODEL 3
REMARK VINA RESULT:      -8.1      1.269      1.620
REMARK  Name = 
REMARK  6 active torsions:
REMARK  status: ('A' for Active; 'I' for Inactive)
REMARK    1  A    between atoms: C_1  and  C_2
REMARK    2  A    between atoms: C_10  and  C_11
REMARK    3  A    between atoms: C_11  and  N_12
REMARK    4  A    between atoms: C_13  and  C_14
REMARK    5  A    between atoms: C_14  and  O_16
REMARK    6  A    between atoms: C_17  and  C_18
REMARK                            x       y       z     vdW  Elec       q    Type
REMARK                         _______ _______ _______ _____ _____    ______ ____
ROOT
ATOM      1  N   UNL     1       0.205  10.747  18.927  0.00  0.00    +0.000 N 
ATOM      2  C   UNL     1       0.082  11.634  20.011  0.00  0.00    +0.000 A 
ATOM      3  C   UNL     1      -1.254  12.062  20.039  0.00  0.00    +0.000 A 
ATOM      4  C   UNL     1      -1.904  11.408  18.968  0.00  0.00    +0.000 A 
ATOM      5  C   UNL     1      -3.210  11.520  18.554  0.00  0.00    +0.000 A 
ATOM      6  O   UNL     1      -4.105  12.323  19.109  0.00  0.00    +0.000 OA
ATOM      7  C   UNL     1      -5.246  12.168  18.373  0.00  0.00    +0.000 A 
ATOM      8  C   UNL     1      -5.054  11.245  17.362  0.00  0.00    +0.000 A 
ATOM      9  C   UNL     1      -3.712  10.809  17.481  0.00  0.00    +0.000 A 
ATOM     10  C   UNL     1      -2.834   9.923  16.832  0.00  0.00    +0.000 A 
ATOM     11  F   UNL     1      -3.260   9.194  15.790  0.00  0.00    +0.000 F 
ATOM     12  C   UNL     1      -1.484   9.786  17.240  0.00  0.00    +0.000 A 
ATOM     13  C   UNL     1      -1.026  10.571  18.316  0.00  0.00    +0.000 A 
ENDROOT
BRANCH   3  14
ATOM     14  C   UNL     1      -1.795  12.999  20.975  0.00  0.00    +0.000 A 
ATOM     15  C   UNL     1      -2.068  14.284  20.670  0.00  0.00    +0.000 A 
ATOM     16  C   UNL     1      -2.656  15.186  21.631  0.00  0.00    +0.000 A 
ATOM     17  C   UNL     1      -2.943  14.753  22.864  0.00  0.00    +0.000 A 
ATOM     18  N   UNL     1      -2.669  13.459  23.221  0.00  0.00    +0.000 N 
ATOM     19  C   UNL     1      -2.117  12.524  22.372  0.00  0.00    +0.000 A 
ATOM     20  O   UNL     1      -1.929  11.365  22.736  0.00  0.00    +0.000 OA
ATOM     21  H   UNL     1      -2.893  13.128  24.151  0.00  0.00    +0.000 HD
ENDBRANCH   3  14
BRANCH   2  22
ATOM     22  C   UNL     1       1.093  11.967  21.002  0.00  0.00    +0.000 C 
ATOM     23  O   UNL     1       1.864  12.913  20.933  0.00  0.00    +0.000 OA
BRANCH  22  24
ATOM     24  O   UNL     1       1.128  11.108  22.045  0.00  0.00    +0.000 OA
ATOM     25  H   UNL     1       1.819  11.342  22.687  0.00  0.00    +0.000 HD
ENDBRANCH  22  24
ENDBRANCH   2  22
BRANCH   1  26
ATOM     26  C   UNL     1       1.423  10.195  18.346  0.00  0.00    +0.000 C 
BRANCH  26  36
ATOM     27  C   UNL     1       0.575   8.428  20.905  0.00  0.00    +0.000 C 
ATOM     28  C   UNL     1       1.556   8.020  19.836  0.00  0.00    +0.000 A 
ATOM     29  C   UNL     1       2.195   6.770  20.040  0.00  0.00    +0.000 A 
ATOM     30  C   UNL     1       3.080   6.293  19.076  0.00  0.00    +0.000 A 
ATOM     31  N   UNL     1       3.828   5.151  18.992  0.00  0.00    +0.000 N 
ATOM     32  N   UNL     1       4.535   5.038  17.854  0.00  0.00    +0.000 NA
ATOM     33  C   UNL     1       4.243   6.162  17.196  0.00  0.00    +0.000 A 
ATOM     34  C   UNL     1       3.352   6.991  17.909  0.00  0.00    +0.000 A 
ATOM     35  C   UNL     1       2.752   8.245  17.722  0.00  0.00    +0.000 A 
ATOM     36  C   UNL     1       1.871   8.793  18.698  0.00  0.00    +0.000 A 
ATOM     37  H   UNL     1       3.900   4.414  19.684  0.00  0.00    +0.000 HD
ENDBRANCH  26  36
ENDBRANCH   1  26
TORSDOF 5
ENDMDL
MODEL 4
REMARK VINA RESULT:      -8.0      1.867      2.582
REMARK  Name = 
REMARK  6 active torsions:
REMARK  status: ('A' for Active; 'I' for Inactive)
REMARK    1  A    between atoms: C_1  and  C_2
REMARK    2  A    between atoms: C_10  and  C_11
REMARK    3  A    between atoms: C_11  and  N_12
REMARK    4  A    between atoms: C_13  and  C_14
REMARK    5  A    between atoms: C_14  and  O_16
REMARK    6  A    between atoms: C_17  and  C_18
REMARK                            x       y       z     vdW  Elec       q    Type
REMARK                         _______ _______ _______ _____ _____    ______ ____
ROOT
ATOM      1  N   UNL     1      -1.921  12.544  20.506  0.00  0.00    +0.000 N 
ATOM      2  C   UNL     1      -2.442  13.317  21.558  0.00  0.00    +0.000 A 
ATOM      3  C   UNL     1      -3.826  13.414  21.347  0.00  0.00    +0.000 A 
ATOM      4  C   UNL     1      -4.102  12.682  20.170  0.00  0.00    +0.000 A 
ATOM      5  C   UNL     1      -5.303  12.503  19.527  0.00  0.00    +0.000 A 
ATOM      6  O   UNL     1      -6.448  13.040  19.918  0.00  0.00    +0.000 OA
ATOM      7  C   UNL     1      -7.372  12.658  18.986  0.00  0.00    +0.000 A 
ATOM      8  C   UNL     1      -6.789  11.862  18.017  0.00  0.00    +0.000 A 
ATOM      9  C   UNL     1      -5.423  11.751  18.374  0.00  0.00    +0.000 A 
ATOM     10  C   UNL     1      -4.256  11.135  17.886  0.00  0.00    +0.000 A 
ATOM     11  F   UNL     1      -4.306  10.383  16.777  0.00  0.00    +0.000 F 
ATOM     12  C   UNL     1      -3.006  11.301  18.532  0.00  0.00    +0.000 A 
ATOM     13  C   UNL     1      -2.946  12.114  19.680  0.00  0.00    +0.000 A 
ENDROOT
BRANCH   3  14
ATOM     14  C   UNL     1      -4.733  14.144  22.179  0.00  0.00    +0.000 A 
ATOM     15  C   UNL     1      -5.074  15.430  21.959  0.00  0.00    +0.000 A 
ATOM     16  C   UNL     1      -6.028  16.118  22.795  0.00  0.00    +0.000 A 
ATOM     17  C   UNL     1      -6.597  15.479  23.824  0.00  0.00    +0.000 A 
ATOM     18  N   UNL     1      -6.269  14.176  24.091  0.00  0.00    +0.000 N 
ATOM     19  C   UNL     1      -5.378  13.435  23.346  0.00  0.00    +0.000 A 
ATOM     20  O   UNL     1      -5.150  12.256  23.611  0.00  0.00    +0.000 OA
ATOM     21  H   UNL     1      -6.705  13.688  24.864  0.00  0.00    +0.000 HD
ENDBRANCH   3  14
BRANCH   2  22
ATOM     22  C   UNL     1      -1.730  13.827  22.720  0.00  0.00    +0.000 C 
ATOM     23  O   UNL     1      -1.730  13.312  23.828  0.00  0.00    +0.000 OA
BRANCH  22  24
ATOM     24  O   UNL     1      -1.051  14.969  22.477  0.00  0.00    +0.000 OA
ATOM     25  H   UNL     1      -0.934  15.502  23.281  0.00  0.00    +0.000 HD
ENDBRANCH  22  24
ENDBRANCH   2  22
BRANCH   1  26
ATOM     26  C   UNL     1      -0.524  12.328  20.150  0.00  0.00    +0.000 C 
BRANCH  26  36
ATOM     27  C   UNL     1      -0.499  10.289  22.646  0.00  0.00    +0.000 C 
ATOM     28  C   UNL     1       0.145  10.051  21.305  0.00  0.00    +0.000 A 
ATOM     29  C   UNL     1       0.876   8.841  21.186  0.00  0.00    +0.000 A 
ATOM     30  C   UNL     1       1.463   8.517  19.964  0.00  0.00    +0.000 A 
ATOM     31  N   UNL     1       2.209   7.447  19.551  0.00  0.00    +0.000 N 
ATOM     32  N   UNL     1       2.557   7.487  18.253  0.00  0.00    +0.000 NA
ATOM     33  C   UNL     1       2.031   8.638  17.827  0.00  0.00    +0.000 A 
ATOM     34  C   UNL     1       1.348   9.331  18.848  0.00  0.00    +0.000 A 
ATOM     35  C   UNL     1       0.658  10.547  18.973  0.00  0.00    +0.000 A 
ATOM     36  C   UNL     1       0.075  10.940  20.212  0.00  0.00    +0.000 A 
ATOM     37  H   UNL     1       2.515   6.662  20.113  0.00  0.00    +0.000 HD
ENDBRANCH  26  36
ENDBRANCH   1  26
TORSDOF 5
ENDMDL
MODEL 5
REMARK VINA RESULT:      -7.7      1.796      2.484
REMARK  Name = 
REMARK  6 active torsions:
REMARK  status: ('A' for Active; 'I' for Inactive)
REMARK    1  A    between atoms: C_1  and  C_2
REMARK    2  A    between atoms: C_10  and  C_11
REMARK    3  A    between atoms: C_11  and  N_12
REMARK    4  A    between atoms: C_13  and  C_14
REMARK    5  A    between atoms: C_14  and  O_16
REMARK    6  A    between atoms: C_17  and  C_18
REMARK                            x       y       z     vdW  Elec       q    Type
REMARK                         _______ _______ _______ _____ _____    ______ ____
ROOT
ATOM      1  N   UNL     1      -2.187  12.478  20.585  0.00  0.00    +0.000 N 
ATOM      2  C   UNL     1      -2.854  13.054  21.681  0.00  0.00    +0.000 A 
ATOM      3  C   UNL     1      -4.208  13.157  21.327  0.00  0.00    +0.000 A 
ATOM      4  C   UNL     1      -4.320  12.627  20.022  0.00  0.00    +0.000 A 
ATOM      5  C   UNL     1      -5.434  12.534  19.221  0.00  0.00    +0.000 A 
ATOM      6  O   UNL     1      -6.636  12.975  19.557  0.00  0.00    +0.000 OA
ATOM      7  C   UNL     1      -7.432  12.736  18.473  0.00  0.00    +0.000 A 
ATOM      8  C   UNL     1      -6.713  12.125  17.462  0.00  0.00    +0.000 A 
ATOM      9  C   UNL     1      -5.393  11.984  17.954  0.00  0.00    +0.000 A 
ATOM     10  C   UNL     1      -4.155  11.482  17.513  0.00  0.00    +0.000 A 
ATOM     11  F   UNL     1      -4.049  10.924  16.297  0.00  0.00    +0.000 F 
ATOM     12  C   UNL     1      -2.993  11.562  18.320  0.00  0.00    +0.000 A 
ATOM     13  C   UNL     1      -3.095  12.172  19.584  0.00  0.00    +0.000 A 
ENDROOT
BRANCH   3  14
ATOM     14  C   UNL     1      -5.231  13.719  22.154  0.00  0.00    +0.000 A 
ATOM     15  C   UNL     1      -5.978  12.995  23.012  0.00  0.00    +0.000 A 
ATOM     16  C   UNL     1      -6.969  13.608  23.863  0.00  0.00    +0.000 A 
ATOM     17  C   UNL     1      -7.168  14.930  23.811  0.00  0.00    +0.000 A 
ATOM     18  N   UNL     1      -6.441  15.702  22.943  0.00  0.00    +0.000 N 
ATOM     19  C   UNL     1      -5.468  15.210  22.100  0.00  0.00    +0.000 A 
ATOM     20  O   UNL     1      -4.820  15.957  21.370  0.00  0.00    +0.000 OA
ATOM     21  H   UNL     1      -6.584  16.704  22.908  0.00  0.00    +0.000 HD
ENDBRANCH   3  14
BRANCH   2  22
ATOM     22  C   UNL     1      -2.299  13.376  22.986  0.00  0.00    +0.000 C 
ATOM     23  O   UNL     1      -2.451  12.712  24.000  0.00  0.00    +0.000 OA
BRANCH  22  24
ATOM     24  O   UNL     1      -1.582  14.521  22.998  0.00  0.00    +0.000 OA
ATOM     25  H   UNL     1      -0.701  14.405  22.607  0.00  0.00    +0.000 HD
ENDBRANCH  22  24
ENDBRANCH   2  22
BRANCH   1  26
ATOM     26  C   UNL     1      -0.751  12.353  20.366  0.00  0.00    +0.000 C 
BRANCH  26  36
ATOM     27  C   UNL     1      -0.623  10.183  22.745  0.00  0.00    +0.000 C 
ATOM     28  C   UNL     1       0.018  10.045  21.389  0.00  0.00    +0.000 A 
ATOM     29  C   UNL     1       0.796   8.874  21.199  0.00  0.00    +0.000 A 
ATOM     30  C   UNL     1       1.384   8.642  19.957  0.00  0.00    +0.000 A 
ATOM     31  N   UNL     1       2.169   7.627  19.482  0.00  0.00    +0.000 N 
ATOM     32  N   UNL     1       2.503   7.751  18.185  0.00  0.00    +0.000 NA
ATOM     33  C   UNL     1       1.927   8.902  17.827  0.00  0.00    +0.000 A 
ATOM     34  C   UNL     1       1.227   9.510  18.888  0.00  0.00    +0.000 A 
ATOM     35  C   UNL     1       0.490  10.688  19.084  0.00  0.00    +0.000 A 
ATOM     36  C   UNL     1      -0.097  10.989  20.347  0.00  0.00    +0.000 A 
ATOM     37  H   UNL     1       2.511   6.825  19.997  0.00  0.00    +0.000 HD
ENDBRANCH  26  36
ENDBRANCH   1  26
TORSDOF 5
ENDMDL
MODEL 6
REMARK VINA RESULT:      -7.7      2.630      7.230
REMARK  Name = 
REMARK  6 active torsions:
REMARK  status: ('A' for Active; 'I' for Inactive)
REMARK    1  A    between atoms: C_1  and  C_2
REMARK    2  A    between atoms: C_10  and  C_11
REMARK    3  A    between atoms: C_11  and  N_12
REMARK    4  A    between atoms: C_13  and  C_14
REMARK    5  A    between atoms: C_14  and  O_16
REMARK    6  A    between atoms: C_17  and  C_18
REMARK                            x       y       z     vdW  Elec       q    Type
REMARK                         _______ _______ _______ _____ _____    ______ ____
ROOT
ATOM      1  N   UNL     1      -2.903  12.472  21.206  0.00  0.00    +0.000 N 
ATOM      2  C   UNL     1      -1.547  12.129  21.066  0.00  0.00    +0.000 A 
ATOM      3  C   UNL     1      -1.370  11.696  19.743  0.00  0.00    +0.000 A 
ATOM      4  C   UNL     1      -2.632  11.801  19.117  0.00  0.00    +0.000 A 
ATOM      5  C   UNL     1      -2.989  11.467  17.832  0.00  0.00    +0.000 A 
ATOM      6  O   UNL     1      -2.164  10.940  16.940  0.00  0.00    +0.000 OA
ATOM      7  C   UNL     1      -2.922  10.717  15.825  0.00  0.00    +0.000 A 
ATOM      8  C   UNL     1      -4.226  11.127  16.030  0.00  0.00    +0.000 A 
ATOM      9  C   UNL     1      -4.274  11.629  17.352  0.00  0.00    +0.000 A 
ATOM     10  C   UNL     1      -5.219  12.190  18.230  0.00  0.00    +0.000 A 
ATOM     11  F   UNL     1      -6.483  12.385  17.823  0.00  0.00    +0.000 F 
ATOM     12  C   UNL     1      -4.877  12.546  19.558  0.00  0.00    +0.000 A 
ATOM     13  C   UNL     1      -3.559  12.317  19.996  0.00  0.00    +0.000 A 
ENDROOT
BRANCH   3  14
ATOM     14  C   UNL     1      -0.135  11.226  19.193  0.00  0.00    +0.000 A 
ATOM     15  C   UNL     1       0.216   9.925  19.154  0.00  0.00    +0.000 A 
ATOM     16  C   UNL     1       1.451   9.488  18.549  0.00  0.00    +0.000 A 
ATOM     17  C   UNL     1       2.285  10.385  18.009  0.00  0.00    +0.000 A 
ATOM     18  N   UNL     1       1.974  11.718  18.039  0.00  0.00    +0.000 N 
ATOM     19  C   UNL     1       0.816  12.230  18.585  0.00  0.00    +0.000 A 
ATOM     20  O   UNL     1       0.572  13.435  18.549  0.00  0.00    +0.000 OA
ATOM     21  H   UNL     1       2.599  12.398  17.623  0.00  0.00    +0.000 HD
ENDBRANCH   3  14
BRANCH   2  22
ATOM     22  C   UNL     1      -0.485  12.296  22.046  0.00  0.00    +0.000 C 
ATOM     23  O   UNL     1       0.328  13.208  22.056  0.00  0.00    +0.000 OA
BRANCH  22  24
ATOM     24  O   UNL     1      -0.454  11.318  22.978  0.00  0.00    +0.000 OA
ATOM     25  H   UNL     1       0.347  10.772  22.907  0.00  0.00    +0.000 HD
ENDBRANCH  22  24
ENDBRANCH   2  22
BRANCH   1  26
ATOM     26  C   UNL     1      -3.636  12.775  22.429  0.00  0.00    +0.000 C 
BRANCH  26  36
ATOM     27  C   UNL     1      -5.091  15.540  21.637  0.00  0.00    +0.000 C 
ATOM     28  C   UNL     1      -4.074  15.361  22.734  0.00  0.00    +0.000 A 
ATOM     29  C   UNL     1      -3.696  16.546  23.415  0.00  0.00    +0.000 A 
ATOM     30  C   UNL     1      -2.797  16.464  24.477  0.00  0.00    +0.000 A 
ATOM     31  N   UNL     1      -2.258  17.408  25.307  0.00  0.00    +0.000 N 
ATOM     32  N   UNL     1      -1.447  16.909  26.256  0.00  0.00    +0.000 NA
ATOM     33  C   UNL     1      -1.453  15.597  26.008  0.00  0.00    +0.000 A 
ATOM     34  C   UNL     1      -2.264  15.258  24.906  0.00  0.00    +0.000 A 
ATOM     35  C   UNL     1      -2.606  14.088  24.210  0.00  0.00    +0.000 A 
ATOM     36  C   UNL     1      -3.490  14.127  23.093  0.00  0.00    +0.000 A 
ATOM     37  H   UNL     1      -2.403  18.410  25.270  0.00  0.00    +0.000 HD
ENDBRANCH  26  36
ENDBRANCH   1  26
TORSDOF 5
ENDMDL
MODEL 7
REMARK VINA RESULT:      -7.7      2.855      4.775
REMARK  Name = 
REMARK  6 active torsions:
REMARK  status: ('A' for Active; 'I' for Inactive)
REMARK    1  A    between atoms: C_1  and  C_2
REMARK    2  A    between atoms: C_10  and  C_11
REMARK    3  A    between atoms: C_11  and  N_12
REMARK    4  A    between atoms: C_13  and  C_14
REMARK    5  A    between atoms: C_14  and  O_16
REMARK    6  A    between atoms: C_17  and  C_18
REMARK                            x       y       z     vdW  Elec       q    Type
REMARK                         _______ _______ _______ _____ _____    ______ ____
ROOT
ATOM      1  N   UNL     1      -2.047  12.496  21.235  0.00  0.00    +0.000 N 
ATOM      2  C   UNL     1      -2.675  12.560  19.979  0.00  0.00    +0.000 A 
ATOM      3  C   UNL     1      -4.056  12.638  20.217  0.00  0.00    +0.000 A 
ATOM      4  C   UNL     1      -4.220  12.628  21.621  0.00  0.00    +0.000 A 
ATOM      5  C   UNL     1      -5.382  12.653  22.355  0.00  0.00    +0.000 A 
ATOM      6  O   UNL     1      -6.598  12.663  21.830  0.00  0.00    +0.000 OA
ATOM      7  C   UNL     1      -7.457  12.636  22.892  0.00  0.00    +0.000 A 
ATOM      8  C   UNL     1      -6.760  12.625  24.086  0.00  0.00    +0.000 A 
ATOM      9  C   UNL     1      -5.388  12.642  23.736  0.00  0.00    +0.000 A 
ATOM     10  C   UNL     1      -4.139  12.638  24.382  0.00  0.00    +0.000 A 
ATOM     11  F   UNL     1      -4.074  12.638  25.722  0.00  0.00    +0.000 F 
ATOM     12  C   UNL     1      -2.926  12.615  23.650  0.00  0.00    +0.000 A 
ATOM     13  C   UNL     1      -2.992  12.586  22.244  0.00  0.00    +0.000 A 
ENDROOT
BRANCH   3  14
ATOM     14  C   UNL     1      -5.062  12.690  19.200  0.00  0.00    +0.000 A 
ATOM     15  C   UNL     1      -5.687  13.825  18.828  0.00  0.00    +0.000 A 
ATOM     16  C   UNL     1      -6.664  13.842  17.766  0.00  0.00    +0.000 A 
ATOM     17  C   UNL     1      -6.972  12.710  17.123  0.00  0.00    +0.000 A 
ATOM     18  N   UNL     1      -6.370  11.531  17.478  0.00  0.00    +0.000 N 
ATOM     19  C   UNL     1      -5.422  11.416  18.472  0.00  0.00    +0.000 A 
ATOM     20  O   UNL     1      -4.888  10.338  18.722  0.00  0.00    +0.000 OA
ATOM     21  H   UNL     1      -6.596  10.675  16.988  0.00  0.00    +0.000 HD
ENDBRANCH   3  14
BRANCH   2  22
ATOM     22  C   UNL     1      -2.040  12.653  18.674  0.00  0.00    +0.000 C 
ATOM     23  O   UNL     1      -2.180  11.851  17.763  0.00  0.00    +0.000 OA
BRANCH  22  24
ATOM     24  O   UNL     1      -1.238  13.732  18.542  0.00  0.00    +0.000 OA
ATOM     25  H   UNL     1      -1.460  14.432  19.178  0.00  0.00    +0.000 HD
ENDBRANCH  22  24
ENDBRANCH   2  22
BRANCH   1  26
ATOM     26  C   UNL     1      -0.651  12.196  21.532  0.00  0.00    +0.000 C 
BRANCH  26  36
ATOM     27  C   UNL     1      -0.546   9.503  23.299  0.00  0.00    +0.000 C 
ATOM     28  C   UNL     1       0.046   9.680  21.925  0.00  0.00    +0.000 A 
ATOM     29  C   UNL     1       0.763   8.565  21.421  0.00  0.00    +0.000 A 
ATOM     30  C   UNL     1       1.301   8.626  20.137  0.00  0.00    +0.000 A 
ATOM     31  N   UNL     1       2.024   7.732  19.394  0.00  0.00    +0.000 N 
ATOM     32  N   UNL     1       2.322   8.161  18.155  0.00  0.00    +0.000 NA
ATOM     33  C   UNL     1       1.788   9.384  18.114  0.00  0.00    +0.000 A 
ATOM     34  C   UNL     1       1.149   9.736  19.321  0.00  0.00    +0.000 A 
ATOM     35  C   UNL     1       0.473  10.855  19.830  0.00  0.00    +0.000 A 
ATOM     36  C   UNL     1      -0.060  10.856  21.152  0.00  0.00    +0.000 A 
ATOM     37  H   UNL     1       2.346   6.816  19.682  0.00  0.00    +0.000 HD
ENDBRANCH  26  36
ENDBRANCH   1  26
TORSDOF 5
ENDMDL
MODEL 8
REMARK VINA RESULT:      -7.6      1.780      2.598
REMARK  Name = 
REMARK  6 active torsions:
REMARK  status: ('A' for Active; 'I' for Inactive)
REMARK    1  A    between atoms: C_1  and  C_2
REMARK    2  A    between atoms: C_10  and  C_11
REMARK    3  A    between atoms: C_11  and  N_12
REMARK    4  A    between atoms: C_13  and  C_14
REMARK    5  A    between atoms: C_14  and  O_16
REMARK    6  A    between atoms: C_17  and  C_18
REMARK                            x       y       z     vdW  Elec       q    Type
REMARK                         _______ _______ _______ _____ _____    ______ ____
ROOT
ATOM      1  N   UNL     1      -2.005  12.245  20.589  0.00  0.00    +0.000 N 
ATOM      2  C   UNL     1      -2.834  12.841  21.555  0.00  0.00    +0.000 A 
ATOM      3  C   UNL     1      -4.099  12.996  20.966  0.00  0.00    +0.000 A 
ATOM      4  C   UNL     1      -3.997  12.477  19.657  0.00  0.00    +0.000 A 
ATOM      5  C   UNL     1      -4.952  12.428  18.670  0.00  0.00    +0.000 A 
ATOM      6  O   UNL     1      -6.178  12.913  18.792  0.00  0.00    +0.000 OA
ATOM      7  C   UNL     1      -6.777  12.708  17.581  0.00  0.00    +0.000 A 
ATOM      8  C   UNL     1      -5.912  12.074  16.708  0.00  0.00    +0.000 A 
ATOM      9  C   UNL     1      -4.707  11.881  17.425  0.00  0.00    +0.000 A 
ATOM     10  C   UNL     1      -3.430  11.334  17.206  0.00  0.00    +0.000 A 
ATOM     11  F   UNL     1      -3.130  10.778  16.023  0.00  0.00    +0.000 F 
ATOM     12  C   UNL     1      -2.427  11.368  18.207  0.00  0.00    +0.000 A 
ATOM     13  C   UNL     1      -2.731  11.977  19.439  0.00  0.00    +0.000 A 
ENDROOT
BRANCH   3  14
ATOM     14  C   UNL     1      -5.232  13.595  21.605  0.00  0.00    +0.000 A 
ATOM     15  C   UNL     1      -5.330  14.914  21.865  0.00  0.00    +0.000 A 
ATOM     16  C   UNL     1      -6.509  15.485  22.469  0.00  0.00    +0.000 A 
ATOM     17  C   UNL     1      -7.543  14.698  22.790  0.00  0.00    +0.000 A 
ATOM     18  N   UNL     1      -7.480  13.350  22.557  0.00  0.00    +0.000 N 
ATOM     19  C   UNL     1      -6.402  12.715  21.977  0.00  0.00    +0.000 A 
ATOM     20  O   UNL     1      -6.417  11.506  21.756  0.00  0.00    +0.000 OA
ATOM     21  H   UNL     1      -8.264  12.753  22.791  0.00  0.00    +0.000 HD
ENDBRANCH   3  14
BRANCH   2  22
ATOM     22  C   UNL     1      -2.509  13.138  22.940  0.00  0.00    +0.000 C 
ATOM     23  O   UNL     1      -1.782  14.046  23.315  0.00  0.00    +0.000 OA
BRANCH  22  24
ATOM     24  O   UNL     1      -3.083  12.290  23.822  0.00  0.00    +0.000 OA
ATOM     25  H   UNL     1      -2.816  11.368  23.668  0.00  0.00    +0.000 HD
ENDBRANCH  22  24
ENDBRANCH   2  22
BRANCH   1  26
ATOM     26  C   UNL     1      -0.558  12.066  20.627  0.00  0.00    +0.000 C 
BRANCH  26  36
ATOM     27  C   UNL     1      -0.653   9.973  23.075  0.00  0.00    +0.000 C 
ATOM     28  C   UNL     1       0.057   9.765  21.763  0.00  0.00    +0.000 A 
ATOM     29  C   UNL     1       0.795   8.558  21.653  0.00  0.00    +0.000 A 
ATOM     30  C   UNL     1       1.442   8.262  20.454  0.00  0.00    +0.000 A 
ATOM     31  N   UNL     1       2.208   7.202  20.056  0.00  0.00    +0.000 N 
ATOM     32  N   UNL     1       2.619   7.270  18.777  0.00  0.00    +0.000 NA
ATOM     33  C   UNL     1       2.113   8.430  18.351  0.00  0.00    +0.000 A 
ATOM     34  C   UNL     1       1.380   9.100  19.352  0.00  0.00    +0.000 A 
ATOM     35  C   UNL     1       0.683  10.312  19.469  0.00  0.00    +0.000 A 
ATOM     36  C   UNL     1       0.039  10.678  20.687  0.00  0.00    +0.000 A 
ATOM     37  H   UNL     1       2.488   6.404  20.614  0.00  0.00    +0.000 HD
ENDBRANCH  26  36
ENDBRANCH   1  26
TORSDOF 5
ENDMDL
MODEL 9
REMARK VINA RESULT:      -7.6      2.891      4.706
REMARK  Name = 
REMARK  6 active torsions:
REMARK  status: ('A' for Active; 'I' for Inactive)
REMARK    1  A    between atoms: C_1  and  C_2
REMARK    2  A    between atoms: C_10  and  C_11
REMARK    3  A    between atoms: C_11  and  N_12
REMARK    4  A    between atoms: C_13  and  C_14
REMARK    5  A    between atoms: C_14  and  O_16
REMARK    6  A    between atoms: C_17  and  C_18
REMARK                            x       y       z     vdW  Elec       q    Type
REMARK                         _______ _______ _______ _____ _____    ______ ____
ROOT
ATOM      1  N   UNL     1      -2.048  12.500  21.335  0.00  0.00    +0.000 N 
ATOM      2  C   UNL     1      -2.716  12.519  20.098  0.00  0.00    +0.000 A 
ATOM      3  C   UNL     1      -4.090  12.595  20.378  0.00  0.00    +0.000 A 
ATOM      4  C   UNL     1      -4.209  12.630  21.785  0.00  0.00    +0.000 A 
ATOM      5  C   UNL     1      -5.348  12.670  22.554  0.00  0.00    +0.000 A 
ATOM      6  O   UNL     1      -6.579  12.655  22.068  0.00  0.00    +0.000 OA
ATOM      7  C   UNL     1      -7.405  12.656  23.157  0.00  0.00    +0.000 A 
ATOM      8  C   UNL     1      -6.670  12.688  24.328  0.00  0.00    +0.000 A 
ATOM      9  C   UNL     1      -5.310  12.704  23.935  0.00  0.00    +0.000 A 
ATOM     10  C   UNL     1      -4.041  12.729  24.541  0.00  0.00    +0.000 A 
ATOM     11  F   UNL     1      -3.934  12.773  25.877  0.00  0.00    +0.000 F 
ATOM     12  C   UNL     1      -2.852  12.692  23.772  0.00  0.00    +0.000 A 
ATOM     13  C   UNL     1      -2.962  12.617  22.370  0.00  0.00    +0.000 A 
ENDROOT
BRANCH   3  14
ATOM     14  C   UNL     1      -5.127  12.607  19.392  0.00  0.00    +0.000 A 
ATOM     15  C   UNL     1      -5.541  11.506  18.732  0.00  0.00    +0.000 A 
ATOM     16  C   UNL     1      -6.622  11.553  17.777  0.00  0.00    +0.000 A 
ATOM     17  C   UNL     1      -7.241  12.711  17.526  0.00  0.00    +0.000 A 
ATOM     18  N   UNL     1      -6.844  13.857  18.163  0.00  0.00    +0.000 N 
ATOM     19  C   UNL     1      -5.830  13.911  19.095  0.00  0.00    +0.000 A 
ATOM     20  O   UNL     1      -5.542  14.962  19.665  0.00  0.00    +0.000 OA
ATOM     21  H   UNL     1      -7.317  14.733  17.981  0.00  0.00    +0.000 HD
ENDBRANCH   3  14
BRANCH   2  22
ATOM     22  C   UNL     1      -2.124  12.575  18.772  0.00  0.00    +0.000 C 
ATOM     23  O   UNL     1      -2.298  11.751  17.886  0.00  0.00    +0.000 OA
BRANCH  22  24
ATOM     24  O   UNL     1      -1.319  13.644  18.586  0.00  0.00    +0.000 OA
ATOM     25  H   UNL     1      -1.762  14.478  18.813  0.00  0.00    +0.000 HD
ENDBRANCH  22  24
ENDBRANCH   2  22
BRANCH   1  26
ATOM     26  C   UNL     1      -0.642  12.220  21.597  0.00  0.00    +0.000 C 
BRANCH  26  36
ATOM     27  C   UNL     1      -0.486   9.541  23.383  0.00  0.00    +0.000 C 
ATOM     28  C   UNL     1       0.082   9.713  21.998  0.00  0.00    +0.000 A 
ATOM     29  C   UNL     1       0.800   8.600  21.492  0.00  0.00    +0.000 A 
ATOM     30  C   UNL     1       1.317   8.654  20.198  0.00  0.00    +0.000 A 
ATOM     31  N   UNL     1       2.035   7.761  19.451  0.00  0.00    +0.000 N 
ATOM     32  N   UNL     1       2.310   8.182  18.204  0.00  0.00    +0.000 NA
ATOM     33  C   UNL     1       1.765   9.400  18.162  0.00  0.00    +0.000 A 
ATOM     34  C   UNL     1       1.143   9.757  19.377  0.00  0.00    +0.000 A 
ATOM     35  C   UNL     1       0.466  10.875  19.888  0.00  0.00    +0.000 A 
ATOM     36  C   UNL     1      -0.045  10.882  21.218  0.00  0.00    +0.000 A 
ATOM     37  H   UNL     1       2.369   6.850  19.741  0.00  0.00    +0.000 HD
ENDBRANCH  26  36
ENDBRANCH   1  26
TORSDOF 5
ENDMDL
