MODEL 1
REMARK VINA RESULT:      -7.5      0.000      0.000
REMARK  Name = 
REMARK  6 active torsions:
REMARK  status: ('A' for Active; 'I' for Inactive)
REMARK    1  A    between atoms: C_1  and  O_2
REMARK    2  A    between atoms: O_2  and  C_3
REMARK    3  A    between atoms: C_6  and  C_7
REMARK    4  A    between atoms: C_10  and  C_11
REMARK    5  A    between atoms: C_13  and  C_14
REMARK    6  A    between atoms: C_18  and  O_19
REMARK                            x       y       z     vdW  Elec       q    Type
REMARK                         _______ _______ _______ _____ _____    ______ ____
ROOT
ATOM      1  C   UNL     1       3.085   6.031  19.070  0.00  0.00    +0.000 A 
ATOM      2  C   UNL     1       2.025   6.050  20.000  0.00  0.00    +0.000 A 
ATOM      3  C   UNL     1       1.745   4.940  20.791  0.00  0.00    +0.000 A 
ATOM      4  C   UNL     1       2.496   3.783  20.627  0.00  0.00    +0.000 A 
ATOM      5  C   UNL     1       3.504   3.728  19.665  0.00  0.00    +0.000 A 
ATOM      6  C   UNL     1       3.856   4.852  18.879  0.00  0.00    +0.000 A 
ENDROOT
BRANCH   6   7
ATOM      7  C   UNL     1       5.016   4.745  17.936  0.00  0.00    +0.000 A 
ATOM      8  C   UNL     1       4.822   4.468  16.568  0.00  0.00    +0.000 A 
ATOM      9  C   UNL     1       5.904   4.369  15.679  0.00  0.00    +0.000 A 
ATOM     10  C   UNL     1       7.215   4.514  16.132  0.00  0.00    +0.000 A 
ATOM     11  C   UNL     1       7.445   4.768  17.478  0.00  0.00    +0.000 A 
ATOM     12  C   UNL     1       6.363   4.892  18.358  0.00  0.00    +0.000 A 
BRANCH   9  13
ATOM     13  C   UNL     1       5.652   4.114  14.245  0.00  0.00    +0.000 C 
ATOM     14  O   UNL     1       6.560   4.049  13.428  0.00  0.00    +0.000 OA
ENDBRANCH   9  13
BRANCH  12  15
ATOM     15  O   UNL     1       6.646   5.179  19.672  0.00  0.00    +0.000 OA
ATOM     16  H   UNL     1       7.608   5.264  19.782  0.00  0.00    +0.000 HD
ENDBRANCH  12  15
ENDBRANCH   6   7
BRANCH   1  18
ATOM     17  C   UNL     1       2.362   8.110  18.158  0.00  0.00    +0.000 C 
ATOM     18  O   UNL     1       3.386   7.128  18.299  0.00  0.00    +0.000 OA
ENDBRANCH   1  18
BRANCH   4  19
ATOM     19  C   UNL     1       2.257   2.607  21.485  0.00  0.00    +0.000 C 
ATOM     20  O   UNL     1       1.350   2.578  22.311  0.00  0.00    +0.000 OA
ENDBRANCH   4  19
TORSDOF 5
ENDMDL
MODEL 2
REMARK VINA RESULT:      -7.2      0.668      6.142
REMARK  Name = 
REMARK  6 active torsions:
REMARK  status: ('A' for Active; 'I' for Inactive)
REMARK    1  A    between atoms: C_1  and  O_2
REMARK    2  A    between atoms: O_2  and  C_3
REMARK    3  A    between atoms: C_6  and  C_7
REMARK    4  A    between atoms: C_10  and  C_11
REMARK    5  A    between atoms: C_13  and  C_14
REMARK    6  A    between atoms: C_18  and  O_19
REMARK                            x       y       z     vdW  Elec       q    Type
REMARK                         _______ _______ _______ _____ _____    ______ ____
ROOT
ATOM      1  C   UNL     1       6.386   4.735  18.071  0.00  0.00    +0.000 A 
ATOM      2  C   UNL     1       7.412   4.588  17.115  0.00  0.00    +0.000 A 
ATOM      3  C   UNL     1       7.115   4.361  15.774  0.00  0.00    +0.000 A 
ATOM      4  C   UNL     1       5.788   4.235  15.384  0.00  0.00    +0.000 A 
ATOM      5  C   UNL     1       4.766   4.313  16.331  0.00  0.00    +0.000 A 
ATOM      6  C   UNL     1       5.022   4.597  17.693  0.00  0.00    +0.000 A 
ENDROOT
BRANCH   6   7
ATOM      7  C   UNL     1       3.865   4.764  18.631  0.00  0.00    +0.000 A 
ATOM      8  C   UNL     1       3.347   3.671  19.355  0.00  0.00    +0.000 A 
ATOM      9  C   UNL     1       2.265   3.821  20.237  0.00  0.00    +0.000 A 
ATOM     10  C   UNL     1       1.647   5.059  20.403  0.00  0.00    +0.000 A 
ATOM     11  C   UNL     1       2.118   6.155  19.691  0.00  0.00    +0.000 A 
ATOM     12  C   UNL     1       3.214   6.009  18.831  0.00  0.00    +0.000 A 
BRANCH   9  13
ATOM     13  C   UNL     1       1.779   2.655  21.003  0.00  0.00    +0.000 C 
ATOM     14  O   UNL     1       1.876   2.591  22.220  0.00  0.00    +0.000 OA
ENDBRANCH   9  13
BRANCH  12  15
ATOM     15  O   UNL     1       3.660   7.133  18.179  0.00  0.00    +0.000 OA
ATOM     16  H   UNL     1       3.855   7.827  18.831  0.00  0.00    +0.000 HD
ENDBRANCH  12  15
ENDBRANCH   6   7
BRANCH   1  18
ATOM     17  C   UNL     1       7.856   5.714  19.670  0.00  0.00    +0.000 C 
ATOM     18  O   UNL     1       6.664   4.982  19.394  0.00  0.00    +0.000 OA
ENDBRANCH   1  18
BRANCH   4  19
ATOM     19  C   UNL     1       5.439   4.044  13.964  0.00  0.00    +0.000 C 
ATOM     20  O   UNL     1       6.263   3.667  13.137  0.00  0.00    +0.000 OA
ENDBRANCH   4  19
TORSDOF 5
ENDMDL
MODEL 3
REMARK VINA RESULT:      -7.2      1.313      2.851
REMARK  Name = 
REMARK  6 active torsions:
REMARK  status: ('A' for Active; 'I' for Inactive)
REMARK    1  A    between atoms: C_1  and  O_2
REMARK    2  A    between atoms: O_2  and  C_3
REMARK    3  A    between atoms: C_6  and  C_7
REMARK    4  A    between atoms: C_10  and  C_11
REMARK    5  A    between atoms: C_13  and  C_14
REMARK    6  A    between atoms: C_18  and  O_19
REMARK                            x       y       z     vdW  Elec       q    Type
REMARK                         _______ _______ _______ _____ _____    ______ ____
ROOT
ATOM      1  C   UNL     1       3.472   3.430  19.761  0.00  0.00    +0.000 A 
ATOM      2  C   UNL     1       2.391   3.476  20.664  0.00  0.00    +0.000 A 
ATOM      3  C   UNL     1       1.731   4.673  20.933  0.00  0.00    +0.000 A 
ATOM      4  C   UNL     1       2.176   5.843  20.332  0.00  0.00    +0.000 A 
ATOM      5  C   UNL     1       3.286   5.822  19.487  0.00  0.00    +0.000 A 
ATOM      6  C   UNL     1       3.950   4.619  19.146  0.00  0.00    +0.000 A 
ENDROOT
BRANCH   6   7
ATOM      7  C   UNL     1       5.072   4.665  18.153  0.00  0.00    +0.000 A 
ATOM      8  C   UNL     1       4.846   4.426  16.782  0.00  0.00    +0.000 A 
ATOM      9  C   UNL     1       5.893   4.470  15.848  0.00  0.00    +0.000 A 
ATOM     10  C   UNL     1       7.202   4.724  16.254  0.00  0.00    +0.000 A 
ATOM     11  C   UNL     1       7.465   4.945  17.600  0.00  0.00    +0.000 A 
ATOM     12  C   UNL     1       6.416   4.927  18.528  0.00  0.00    +0.000 A 
BRANCH   9  13
ATOM     13  C   UNL     1       5.604   4.250  14.415  0.00  0.00    +0.000 C 
ATOM     14  O   UNL     1       6.493   4.099  13.590  0.00  0.00    +0.000 OA
ENDBRANCH   9  13
BRANCH  12  15
ATOM     15  O   UNL     1       6.727   5.186  19.840  0.00  0.00    +0.000 OA
ATOM     16  H   UNL     1       7.074   4.378  20.254  0.00  0.00    +0.000 HD
ENDBRANCH  12  15
ENDBRANCH   6   7
BRANCH   1  18
ATOM     17  C   UNL     1       3.504   1.411  18.495  0.00  0.00    +0.000 C 
ATOM     18  O   UNL     1       4.117   2.252  19.470  0.00  0.00    +0.000 OA
ENDBRANCH   1  18
BRANCH   4  19
ATOM     19  C   UNL     1       1.467   7.117  20.556  0.00  0.00    +0.000 C 
ATOM     20  O   UNL     1       1.888   8.181  20.116  0.00  0.00    +0.000 OA
ENDBRANCH   4  19
TORSDOF 5
ENDMDL
MODEL 4
REMARK VINA RESULT:      -7.0      1.586      6.042
REMARK  Name = 
REMARK  6 active torsions:
REMARK  status: ('A' for Active; 'I' for Inactive)
REMARK    1  A    between atoms: C_1  and  O_2
REMARK    2  A    between atoms: O_2  and  C_3
REMARK    3  A    between atoms: C_6  and  C_7
REMARK    4  A    between atoms: C_10  and  C_11
REMARK    5  A    between atoms: C_13  and  C_14
REMARK    6  A    between atoms: C_18  and  O_19
REMARK                            x       y       z     vdW  Elec       q    Type
REMARK                         _______ _______ _______ _____ _____    ______ ____
ROOT
ATOM      1  C   UNL     1       6.508   4.845  18.367  0.00  0.00    +0.000 A 
ATOM      2  C   UNL     1       7.436   5.041  17.324  0.00  0.00    +0.000 A 
ATOM      3  C   UNL     1       7.087   4.798  15.998  0.00  0.00    +0.000 A 
ATOM      4  C   UNL     1       5.818   4.314  15.708  0.00  0.00    +0.000 A 
ATOM      5  C   UNL     1       4.913   4.053  16.736  0.00  0.00    +0.000 A 
ATOM      6  C   UNL     1       5.209   4.338  18.091  0.00  0.00    +0.000 A 
ENDROOT
BRANCH   6   7
ATOM      7  C   UNL     1       4.148   4.123  19.128  0.00  0.00    +0.000 A 
ATOM      8  C   UNL     1       3.221   5.137  19.446  0.00  0.00    +0.000 A 
ATOM      9  C   UNL     1       2.223   4.941  20.413  0.00  0.00    +0.000 A 
ATOM     10  C   UNL     1       2.137   3.739  21.116  0.00  0.00    +0.000 A 
ATOM     11  C   UNL     1       3.046   2.725  20.843  0.00  0.00    +0.000 A 
ATOM     12  C   UNL     1       4.024   2.913  19.858  0.00  0.00    +0.000 A 
BRANCH   9  13
ATOM     13  C   UNL     1       1.249   6.017  20.688  0.00  0.00    +0.000 C 
ATOM     14  O   UNL     1       1.595   7.178  20.858  0.00  0.00    +0.000 OA
ENDBRANCH   9  13
BRANCH  12  15
ATOM     15  O   UNL     1       4.875   1.865  19.604  0.00  0.00    +0.000 OA
ATOM     16  H   UNL     1       5.089   1.847  18.656  0.00  0.00    +0.000 HD
ENDBRANCH  12  15
ENDBRANCH   6   7
BRANCH   1  18
ATOM     17  C   UNL     1       8.117   5.672  19.917  0.00  0.00    +0.000 C 
ATOM     18  O   UNL     1       6.833   5.102  19.678  0.00  0.00    +0.000 OA
ENDBRANCH   1  18
BRANCH   4  19
ATOM     19  C   UNL     1       5.402   4.095  14.310  0.00  0.00    +0.000 C 
ATOM     20  O   UNL     1       6.156   3.606  13.476  0.00  0.00    +0.000 OA
ENDBRANCH   4  19
TORSDOF 5
ENDMDL
MODEL 5
REMARK VINA RESULT:      -6.9      2.239      6.212
REMARK  Name = 
REMARK  6 active torsions:
REMARK  status: ('A' for Active; 'I' for Inactive)
REMARK    1  A    between atoms: C_1  and  O_2
REMARK    2  A    between atoms: O_2  and  C_3
REMARK    3  A    between atoms: C_6  and  C_7
REMARK    4  A    between atoms: C_10  and  C_11
REMARK    5  A    between atoms: C_13  and  C_14
REMARK    6  A    between atoms: C_18  and  O_19
REMARK                            x       y       z     vdW  Elec       q    Type
REMARK                         _______ _______ _______ _____ _____    ______ ____
ROOT
ATOM      1  C   UNL     1       2.900   4.710  17.660  0.00  0.00    +0.000 A 
ATOM      2  C   UNL     1       3.728   3.819  16.948  0.00  0.00    +0.000 A 
ATOM      3  C   UNL     1       5.037   4.163  16.622  0.00  0.00    +0.000 A 
ATOM      4  C   UNL     1       5.515   5.421  16.966  0.00  0.00    +0.000 A 
ATOM      5  C   UNL     1       4.684   6.336  17.612  0.00  0.00    +0.000 A 
ATOM      6  C   UNL     1       3.367   6.007  18.010  0.00  0.00    +0.000 A 
ENDROOT
BRANCH   6   7
ATOM      7  C   UNL     1       2.570   7.010  18.788  0.00  0.00    +0.000 A 
ATOM      8  C   UNL     1       2.185   8.240  18.217  0.00  0.00    +0.000 A 
ATOM      9  C   UNL     1       1.436   9.182  18.939  0.00  0.00    +0.000 A 
ATOM     10  C   UNL     1       1.074   8.942  20.264  0.00  0.00    +0.000 A 
ATOM     11  C   UNL     1       1.453   7.749  20.866  0.00  0.00    +0.000 A 
ATOM     12  C   UNL     1       2.178   6.798  20.136  0.00  0.00    +0.000 A 
BRANCH   9  13
ATOM     13  C   UNL     1       1.022  10.442  18.287  0.00  0.00    +0.000 C 
ATOM     14  O   UNL     1      -0.028  11.003  18.567  0.00  0.00    +0.000 OA
ENDBRANCH   9  13
BRANCH  12  15
ATOM     15  O   UNL     1       2.496   5.622  20.769  0.00  0.00    +0.000 OA
ATOM     16  H   UNL     1       2.288   5.700  21.716  0.00  0.00    +0.000 HD
ENDBRANCH  12  15
ENDBRANCH   6   7
BRANCH   1  18
ATOM     17  C   UNL     1       1.408   3.051  18.495  0.00  0.00    +0.000 C 
ATOM     18  O   UNL     1       1.613   4.375  18.009  0.00  0.00    +0.000 OA
ENDBRANCH   1  18
BRANCH   4  19
ATOM     19  C   UNL     1       6.912   5.795  16.678  0.00  0.00    +0.000 C 
ATOM     20  O   UNL     1       7.391   5.706  15.553  0.00  0.00    +0.000 OA
ENDBRANCH   4  19
TORSDOF 5
ENDMDL
MODEL 6
REMARK VINA RESULT:      -6.8      1.302      3.106
REMARK  Name = 
REMARK  6 active torsions:
REMARK  status: ('A' for Active; 'I' for Inactive)
REMARK    1  A    between atoms: C_1  and  O_2
REMARK    2  A    between atoms: O_2  and  C_3
REMARK    3  A    between atoms: C_6  and  C_7
REMARK    4  A    between atoms: C_10  and  C_11
REMARK    5  A    between atoms: C_13  and  C_14
REMARK    6  A    between atoms: C_18  and  O_19
REMARK                            x       y       z     vdW  Elec       q    Type
REMARK                         _______ _______ _______ _____ _____    ______ ____
ROOT
ATOM      1  C   UNL     1       3.318   4.685  19.833  0.00  0.00    +0.000 A 
ATOM      2  C   UNL     1       2.236   5.117  20.627  0.00  0.00    +0.000 A 
ATOM      3  C   UNL     1       1.682   6.383  20.457  0.00  0.00    +0.000 A 
ATOM      4  C   UNL     1       2.234   7.245  19.519  0.00  0.00    +0.000 A 
ATOM      5  C   UNL     1       3.346   6.855  18.773  0.00  0.00    +0.000 A 
ATOM      6  C   UNL     1       3.905   5.558  18.877  0.00  0.00    +0.000 A 
ENDROOT
BRANCH   6   7
ATOM      7  C   UNL     1       5.037   5.180  17.970  0.00  0.00    +0.000 A 
ATOM      8  C   UNL     1       4.827   4.947  16.596  0.00  0.00    +0.000 A 
ATOM      9  C   UNL     1       5.883   4.596  15.741  0.00  0.00    +0.000 A 
ATOM     10  C   UNL     1       7.177   4.436  16.235  0.00  0.00    +0.000 A 
ATOM     11  C   UNL     1       7.418   4.638  17.588  0.00  0.00    +0.000 A 
ATOM     12  C   UNL     1       6.368   5.014  18.434  0.00  0.00    +0.000 A 
BRANCH   9  13
ATOM     13  C   UNL     1       5.623   4.398  14.300  0.00  0.00    +0.000 C 
ATOM     14  O   UNL     1       6.306   3.651  13.614  0.00  0.00    +0.000 OA
ENDBRANCH   9  13
BRANCH  12  15
ATOM     15  O   UNL     1       6.669   5.235  19.756  0.00  0.00    +0.000 OA
ATOM     16  H   UNL     1       7.440   4.698  20.004  0.00  0.00    +0.000 HD
ENDBRANCH  12  15
ENDBRANCH   6   7
BRANCH   1  18
ATOM     17  C   UNL     1       3.074   2.338  19.505  0.00  0.00    +0.000 C 
ATOM     18  O   UNL     1       3.860   3.430  19.975  0.00  0.00    +0.000 OA
ENDBRANCH   1  18
BRANCH   4  19
ATOM     19  C   UNL     1       1.638   8.573  19.280  0.00  0.00    +0.000 C 
ATOM     20  O   UNL     1       1.475   9.019  18.149  0.00  0.00    +0.000 OA
ENDBRANCH   4  19
TORSDOF 5
ENDMDL
MODEL 7
REMARK VINA RESULT:      -6.7      1.511      5.938
REMARK  Name = 
REMARK  6 active torsions:
REMARK  status: ('A' for Active; 'I' for Inactive)
REMARK    1  A    between atoms: C_1  and  O_2
REMARK    2  A    between atoms: O_2  and  C_3
REMARK    3  A    between atoms: C_6  and  C_7
REMARK    4  A    between atoms: C_10  and  C_11
REMARK    5  A    between atoms: C_13  and  C_14
REMARK    6  A    between atoms: C_18  and  O_19
REMARK                            x       y       z     vdW  Elec       q    Type
REMARK                         _______ _______ _______ _____ _____    ______ ____
ROOT
ATOM      1  C   UNL     1       6.454   4.976  18.017  0.00  0.00    +0.000 A 
ATOM      2  C   UNL     1       7.453   4.464  17.165  0.00  0.00    +0.000 A 
ATOM      3  C   UNL     1       7.182   4.187  15.828  0.00  0.00    +0.000 A 
ATOM      4  C   UNL     1       5.895   4.378  15.342  0.00  0.00    +0.000 A 
ATOM      5  C   UNL     1       4.881   4.820  16.192  0.00  0.00    +0.000 A 
ATOM      6  C   UNL     1       5.128   5.166  17.542  0.00  0.00    +0.000 A 
ENDROOT
BRANCH   6   7
ATOM      7  C   UNL     1       4.008   5.729  18.365  0.00  0.00    +0.000 A 
ATOM      8  C   UNL     1       3.463   6.998  18.086  0.00  0.00    +0.000 A 
ATOM      9  C   UNL     1       2.412   7.530  18.850  0.00  0.00    +0.000 A 
ATOM     10  C   UNL     1       1.892   6.825  19.935  0.00  0.00    +0.000 A 
ATOM     11  C   UNL     1       2.418   5.579  20.251  0.00  0.00    +0.000 A 
ATOM     12  C   UNL     1       3.448   5.039  19.471  0.00  0.00    +0.000 A 
BRANCH   9  13
ATOM     13  C   UNL     1       1.847   8.849  18.499  0.00  0.00    +0.000 C 
ATOM     14  O   UNL     1       1.956   9.325  17.378  0.00  0.00    +0.000 OA
ENDBRANCH   9  13
BRANCH  12  15
ATOM     15  O   UNL     1       3.907   3.788  19.807  0.00  0.00    +0.000 OA
ATOM     16  H   UNL     1       4.559   3.497  19.147  0.00  0.00    +0.000 HD
ENDBRANCH  12  15
ENDBRANCH   6   7
BRANCH   1  18
ATOM     17  C   UNL     1       7.994   5.834  19.620  0.00  0.00    +0.000 C 
ATOM     18  O   UNL     1       6.714   5.275  19.334  0.00  0.00    +0.000 OA
ENDBRANCH   1  18
BRANCH   4  19
ATOM     19  C   UNL     1       5.588   4.141  13.919  0.00  0.00    +0.000 C 
ATOM     20  O   UNL     1       6.455   3.822  13.112  0.00  0.00    +0.000 OA
ENDBRANCH   4  19
TORSDOF 5
ENDMDL
MODEL 8
REMARK VINA RESULT:      -6.7      1.748      6.180
REMARK  Name = 
REMARK  6 active torsions:
REMARK  status: ('A' for Active; 'I' for Inactive)
REMARK    1  A    between atoms: C_1  and  O_2
REMARK    2  A    between atoms: O_2  and  C_3
REMARK    3  A    between atoms: C_6  and  C_7
REMARK    4  A    between atoms: C_10  and  C_11
REMARK    5  A    between atoms: C_13  and  C_14
REMARK    6  A    between atoms: C_18  and  O_19
REMARK                            x       y       z     vdW  Elec       q    Type
REMARK                         _______ _______ _______ _____ _____    ______ ____
ROOT
ATOM      1  C   UNL     1       6.425   5.129  16.686  0.00  0.00    +0.000 A 
ATOM      2  C   UNL     1       7.480   5.083  15.751  0.00  0.00    +0.000 A 
ATOM      3  C   UNL     1       7.274   4.598  14.463  0.00  0.00    +0.000 A 
ATOM      4  C   UNL     1       6.021   4.114  14.111  0.00  0.00    +0.000 A 
ATOM      5  C   UNL     1       4.987   4.093  15.046  0.00  0.00    +0.000 A 
ATOM      6  C   UNL     1       5.139   4.627  16.349  0.00  0.00    +0.000 A 
ENDROOT
BRANCH   6   7
ATOM      7  C   UNL     1       3.952   4.659  17.264  0.00  0.00    +0.000 A 
ATOM      8  C   UNL     1       3.260   3.480  17.606  0.00  0.00    +0.000 A 
ATOM      9  C   UNL     1       2.151   3.503  18.465  0.00  0.00    +0.000 A 
ATOM     10  C   UNL     1       1.678   4.706  18.987  0.00  0.00    +0.000 A 
ATOM     11  C   UNL     1       2.323   5.890  18.657  0.00  0.00    +0.000 A 
ATOM     12  C   UNL     1       3.446   5.863  17.820  0.00  0.00    +0.000 A 
BRANCH   9  13
ATOM     13  C   UNL     1       1.478   2.237  18.825  0.00  0.00    +0.000 C 
ATOM     14  O   UNL     1       0.266   2.098  18.735  0.00  0.00    +0.000 OA
ENDBRANCH   9  13
BRANCH  12  15
ATOM     15  O   UNL     1       4.067   7.059  17.555  0.00  0.00    +0.000 OA
ATOM     16  H   UNL     1       4.978   7.030  17.892  0.00  0.00    +0.000 HD
ENDBRANCH  12  15
ENDBRANCH   6   7
BRANCH   1  18
ATOM     17  C   UNL     1       7.588   6.651  18.103  0.00  0.00    +0.000 C 
ATOM     18  O   UNL     1       6.609   5.626  17.955  0.00  0.00    +0.000 OA
ENDBRANCH   1  18
BRANCH   4  19
ATOM     19  C   UNL     1       5.759   3.641  12.738  0.00  0.00    +0.000 C 
ATOM     20  O   UNL     1       6.664   3.306  11.982  0.00  0.00    +0.000 OA
ENDBRANCH   4  19
TORSDOF 5
ENDMDL
MODEL 9
REMARK VINA RESULT:      -6.7      2.047      5.766
REMARK  Name = 
REMARK  6 active torsions:
REMARK  status: ('A' for Active; 'I' for Inactive)
REMARK    1  A    between atoms: C_1  and  O_2
REMARK    2  A    between atoms: O_2  and  C_3
REMARK    3  A    between atoms: C_6  and  C_7
REMARK    4  A    between atoms: C_10  and  C_11
REMARK    5  A    between atoms: C_13  and  C_14
REMARK    6  A    between atoms: C_18  and  O_19
REMARK                            x       y       z     vdW  Elec       q    Type
REMARK                         _______ _______ _______ _____ _____    ______ ____
ROOT
ATOM      1  C   UNL     1       4.048   6.134  17.239  0.00  0.00    +0.000 A 
ATOM      2  C   UNL     1       4.791   6.808  16.248  0.00  0.00    +0.000 A 
ATOM      3  C   UNL     1       5.503   6.103  15.282  0.00  0.00    +0.000 A 
ATOM      4  C   UNL     1       5.515   4.715  15.326  0.00  0.00    +0.000 A 
ATOM      5  C   UNL     1       4.839   4.037  16.340  0.00  0.00    +0.000 A 
ATOM      6  C   UNL     1       4.058   4.714  17.307  0.00  0.00    +0.000 A 
ENDROOT
BRANCH   6   7
ATOM      7  C   UNL     1       3.280   3.911  18.305  0.00  0.00    +0.000 A 
ATOM      8  C   UNL     1       3.923   3.242  19.366  0.00  0.00    +0.000 A 
ATOM      9  C   UNL     1       3.199   2.491  20.306  0.00  0.00    +0.000 A 
ATOM     10  C   UNL     1       1.815   2.357  20.199  0.00  0.00    +0.000 A 
ATOM     11  C   UNL     1       1.150   2.986  19.154  0.00  0.00    +0.000 A 
ATOM     12  C   UNL     1       1.871   3.757  18.233  0.00  0.00    +0.000 A 
BRANCH   9  13
ATOM     13  C   UNL     1       3.911   1.838  21.424  0.00  0.00    +0.000 C 
ATOM     14  O   UNL     1       5.089   1.519  21.346  0.00  0.00    +0.000 OA
ENDBRANCH   9  13
BRANCH  12  15
ATOM     15  O   UNL     1       1.159   4.386  17.241  0.00  0.00    +0.000 OA
ATOM     16  H   UNL     1       0.420   4.878  17.637  0.00  0.00    +0.000 HD
ENDBRANCH  12  15
ENDBRANCH   6   7
BRANCH   1  18
ATOM     17  C   UNL     1       2.779   8.075  17.787  0.00  0.00    +0.000 C 
ATOM     18  O   UNL     1       3.322   6.818  18.185  0.00  0.00    +0.000 OA
ENDBRANCH   1  18
BRANCH   4  19
ATOM     19  C   UNL     1       6.219   3.940  14.287  0.00  0.00    +0.000 C 
ATOM     20  O   UNL     1       5.759   3.795  13.160  0.00  0.00    +0.000 OA
ENDBRANCH   4  19
TORSDOF 5
ENDMDL
