MODEL 1
REMARK VINA RESULT:      -7.1      0.000      0.000
REMARK  Name = 
REMARK  11 active torsions:
REMARK  status: ('A' for Active; 'I' for Inactive)
REMARK    1  A    between atoms: C_1  and  O_2
REMARK    2  A    between atoms: O_2  and  C_3
REMARK    3  A    between atoms: C_3  and  C_4
REMARK    4  A    between atoms: C_4  and  N_5
REMARK    5  A    between atoms: N_5  and  C_6
REMARK    6  A    between atoms: C_6  and  C_18
REMARK    7  A    between atoms: C_9  and  C_10
REMARK    8  A    between atoms: N_11  and  C_12
REMARK    9  A    between atoms: C_12  and  C_13
REMARK   10  A    between atoms: C_13  and  O_14
REMARK   11  A    between atoms: O_14  and  C_15
REMARK                            x       y       z     vdW  Elec       q    Type
REMARK                         _______ _______ _______ _____ _____    ______ ____
ROOT
ATOM      1  C   UNL     1       2.899   5.962  19.630  0.00  0.00    +0.000 C 
ATOM      2  C   UNL     1       2.359   7.200  19.495  0.00  0.00    +0.000 C 
ATOM      3  N   UNL     1       2.517   8.056  18.413  0.00  0.00    +0.000 NA
ATOM      4  C   UNL     1       1.750   9.069  18.674  0.00  0.00    +0.000 C 
ATOM      5  C   UNL     1       1.668  10.231  17.737  0.00  0.00    +0.000 C 
ATOM      6  N   UNL     1       1.053   9.000  19.821  0.00  0.00    +0.000 N 
ATOM      7  C   UNL     1       1.445   7.865  20.483  0.00  0.00    +0.000 C 
ATOM      8  O   UNL     1       1.144   7.529  21.613  0.00  0.00    +0.000 OA
ENDROOT
BRANCH   1   9
ATOM      9  C   UNL     1       3.761   5.458  18.591  0.00  0.00    +0.000 A 
ATOM     10  C   UNL     1       3.588   4.553  17.556  0.00  0.00    +0.000 A 
ATOM     11  C   UNL     1       4.763   4.565  16.750  0.00  0.00    +0.000 A 
ATOM     12  C   UNL     1       5.153   3.903  15.570  0.00  0.00    +0.000 A 
ATOM     13  C   UNL     1       6.410   4.179  15.014  0.00  0.00    +0.000 A 
ATOM     14  C   UNL     1       7.273   5.090  15.620  0.00  0.00    +0.000 A 
ATOM     15  C   UNL     1       6.912   5.748  16.798  0.00  0.00    +0.000 A 
ATOM     16  C   UNL     1       5.652   5.466  17.332  0.00  0.00    +0.000 A 
ATOM     17  N   UNL     1       5.035   5.959  18.454  0.00  0.00    +0.000 N 
ATOM     18  H   UNL     1       5.455   6.599  19.115  0.00  0.00    +0.000 HD
ENDBRANCH   1   9
BRANCH   1  19
ATOM     19  N   UNL     1       2.647   5.105  20.699  0.00  0.00    +0.000 N 
ATOM     20  H   UNL     1       3.496   4.688  21.081  0.00  0.00    +0.000 HD
BRANCH  19  21
ATOM     21  C   UNL     1       1.574   4.099  20.651  0.00  0.00    +0.000 C 
BRANCH  21  22
ATOM     22  C   UNL     1       2.154   2.685  20.767  0.00  0.00    +0.000 C 
BRANCH  22  24
ATOM     23  C   UNL     1       0.797   2.583  18.840  0.00  0.00    +0.000 C 
ATOM     24  O   UNL     1       1.812   1.938  19.594  0.00  0.00    +0.000 OA
ENDBRANCH  22  24
ENDBRANCH  21  22
ENDBRANCH  19  21
ENDBRANCH   1  19
BRANCH   6  25
ATOM     25  C   UNL     1       0.101   9.938  20.405  0.00  0.00    +0.000 C 
BRANCH  25  26
ATOM     26  C   UNL     1       0.720  10.942  21.384  0.00  0.00    +0.000 C 
BRANCH  26  27
ATOM     27  O   UNL     1       0.504  10.540  22.739  0.00  0.00    +0.000 OA
ATOM     28  C   UNL     1      -0.884  10.446  23.035  0.00  0.00    +0.000 C 
ENDBRANCH  26  27
ENDBRANCH  25  26
ENDBRANCH   6  25
TORSDOF 8
ENDMDL
MODEL 2
REMARK VINA RESULT:      -7.0      2.262      7.148
REMARK  Name = 
REMARK  11 active torsions:
REMARK  status: ('A' for Active; 'I' for Inactive)
REMARK    1  A    between atoms: C_1  and  O_2
REMARK    2  A    between atoms: O_2  and  C_3
REMARK    3  A    between atoms: C_3  and  C_4
REMARK    4  A    between atoms: C_4  and  N_5
REMARK    5  A    between atoms: N_5  and  C_6
REMARK    6  A    between atoms: C_6  and  C_18
REMARK    7  A    between atoms: C_9  and  C_10
REMARK    8  A    between atoms: N_11  and  C_12
REMARK    9  A    between atoms: C_12  and  C_13
REMARK   10  A    between atoms: C_13  and  O_14
REMARK   11  A    between atoms: O_14  and  C_15
REMARK                            x       y       z     vdW  Elec       q    Type
REMARK                         _______ _______ _______ _____ _____    ______ ____
ROOT
ATOM      1  C   UNL     1       2.832   6.033  18.022  0.00  0.00    +0.000 C 
ATOM      2  C   UNL     1       4.111   6.052  17.564  0.00  0.00    +0.000 C 
ATOM      3  N   UNL     1       5.037   7.071  17.747  0.00  0.00    +0.000 NA
ATOM      4  C   UNL     1       6.137   6.617  17.231  0.00  0.00    +0.000 C 
ATOM      5  C   UNL     1       7.378   7.452  17.214  0.00  0.00    +0.000 C 
ATOM      6  N   UNL     1       6.082   5.374  16.724  0.00  0.00    +0.000 N 
ATOM      7  C   UNL     1       4.781   4.946  16.803  0.00  0.00    +0.000 C 
ATOM      8  O   UNL     1       4.308   3.933  16.324  0.00  0.00    +0.000 OA
ENDROOT
BRANCH   1   9
ATOM      9  C   UNL     1       2.330   7.176  18.741  0.00  0.00    +0.000 A 
ATOM     10  C   UNL     1       1.873   8.426  18.357  0.00  0.00    +0.000 A 
ATOM     11  C   UNL     1       1.359   9.088  19.510  0.00  0.00    +0.000 A 
ATOM     12  C   UNL     1       0.743  10.334  19.735  0.00  0.00    +0.000 A 
ATOM     13  C   UNL     1       0.324  10.666  21.031  0.00  0.00    +0.000 A 
ATOM     14  C   UNL     1       0.517   9.782  22.091  0.00  0.00    +0.000 A 
ATOM     15  C   UNL     1       1.138   8.546  21.893  0.00  0.00    +0.000 A 
ATOM     16  C   UNL     1       1.542   8.230  20.592  0.00  0.00    +0.000 A 
ATOM     17  N   UNL     1       2.158   7.106  20.105  0.00  0.00    +0.000 N 
ATOM     18  H   UNL     1       2.466   6.323  20.665  0.00  0.00    +0.000 HD
ENDBRANCH   1   9
BRANCH   1  19
ATOM     19  N   UNL     1       1.964   4.953  17.884  0.00  0.00    +0.000 N 
ATOM     20  H   UNL     1       0.985   5.237  17.829  0.00  0.00    +0.000 HD
BRANCH  19  21
ATOM     21  C   UNL     1       2.087   3.746  18.716  0.00  0.00    +0.000 C 
BRANCH  21  22
ATOM     22  C   UNL     1       0.896   3.625  19.674  0.00  0.00    +0.000 C 
BRANCH  22  24
ATOM     23  C   UNL     1       2.223   3.684  21.624  0.00  0.00    +0.000 C 
ATOM     24  O   UNL     1       1.195   4.327  20.886  0.00  0.00    +0.000 OA
ENDBRANCH  22  24
ENDBRANCH  21  22
ENDBRANCH  19  21
ENDBRANCH   1  19
BRANCH   6  25
ATOM     25  C   UNL     1       7.118   4.564  16.095  0.00  0.00    +0.000 C 
BRANCH  25  26
ATOM     26  C   UNL     1       7.160   4.663  14.566  0.00  0.00    +0.000 C 
BRANCH  26  27
ATOM     27  O   UNL     1       6.433   3.593  13.959  0.00  0.00    +0.000 OA
ATOM     28  C   UNL     1       6.444   3.700  12.540  0.00  0.00    +0.000 C 
ENDBRANCH  26  27
ENDBRANCH  25  26
ENDBRANCH   6  25
TORSDOF 8
ENDMDL
MODEL 3
REMARK VINA RESULT:      -7.0      2.695      7.107
REMARK  Name = 
REMARK  11 active torsions:
REMARK  status: ('A' for Active; 'I' for Inactive)
REMARK    1  A    between atoms: C_1  and  O_2
REMARK    2  A    between atoms: O_2  and  C_3
REMARK    3  A    between atoms: C_3  and  C_4
REMARK    4  A    between atoms: C_4  and  N_5
REMARK    5  A    between atoms: N_5  and  C_6
REMARK    6  A    between atoms: C_6  and  C_18
REMARK    7  A    between atoms: C_9  and  C_10
REMARK    8  A    between atoms: N_11  and  C_12
REMARK    9  A    between atoms: C_12  and  C_13
REMARK   10  A    between atoms: C_13  and  O_14
REMARK   11  A    between atoms: O_14  and  C_15
REMARK                            x       y       z     vdW  Elec       q    Type
REMARK                         _______ _______ _______ _____ _____    ______ ____
ROOT
ATOM      1  C   UNL     1       2.787   6.009  18.033  0.00  0.00    +0.000 C 
ATOM      2  C   UNL     1       4.074   5.995  17.597  0.00  0.00    +0.000 C 
ATOM      3  N   UNL     1       5.019   6.996  17.785  0.00  0.00    +0.000 NA
ATOM      4  C   UNL     1       6.118   6.511  17.294  0.00  0.00    +0.000 C 
ATOM      5  C   UNL     1       7.377   7.319  17.289  0.00  0.00    +0.000 C 
ATOM      6  N   UNL     1       6.044   5.263  16.801  0.00  0.00    +0.000 N 
ATOM      7  C   UNL     1       4.733   4.865  16.863  0.00  0.00    +0.000 C 
ATOM      8  O   UNL     1       4.247   3.856  16.388  0.00  0.00    +0.000 OA
ENDROOT
BRANCH   1   9
ATOM      9  C   UNL     1       2.297   7.172  18.728  0.00  0.00    +0.000 A 
ATOM     10  C   UNL     1       1.839   8.413  18.318  0.00  0.00    +0.000 A 
ATOM     11  C   UNL     1       1.342   9.106  19.459  0.00  0.00    +0.000 A 
ATOM     12  C   UNL     1       0.732  10.360  19.660  0.00  0.00    +0.000 A 
ATOM     13  C   UNL     1       0.330  10.726  20.952  0.00  0.00    +0.000 A 
ATOM     14  C   UNL     1       0.534   9.869  22.033  0.00  0.00    +0.000 A 
ATOM     15  C   UNL     1       1.149   8.627  21.858  0.00  0.00    +0.000 A 
ATOM     16  C   UNL     1       1.535   8.276  20.561  0.00  0.00    +0.000 A 
ATOM     17  N   UNL     1       2.142   7.137  20.095  0.00  0.00    +0.000 N 
ATOM     18  H   UNL     1       2.455   6.368  20.672  0.00  0.00    +0.000 HD
ENDBRANCH   1   9
BRANCH   1  19
ATOM     19  N   UNL     1       1.898   4.946  17.893  0.00  0.00    +0.000 N 
ATOM     20  H   UNL     1       1.003   5.229  17.492  0.00  0.00    +0.000 HD
BRANCH  19  21
ATOM     21  C   UNL     1       1.676   3.972  18.973  0.00  0.00    +0.000 C 
BRANCH  21  22
ATOM     22  C   UNL     1       1.562   2.553  18.405  0.00  0.00    +0.000 C 
BRANCH  22  24
ATOM     23  C   UNL     1       3.564   2.341  19.637  0.00  0.00    +0.000 C 
ATOM     24  O   UNL     1       2.837   1.906  18.497  0.00  0.00    +0.000 OA
ENDBRANCH  22  24
ENDBRANCH  21  22
ENDBRANCH  19  21
ENDBRANCH   1  19
BRANCH   6  25
ATOM     25  C   UNL     1       7.074   4.423  16.201  0.00  0.00    +0.000 C 
BRANCH  25  26
ATOM     26  C   UNL     1       7.084   4.430  14.669  0.00  0.00    +0.000 C 
BRANCH  26  27
ATOM     27  O   UNL     1       7.741   5.594  14.162  0.00  0.00    +0.000 OA
ATOM     28  C   UNL     1       8.131   5.418  12.805  0.00  0.00    +0.000 C 
ENDBRANCH  26  27
ENDBRANCH  25  26
ENDBRANCH   6  25
TORSDOF 8
ENDMDL
MODEL 4
REMARK VINA RESULT:      -6.9      2.200      7.053
REMARK  Name = 
REMARK  11 active torsions:
REMARK  status: ('A' for Active; 'I' for Inactive)
REMARK    1  A    between atoms: C_1  and  O_2
REMARK    2  A    between atoms: O_2  and  C_3
REMARK    3  A    between atoms: C_3  and  C_4
REMARK    4  A    between atoms: C_4  and  N_5
REMARK    5  A    between atoms: N_5  and  C_6
REMARK    6  A    between atoms: C_6  and  C_18
REMARK    7  A    between atoms: C_9  and  C_10
REMARK    8  A    between atoms: N_11  and  C_12
REMARK    9  A    between atoms: C_12  and  C_13
REMARK   10  A    between atoms: C_13  and  O_14
REMARK   11  A    between atoms: O_14  and  C_15
REMARK                            x       y       z     vdW  Elec       q    Type
REMARK                         _______ _______ _______ _____ _____    ______ ____
ROOT
ATOM      1  C   UNL     1       2.816   5.575  18.114  0.00  0.00    +0.000 C 
ATOM      2  C   UNL     1       4.066   5.737  17.607  0.00  0.00    +0.000 C 
ATOM      3  N   UNL     1       4.908   6.821  17.819  0.00  0.00    +0.000 NA
ATOM      4  C   UNL     1       6.018   6.500  17.230  0.00  0.00    +0.000 C 
ATOM      5  C   UNL     1       7.180   7.441  17.218  0.00  0.00    +0.000 C 
ATOM      6  N   UNL     1       6.048   5.290  16.645  0.00  0.00    +0.000 N 
ATOM      7  C   UNL     1       4.794   4.744  16.749  0.00  0.00    +0.000 C 
ATOM      8  O   UNL     1       4.389   3.724  16.223  0.00  0.00    +0.000 OA
ENDROOT
BRANCH   1   9
ATOM      9  C   UNL     1       2.250   6.622  18.926  0.00  0.00    +0.000 A 
ATOM     10  C   UNL     1       1.984   6.749  20.279  0.00  0.00    +0.000 A 
ATOM     11  C   UNL     1       1.552   8.084  20.527  0.00  0.00    +0.000 A 
ATOM     12  C   UNL     1       1.185   8.801  21.682  0.00  0.00    +0.000 A 
ATOM     13  C   UNL     1       0.828  10.151  21.565  0.00  0.00    +0.000 A 
ATOM     14  C   UNL     1       0.826  10.784  20.323  0.00  0.00    +0.000 A 
ATOM     15  C   UNL     1       1.174  10.089  19.163  0.00  0.00    +0.000 A 
ATOM     16  C   UNL     1       1.535   8.745  19.301  0.00  0.00    +0.000 A 
ATOM     17  N   UNL     1       1.925   7.831  18.355  0.00  0.00    +0.000 N 
ATOM     18  H   UNL     1       1.961   8.005  17.359  0.00  0.00    +0.000 HD
ENDBRANCH   1   9
BRANCH   1  19
ATOM     19  N   UNL     1       2.039   4.432  17.940  0.00  0.00    +0.000 N 
ATOM     20  H   UNL     1       1.054   4.644  17.782  0.00  0.00    +0.000 HD
BRANCH  19  21
ATOM     21  C   UNL     1       2.162   3.267  18.830  0.00  0.00    +0.000 C 
BRANCH  21  22
ATOM     22  C   UNL     1       0.851   3.025  19.588  0.00  0.00    +0.000 C 
BRANCH  22  24
ATOM     23  C   UNL     1       2.113   2.856  21.575  0.00  0.00    +0.000 C 
ATOM     24  O   UNL     1       1.001   3.470  20.941  0.00  0.00    +0.000 OA
ENDBRANCH  22  24
ENDBRANCH  21  22
ENDBRANCH  19  21
ENDBRANCH   1  19
BRANCH   6  25
ATOM     25  C   UNL     1       7.121   4.617  15.923  0.00  0.00    +0.000 C 
BRANCH  25  26
ATOM     26  C   UNL     1       7.067   4.790  14.402  0.00  0.00    +0.000 C 
BRANCH  26  27
ATOM     27  O   UNL     1       6.395   3.692  13.781  0.00  0.00    +0.000 OA
ATOM     28  C   UNL     1       6.563   3.716  12.368  0.00  0.00    +0.000 C 
ENDBRANCH  26  27
ENDBRANCH  25  26
ENDBRANCH   6  25
TORSDOF 8
ENDMDL
MODEL 5
REMARK VINA RESULT:      -6.8      2.306      6.447
REMARK  Name = 
REMARK  11 active torsions:
REMARK  status: ('A' for Active; 'I' for Inactive)
REMARK    1  A    between atoms: C_1  and  O_2
REMARK    2  A    between atoms: O_2  and  C_3
REMARK    3  A    between atoms: C_3  and  C_4
REMARK    4  A    between atoms: C_4  and  N_5
REMARK    5  A    between atoms: N_5  and  C_6
REMARK    6  A    between atoms: C_6  and  C_18
REMARK    7  A    between atoms: C_9  and  C_10
REMARK    8  A    between atoms: N_11  and  C_12
REMARK    9  A    between atoms: C_12  and  C_13
REMARK   10  A    between atoms: C_13  and  O_14
REMARK   11  A    between atoms: O_14  and  C_15
REMARK                            x       y       z     vdW  Elec       q    Type
REMARK                         _______ _______ _______ _____ _____    ______ ____
ROOT
ATOM      1  C   UNL     1       2.681   6.086  19.785  0.00  0.00    +0.000 C 
ATOM      2  C   UNL     1       3.480   5.919  18.699  0.00  0.00    +0.000 C 
ATOM      3  N   UNL     1       3.721   6.854  17.701  0.00  0.00    +0.000 NA
ATOM      4  C   UNL     1       4.611   6.301  16.936  0.00  0.00    +0.000 C 
ATOM      5  C   UNL     1       5.115   7.004  15.715  0.00  0.00    +0.000 C 
ATOM      6  N   UNL     1       5.034   5.082  17.308  0.00  0.00    +0.000 N 
ATOM      7  C   UNL     1       4.293   4.695  18.396  0.00  0.00    +0.000 C 
ATOM      8  O   UNL     1       4.286   3.602  18.931  0.00  0.00    +0.000 OA
ENDROOT
BRANCH   1   9
ATOM      9  C   UNL     1       1.962   7.324  19.940  0.00  0.00    +0.000 A 
ATOM     10  C   UNL     1       1.351   7.952  21.014  0.00  0.00    +0.000 A 
ATOM     11  C   UNL     1       0.922   9.243  20.592  0.00  0.00    +0.000 A 
ATOM     12  C   UNL     1       0.289  10.327  21.232  0.00  0.00    +0.000 A 
ATOM     13  C   UNL     1       0.030  11.495  20.503  0.00  0.00    +0.000 A 
ATOM     14  C   UNL     1       0.383  11.590  19.158  0.00  0.00    +0.000 A 
ATOM     15  C   UNL     1       0.999  10.523  18.500  0.00  0.00    +0.000 A 
ATOM     16  C   UNL     1       1.257   9.369  19.246  0.00  0.00    +0.000 A 
ATOM     17  N   UNL     1       1.848   8.188  18.875  0.00  0.00    +0.000 N 
ATOM     18  H   UNL     1       2.154   7.960  17.938  0.00  0.00    +0.000 HD
ENDBRANCH   1   9
BRANCH   1  19
ATOM     19  N   UNL     1       2.533   5.148  20.805  0.00  0.00    +0.000 N 
ATOM     20  H   UNL     1       3.385   4.613  20.977  0.00  0.00    +0.000 HD
BRANCH  19  21
ATOM     21  C   UNL     1       1.362   4.261  20.880  0.00  0.00    +0.000 C 
BRANCH  21  22
ATOM     22  C   UNL     1       1.791   2.828  21.217  0.00  0.00    +0.000 C 
BRANCH  22  24
ATOM     23  C   UNL     1       0.869   2.585  19.059  0.00  0.00    +0.000 C 
ATOM     24  O   UNL     1       1.746   2.032  20.028  0.00  0.00    +0.000 OA
ENDBRANCH  22  24
ENDBRANCH  21  22
ENDBRANCH  19  21
ENDBRANCH   1  19
BRANCH   6  25
ATOM     25  C   UNL     1       6.021   4.198  16.699  0.00  0.00    +0.000 C 
BRANCH  25  26
ATOM     26  C   UNL     1       7.475   4.540  17.040  0.00  0.00    +0.000 C 
BRANCH  26  27
ATOM     27  O   UNL     1       7.706   4.463  18.449  0.00  0.00    +0.000 OA
ATOM     28  C   UNL     1       7.859   5.758  19.019  0.00  0.00    +0.000 C 
ENDBRANCH  26  27
ENDBRANCH  25  26
ENDBRANCH   6  25
TORSDOF 8
ENDMDL
MODEL 6
REMARK VINA RESULT:      -6.7      2.350      6.615
REMARK  Name = 
REMARK  11 active torsions:
REMARK  status: ('A' for Active; 'I' for Inactive)
REMARK    1  A    between atoms: C_1  and  O_2
REMARK    2  A    between atoms: O_2  and  C_3
REMARK    3  A    between atoms: C_3  and  C_4
REMARK    4  A    between atoms: C_4  and  N_5
REMARK    5  A    between atoms: N_5  and  C_6
REMARK    6  A    between atoms: C_6  and  C_18
REMARK    7  A    between atoms: C_9  and  C_10
REMARK    8  A    between atoms: N_11  and  C_12
REMARK    9  A    between atoms: C_12  and  C_13
REMARK   10  A    between atoms: C_13  and  O_14
REMARK   11  A    between atoms: O_14  and  C_15
REMARK                            x       y       z     vdW  Elec       q    Type
REMARK                         _______ _______ _______ _____ _____    ______ ____
ROOT
ATOM      1  C   UNL     1       2.797   6.212  19.767  0.00  0.00    +0.000 C 
ATOM      2  C   UNL     1       3.555   6.009  18.658  0.00  0.00    +0.000 C 
ATOM      3  N   UNL     1       3.773   6.918  17.631  0.00  0.00    +0.000 NA
ATOM      4  C   UNL     1       4.628   6.337  16.847  0.00  0.00    +0.000 C 
ATOM      5  C   UNL     1       5.098   7.005  15.594  0.00  0.00    +0.000 C 
ATOM      6  N   UNL     1       5.048   5.120  17.233  0.00  0.00    +0.000 N 
ATOM      7  C   UNL     1       4.341   4.768  18.354  0.00  0.00    +0.000 C 
ATOM      8  O   UNL     1       4.339   3.688  18.915  0.00  0.00    +0.000 OA
ENDROOT
BRANCH   1   9
ATOM      9  C   UNL     1       2.099   7.463  19.918  0.00  0.00    +0.000 A 
ATOM     10  C   UNL     1       1.604   8.400  19.025  0.00  0.00    +0.000 A 
ATOM     11  C   UNL     1       0.870   9.374  19.761  0.00  0.00    +0.000 A 
ATOM     12  C   UNL     1       0.126  10.517  19.410  0.00  0.00    +0.000 A 
ATOM     13  C   UNL     1      -0.510  11.256  20.417  0.00  0.00    +0.000 A 
ATOM     14  C   UNL     1      -0.406  10.877  21.754  0.00  0.00    +0.000 A 
ATOM     15  C   UNL     1       0.338   9.755  22.127  0.00  0.00    +0.000 A 
ATOM     16  C   UNL     1       0.957   9.026  21.107  0.00  0.00    +0.000 A 
ATOM     17  N   UNL     1       1.731   7.894  21.172  0.00  0.00    +0.000 N 
ATOM     18  H   UNL     1       2.014   7.432  22.025  0.00  0.00    +0.000 HD
ENDBRANCH   1   9
BRANCH   1  19
ATOM     19  N   UNL     1       2.673   5.300  20.812  0.00  0.00    +0.000 N 
ATOM     20  H   UNL     1       3.534   4.781  20.988  0.00  0.00    +0.000 HD
BRANCH  19  21
ATOM     21  C   UNL     1       1.515   4.399  20.923  0.00  0.00    +0.000 C 
BRANCH  21  22
ATOM     22  C   UNL     1       1.975   2.942  21.055  0.00  0.00    +0.000 C 
BRANCH  22  24
ATOM     23  C   UNL     1       1.056   2.650  18.902  0.00  0.00    +0.000 C 
ATOM     24  O   UNL     1       1.164   2.116  20.212  0.00  0.00    +0.000 OA
ENDBRANCH  22  24
ENDBRANCH  21  22
ENDBRANCH  19  21
ENDBRANCH   1  19
BRANCH   6  25
ATOM     25  C   UNL     1       6.001   4.210  16.609  0.00  0.00    +0.000 C 
BRANCH  25  26
ATOM     26  C   UNL     1       7.470   4.523  16.915  0.00  0.00    +0.000 C 
BRANCH  26  27
ATOM     27  O   UNL     1       7.738   4.424  18.315  0.00  0.00    +0.000 OA
ATOM     28  C   UNL     1       7.890   5.710  18.904  0.00  0.00    +0.000 C 
ENDBRANCH  26  27
ENDBRANCH  25  26
ENDBRANCH   6  25
TORSDOF 8
ENDMDL
MODEL 7
REMARK VINA RESULT:      -6.6      0.773      1.206
REMARK  Name = 
REMARK  11 active torsions:
REMARK  status: ('A' for Active; 'I' for Inactive)
REMARK    1  A    between atoms: C_1  and  O_2
REMARK    2  A    between atoms: O_2  and  C_3
REMARK    3  A    between atoms: C_3  and  C_4
REMARK    4  A    between atoms: C_4  and  N_5
REMARK    5  A    between atoms: N_5  and  C_6
REMARK    6  A    between atoms: C_6  and  C_18
REMARK    7  A    between atoms: C_9  and  C_10
REMARK    8  A    between atoms: N_11  and  C_12
REMARK    9  A    between atoms: C_12  and  C_13
REMARK   10  A    between atoms: C_13  and  O_14
REMARK   11  A    between atoms: O_14  and  C_15
REMARK                            x       y       z     vdW  Elec       q    Type
REMARK                         _______ _______ _______ _____ _____    ______ ____
ROOT
ATOM      1  C   UNL     1       2.975   6.174  19.680  0.00  0.00    +0.000 C 
ATOM      2  C   UNL     1       2.365   7.378  19.526  0.00  0.00    +0.000 C 
ATOM      3  N   UNL     1       2.598   8.296  18.510  0.00  0.00    +0.000 NA
ATOM      4  C   UNL     1       1.730   9.239  18.709  0.00  0.00    +0.000 C 
ATOM      5  C   UNL     1       1.684  10.440  17.818  0.00  0.00    +0.000 C 
ATOM      6  N   UNL     1       0.897   9.064  19.748  0.00  0.00    +0.000 N 
ATOM      7  C   UNL     1       1.284   7.926  20.409  0.00  0.00    +0.000 C 
ATOM      8  O   UNL     1       0.863   7.514  21.473  0.00  0.00    +0.000 OA
ENDROOT
BRANCH   1   9
ATOM      9  C   UNL     1       4.000   5.785  18.745  0.00  0.00    +0.000 A 
ATOM     10  C   UNL     1       5.358   5.536  18.858  0.00  0.00    +0.000 A 
ATOM     11  C   UNL     1       5.828   5.037  17.609  0.00  0.00    +0.000 A 
ATOM     12  C   UNL     1       7.075   4.586  17.136  0.00  0.00    +0.000 A 
ATOM     13  C   UNL     1       7.180   4.123  15.818  0.00  0.00    +0.000 A 
ATOM     14  C   UNL     1       6.071   4.112  14.974  0.00  0.00    +0.000 A 
ATOM     15  C   UNL     1       4.827   4.567  15.418  0.00  0.00    +0.000 A 
ATOM     16  C   UNL     1       4.740   5.017  16.739  0.00  0.00    +0.000 A 
ATOM     17  N   UNL     1       3.666   5.505  17.440  0.00  0.00    +0.000 N 
ATOM     18  H   UNL     1       2.743   5.658  17.056  0.00  0.00    +0.000 HD
ENDBRANCH   1   9
BRANCH   1  19
ATOM     19  N   UNL     1       2.651   5.249  20.669  0.00  0.00    +0.000 N 
ATOM     20  H   UNL     1       3.212   5.359  21.514  0.00  0.00    +0.000 HD
BRANCH  19  21
ATOM     21  C   UNL     1       2.477   3.819  20.368  0.00  0.00    +0.000 C 
BRANCH  21  22
ATOM     22  C   UNL     1       1.007   3.410  20.518  0.00  0.00    +0.000 C 
BRANCH  22  24
ATOM     23  C   UNL     1       1.649   2.587  18.402  0.00  0.00    +0.000 C 
ATOM     24  O   UNL     1       0.594   2.700  19.346  0.00  0.00    +0.000 OA
ENDBRANCH  22  24
ENDBRANCH  21  22
ENDBRANCH  19  21
ENDBRANCH   1  19
BRANCH   6  25
ATOM     25  C   UNL     1      -0.191   9.904  20.238  0.00  0.00    +0.000 C 
BRANCH  25  26
ATOM     26  C   UNL     1       0.255  11.043  21.160  0.00  0.00    +0.000 C 
BRANCH  26  27
ATOM     27  O   UNL     1       0.288  10.620  22.525  0.00  0.00    +0.000 OA
ATOM     28  C   UNL     1      -1.015  10.621  23.098  0.00  0.00    +0.000 C 
ENDBRANCH  26  27
ENDBRANCH  25  26
ENDBRANCH   6  25
TORSDOF 8
ENDMDL
MODEL 8
REMARK VINA RESULT:      -6.6      0.996      1.348
REMARK  Name = 
REMARK  11 active torsions:
REMARK  status: ('A' for Active; 'I' for Inactive)
REMARK    1  A    between atoms: C_1  and  O_2
REMARK    2  A    between atoms: O_2  and  C_3
REMARK    3  A    between atoms: C_3  and  C_4
REMARK    4  A    between atoms: C_4  and  N_5
REMARK    5  A    between atoms: N_5  and  C_6
REMARK    6  A    between atoms: C_6  and  C_18
REMARK    7  A    between atoms: C_9  and  C_10
REMARK    8  A    between atoms: N_11  and  C_12
REMARK    9  A    between atoms: C_12  and  C_13
REMARK   10  A    between atoms: C_13  and  O_14
REMARK   11  A    between atoms: O_14  and  C_15
REMARK                            x       y       z     vdW  Elec       q    Type
REMARK                         _______ _______ _______ _____ _____    ______ ____
ROOT
ATOM      1  C   UNL     1       2.765   6.011  19.720  0.00  0.00    +0.000 C 
ATOM      2  C   UNL     1       2.284   7.271  19.561  0.00  0.00    +0.000 C 
ATOM      3  N   UNL     1       2.514   8.111  18.479  0.00  0.00    +0.000 NA
ATOM      4  C   UNL     1       1.785   9.159  18.710  0.00  0.00    +0.000 C 
ATOM      5  C   UNL     1       1.785  10.317  17.764  0.00  0.00    +0.000 C 
ATOM      6  N   UNL     1       1.049   9.129  19.834  0.00  0.00    +0.000 N 
ATOM      7  C   UNL     1       1.370   7.982  20.515  0.00  0.00    +0.000 C 
ATOM      8  O   UNL     1       1.018   7.668  21.636  0.00  0.00    +0.000 OA
ENDROOT
BRANCH   1   9
ATOM      9  C   UNL     1       3.636   5.462  18.712  0.00  0.00    +0.000 A 
ATOM     10  C   UNL     1       3.420   4.777  17.527  0.00  0.00    +0.000 A 
ATOM     11  C   UNL     1       4.674   4.616  16.869  0.00  0.00    +0.000 A 
ATOM     12  C   UNL     1       5.076   4.049  15.644  0.00  0.00    +0.000 A 
ATOM     13  C   UNL     1       6.430   4.087  15.284  0.00  0.00    +0.000 A 
ATOM     14  C   UNL     1       7.376   4.671  16.125  0.00  0.00    +0.000 A 
ATOM     15  C   UNL     1       7.001   5.229  17.350  0.00  0.00    +0.000 A 
ATOM     16  C   UNL     1       5.645   5.188  17.688  0.00  0.00    +0.000 A 
ATOM     17  N   UNL     1       4.995   5.655  18.802  0.00  0.00    +0.000 N 
ATOM     18  H   UNL     1       5.446   6.078  19.603  0.00  0.00    +0.000 HD
ENDBRANCH   1   9
BRANCH   1  19
ATOM     19  N   UNL     1       2.441   5.174  20.785  0.00  0.00    +0.000 N 
ATOM     20  H   UNL     1       3.261   4.751  21.220  0.00  0.00    +0.000 HD
BRANCH  19  21
ATOM     21  C   UNL     1       1.358   4.182  20.691  0.00  0.00    +0.000 C 
BRANCH  21  22
ATOM     22  C   UNL     1       1.930   2.776  20.471  0.00  0.00    +0.000 C 
BRANCH  22  24
ATOM     23  C   UNL     1       4.167   2.148  20.059  0.00  0.00    +0.000 C 
ATOM     24  O   UNL     1       3.264   2.726  20.990  0.00  0.00    +0.000 OA
ENDBRANCH  22  24
ENDBRANCH  21  22
ENDBRANCH  19  21
ENDBRANCH   1  19
BRANCH   6  25
ATOM     25  C   UNL     1       0.122  10.112  20.382  0.00  0.00    +0.000 C 
BRANCH  25  26
ATOM     26  C   UNL     1       0.782  11.196  21.241  0.00  0.00    +0.000 C 
BRANCH  26  27
ATOM     27  O   UNL     1       0.234  12.485  20.955  0.00  0.00    +0.000 OA
ATOM     28  C   UNL     1       1.074  13.219  20.072  0.00  0.00    +0.000 C 
ENDBRANCH  26  27
ENDBRANCH  25  26
ENDBRANCH   6  25
TORSDOF 8
ENDMDL
MODEL 9
REMARK VINA RESULT:      -6.5      1.382      1.560
REMARK  Name = 
REMARK  11 active torsions:
REMARK  status: ('A' for Active; 'I' for Inactive)
REMARK    1  A    between atoms: C_1  and  O_2
REMARK    2  A    between atoms: O_2  and  C_3
REMARK    3  A    between atoms: C_3  and  C_4
REMARK    4  A    between atoms: C_4  and  N_5
REMARK    5  A    between atoms: N_5  and  C_6
REMARK    6  A    between atoms: C_6  and  C_18
REMARK    7  A    between atoms: C_9  and  C_10
REMARK    8  A    between atoms: N_11  and  C_12
REMARK    9  A    between atoms: C_12  and  C_13
REMARK   10  A    between atoms: C_13  and  O_14
REMARK   11  A    between atoms: O_14  and  C_15
REMARK                            x       y       z     vdW  Elec       q    Type
REMARK                         _______ _______ _______ _____ _____    ______ ____
ROOT
ATOM      1  C   UNL     1       2.560   6.179  19.788  0.00  0.00    +0.000 C 
ATOM      2  C   UNL     1       2.166   7.465  19.603  0.00  0.00    +0.000 C 
ATOM      3  N   UNL     1       2.526   8.294  18.549  0.00  0.00    +0.000 NA
ATOM      4  C   UNL     1       1.843   9.382  18.732  0.00  0.00    +0.000 C 
ATOM      5  C   UNL     1       1.982  10.541  17.798  0.00  0.00    +0.000 C 
ATOM      6  N   UNL     1       1.023   9.390  19.797  0.00  0.00    +0.000 N 
ATOM      7  C   UNL     1       1.224   8.224  20.490  0.00  0.00    +0.000 C 
ATOM      8  O   UNL     1       0.770   7.927  21.579  0.00  0.00    +0.000 OA
ENDROOT
BRANCH   1   9
ATOM      9  C   UNL     1       3.473   5.584  18.845  0.00  0.00    +0.000 A 
ATOM     10  C   UNL     1       3.314   4.967  17.615  0.00  0.00    +0.000 A 
ATOM     11  C   UNL     1       4.607   4.708  17.074  0.00  0.00    +0.000 A 
ATOM     12  C   UNL     1       5.075   4.149  15.869  0.00  0.00    +0.000 A 
ATOM     13  C   UNL     1       6.456   4.067  15.644  0.00  0.00    +0.000 A 
ATOM     14  C   UNL     1       7.363   4.525  16.598  0.00  0.00    +0.000 A 
ATOM     15  C   UNL     1       6.921   5.071  17.806  0.00  0.00    +0.000 A 
ATOM     16  C   UNL     1       5.540   5.151  18.009  0.00  0.00    +0.000 A 
ATOM     17  N   UNL     1       4.828   5.640  19.075  0.00  0.00    +0.000 N 
ATOM     18  H   UNL     1       5.233   5.987  19.934  0.00  0.00    +0.000 HD
ENDBRANCH   1   9
BRANCH   1  19
ATOM     19  N   UNL     1       2.108   5.358  20.819  0.00  0.00    +0.000 N 
ATOM     20  H   UNL     1       2.862   5.026  21.420  0.00  0.00    +0.000 HD
BRANCH  19  21
ATOM     21  C   UNL     1       1.145   4.271  20.580  0.00  0.00    +0.000 C 
BRANCH  21  22
ATOM     22  C   UNL     1       1.578   2.995  21.312  0.00  0.00    +0.000 C 
BRANCH  22  24
ATOM     23  C   UNL     1       3.466   2.243  20.114  0.00  0.00    +0.000 C 
ATOM     24  O   UNL     1       3.006   2.900  21.285  0.00  0.00    +0.000 OA
ENDBRANCH  22  24
ENDBRANCH  21  22
ENDBRANCH  19  21
ENDBRANCH   1  19
BRANCH   6  25
ATOM     25  C   UNL     1       0.115  10.424  20.280  0.00  0.00    +0.000 C 
BRANCH  25  26
ATOM     26  C   UNL     1      -1.159  10.589  19.444  0.00  0.00    +0.000 C 
BRANCH  26  27
ATOM     27  O   UNL     1      -1.390  11.963  19.123  0.00  0.00    +0.000 OA
ATOM     28  C   UNL     1      -2.253  12.578  20.073  0.00  0.00    +0.000 C 
ENDBRANCH  26  27
ENDBRANCH  25  26
ENDBRANCH   6  25
TORSDOF 8
ENDMDL
