MODEL 1
REMARK VINA RESULT:      -8.1      0.000      0.000
REMARK  Name = 
REMARK  10 active torsions:
REMARK  status: ('A' for Active; 'I' for Inactive)
REMARK    1  A    between atoms: C_1  and  O_2
REMARK    2  A    between atoms: O_2  and  C_3
REMARK    3  A    between atoms: C_9  and  C_10
REMARK    4  A    between atoms: C_12  and  C_13
REMARK    5  A    between atoms: C_13  and  N_14
REMARK    6  A    between atoms: N_14  and  C_15
REMARK    7  A    between atoms: C_15  and  C_16
REMARK    8  A    between atoms: C_16  and  C_17
REMARK    9  A    between atoms: C_17  and  O_18
REMARK   10  A    between atoms: O_18  and  C_19
REMARK                            x       y       z     vdW  Elec       q    Type
REMARK                         _______ _______ _______ _____ _____    ______ ____
ROOT
ATOM      1  C   UNL     1       7.341   7.057  17.759  0.00  0.00    +0.000 C 
ENDROOT
BRANCH   1   2
ATOM      2  N   UNL     1       7.684   5.791  17.113  0.00  0.00    +0.000 NA
ATOM      3  H   UNL     1       8.256   5.945  16.282  0.00  0.00    +0.000 HD
BRANCH   2   4
ATOM      4  C   UNL     1       6.496   5.055  16.697  0.00  0.00    +0.000 C 
BRANCH   4   7
ATOM      5  C   UNL     1       3.988   4.918  17.365  0.00  0.00    +0.000 C 
ATOM      6  C   UNL     1       4.237   6.337  16.900  0.00  0.00    +0.000 C 
ATOM      7  C   UNL     1       5.353   5.554  17.534  0.00  0.00    +0.000 C 
BRANCH   5  14
ATOM      8  C   UNL     1       2.419   3.398  18.743  0.00  0.00    +0.000 A 
ATOM      9  C   UNL     1       1.452   3.258  19.753  0.00  0.00    +0.000 A 
ATOM     10  C   UNL     1       1.100   4.343  20.555  0.00  0.00    +0.000 A 
ATOM     11  C   UNL     1       1.730   5.561  20.362  0.00  0.00    +0.000 A 
ATOM     12  F   UNL     1       1.384   6.610  21.119  0.00  0.00    +0.000 F 
ATOM     13  C   UNL     1       2.693   5.716  19.373  0.00  0.00    +0.000 A 
ATOM     14  C   UNL     1       3.055   4.647  18.528  0.00  0.00    +0.000 A 
BRANCH   8  16
ATOM     15  C   UNL     1       3.641   1.376  18.409  0.00  0.00    +0.000 C 
ATOM     16  O   UNL     1       2.780   2.383  17.888  0.00  0.00    +0.000 OA
ENDBRANCH   8  16
ENDBRANCH   5  14
ENDBRANCH   4   7
ENDBRANCH   2   4
ENDBRANCH   1   2
BRANCH   1  17
ATOM     17  C   UNL     1       8.281   8.184  17.322  0.00  0.00    +0.000 C 
BRANCH  17  18
ATOM     18  C   UNL     1       8.059   9.466  18.115  0.00  0.00    +0.000 C 
BRANCH  18  19
ATOM     19  O   UNL     1       9.115   9.634  19.062  0.00  0.00    +0.000 OA
BRANCH  19  20
ATOM     20  C   UNL     1       9.647  10.895  19.146  0.00  0.00    +0.000 A 
ATOM     21  C   UNL     1      10.055  11.279  20.429  0.00  0.00    +0.000 A 
ATOM     22  C   UNL     1      10.589  12.551  20.658  0.00  0.00    +0.000 A 
ATOM     23  C   UNL     1      10.719  13.453  19.600  0.00  0.00    +0.000 A 
ATOM     24  C   UNL     1      11.245  14.803  19.799  0.00  0.00    +0.000 A 
ATOM     25  C   UNL     1      11.343  15.643  18.758  0.00  0.00    +0.000 A 
ATOM     26  C   UNL     1      10.931  15.233  17.395  0.00  0.00    +0.000 A 
ATOM     27  O   UNL     1      11.033  16.005  16.449  0.00  0.00    +0.000 OA
ATOM     28  N   UNL     1      10.445  13.962  17.251  0.00  0.00    +0.000 N 
ATOM     29  C   UNL     1      10.320  13.059  18.315  0.00  0.00    +0.000 A 
ATOM     30  C   UNL     1       9.793  11.789  18.082  0.00  0.00    +0.000 A 
ATOM     31  H   UNL     1      10.162  13.703  16.317  0.00  0.00    +0.000 HD
ENDBRANCH  19  20
ENDBRANCH  18  19
ENDBRANCH  17  18
ENDBRANCH   1  17
TORSDOF 9
ENDMDL
MODEL 2
REMARK VINA RESULT:      -7.9      5.538      8.587
REMARK  Name = 
REMARK  10 active torsions:
REMARK  status: ('A' for Active; 'I' for Inactive)
REMARK    1  A    between atoms: C_1  and  O_2
REMARK    2  A    between atoms: O_2  and  C_3
REMARK    3  A    between atoms: C_9  and  C_10
REMARK    4  A    between atoms: C_12  and  C_13
REMARK    5  A    between atoms: C_13  and  N_14
REMARK    6  A    between atoms: N_14  and  C_15
REMARK    7  A    between atoms: C_15  and  C_16
REMARK    8  A    between atoms: C_16  and  C_17
REMARK    9  A    between atoms: C_17  and  O_18
REMARK   10  A    between atoms: O_18  and  C_19
REMARK                            x       y       z     vdW  Elec       q    Type
REMARK                         _______ _______ _______ _____ _____    ______ ____
ROOT
ATOM      1  C   UNL     1       1.832   4.453  20.900  0.00  0.00    +0.000 C 
ENDROOT
BRANCH   1   2
ATOM      2  N   UNL     1       2.116   5.864  20.642  0.00  0.00    +0.000 NA
ATOM      3  H   UNL     1       1.402   6.464  21.055  0.00  0.00    +0.000 HD
BRANCH   2   4
ATOM      4  C   UNL     1       2.161   6.155  19.214  0.00  0.00    +0.000 C 
BRANCH   4   7
ATOM      5  C   UNL     1       1.631   8.560  18.385  0.00  0.00    +0.000 C 
ATOM      6  C   UNL     1       2.924   8.145  17.716  0.00  0.00    +0.000 C 
ATOM      7  C   UNL     1       2.574   7.592  19.069  0.00  0.00    +0.000 C 
BRANCH   5  14
ATOM      8  C   UNL     1       0.532  10.357  19.881  0.00  0.00    +0.000 A 
ATOM      9  C   UNL     1       0.289  11.712  20.161  0.00  0.00    +0.000 A 
ATOM     10  C   UNL     1       0.926  12.714  19.430  0.00  0.00    +0.000 A 
ATOM     11  C   UNL     1       1.822  12.362  18.435  0.00  0.00    +0.000 A 
ATOM     12  F   UNL     1       2.424  13.321  17.719  0.00  0.00    +0.000 F 
ATOM     13  C   UNL     1       2.080  11.028  18.148  0.00  0.00    +0.000 A 
ATOM     14  C   UNL     1       1.434   9.989  18.851  0.00  0.00    +0.000 A 
BRANCH   8  16
ATOM     15  C   UNL     1      -0.216   9.424  21.945  0.00  0.00    +0.000 C 
ATOM     16  O   UNL     1      -0.094   9.319  20.531  0.00  0.00    +0.000 OA
ENDBRANCH   8  16
ENDBRANCH   5  14
ENDBRANCH   4   7
ENDBRANCH   2   4
ENDBRANCH   1   2
BRANCH   1  17
ATOM     17  C   UNL     1       1.434   3.716  19.618  0.00  0.00    +0.000 C 
BRANCH  17  18
ATOM     18  C   UNL     1       1.607   2.207  19.738  0.00  0.00    +0.000 C 
BRANCH  18  19
ATOM     19  O   UNL     1       2.942   1.847  19.378  0.00  0.00    +0.000 OA
BRANCH  19  20
ATOM     20  C   UNL     1       3.674   2.820  18.749  0.00  0.00    +0.000 A 
ATOM     21  C   UNL     1       3.280   3.099  17.435  0.00  0.00    +0.000 A 
ATOM     22  C   UNL     1       3.962   4.051  16.672  0.00  0.00    +0.000 A 
ATOM     23  C   UNL     1       5.049   4.735  17.219  0.00  0.00    +0.000 A 
ATOM     24  C   UNL     1       5.809   5.718  16.447  0.00  0.00    +0.000 A 
ATOM     25  C   UNL     1       6.854   6.344  17.006  0.00  0.00    +0.000 A 
ATOM     26  C   UNL     1       7.262   6.068  18.404  0.00  0.00    +0.000 A 
ATOM     27  O   UNL     1       8.213   6.652  18.909  0.00  0.00    +0.000 OA
ATOM     28  N   UNL     1       6.524   5.143  19.092  0.00  0.00    +0.000 N 
ATOM     29  C   UNL     1       5.432   4.461  18.540  0.00  0.00    +0.000 A 
ATOM     30  C   UNL     1       4.750   3.517  19.306  0.00  0.00    +0.000 A 
ATOM     31  H   UNL     1       6.822   4.960  20.040  0.00  0.00    +0.000 HD
ENDBRANCH  19  20
ENDBRANCH  18  19
ENDBRANCH  17  18
ENDBRANCH   1  17
TORSDOF 9
ENDMDL
MODEL 3
REMARK VINA RESULT:      -7.8      6.201      8.464
REMARK  Name = 
REMARK  10 active torsions:
REMARK  status: ('A' for Active; 'I' for Inactive)
REMARK    1  A    between atoms: C_1  and  O_2
REMARK    2  A    between atoms: O_2  and  C_3
REMARK    3  A    between atoms: C_9  and  C_10
REMARK    4  A    between atoms: C_12  and  C_13
REMARK    5  A    between atoms: C_13  and  N_14
REMARK    6  A    between atoms: N_14  and  C_15
REMARK    7  A    between atoms: C_15  and  C_16
REMARK    8  A    between atoms: C_16  and  C_17
REMARK    9  A    between atoms: C_17  and  O_18
REMARK   10  A    between atoms: O_18  and  C_19
REMARK                            x       y       z     vdW  Elec       q    Type
REMARK                         _______ _______ _______ _____ _____    ______ ____
ROOT
ATOM      1  C   UNL     1       2.010   3.982  21.187  0.00  0.00    +0.000 C 
ENDROOT
BRANCH   1   2
ATOM      2  N   UNL     1       2.213   2.831  20.307  0.00  0.00    +0.000 NA
ATOM      3  H   UNL     1       1.701   2.016  20.644  0.00  0.00    +0.000 HD
BRANCH   2   4
ATOM      4  C   UNL     1       3.620   2.459  20.218  0.00  0.00    +0.000 C 
BRANCH   4   7
ATOM      5  C   UNL     1       4.149   3.785  18.047  0.00  0.00    +0.000 C 
ATOM      6  C   UNL     1       2.978   2.882  17.729  0.00  0.00    +0.000 C 
ATOM      7  C   UNL     1       3.985   2.460  18.761  0.00  0.00    +0.000 C 
BRANCH   5  14
ATOM      8  C   UNL     1       6.507   4.558  17.325  0.00  0.00    +0.000 A 
ATOM      9  C   UNL     1       7.403   4.906  16.300  0.00  0.00    +0.000 A 
ATOM     10  C   UNL     1       7.047   4.749  14.962  0.00  0.00    +0.000 A 
ATOM     11  C   UNL     1       5.806   4.224  14.647  0.00  0.00    +0.000 A 
ATOM     12  F   UNL     1       5.453   4.086  13.362  0.00  0.00    +0.000 F 
ATOM     13  C   UNL     1       4.909   3.867  15.646  0.00  0.00    +0.000 A 
ATOM     14  C   UNL     1       5.226   4.037  17.010  0.00  0.00    +0.000 A 
BRANCH   8  16
ATOM     15  C   UNL     1       7.752   5.705  19.006  0.00  0.00    +0.000 C 
ATOM     16  O   UNL     1       6.774   4.729  18.663  0.00  0.00    +0.000 OA
ENDBRANCH   8  16
ENDBRANCH   5  14
ENDBRANCH   4   7
ENDBRANCH   2   4
ENDBRANCH   1   2
BRANCH   1  17
ATOM     17  C   UNL     1       1.178   5.071  20.504  0.00  0.00    +0.000 C 
BRANCH  17  18
ATOM     18  C   UNL     1       2.033   6.012  19.663  0.00  0.00    +0.000 C 
BRANCH  18  19
ATOM     19  O   UNL     1       2.463   7.114  20.465  0.00  0.00    +0.000 OA
BRANCH  19  20
ATOM     20  C   UNL     1       1.623   8.198  20.490  0.00  0.00    +0.000 A 
ATOM     21  C   UNL     1       1.149   8.546  21.760  0.00  0.00    +0.000 A 
ATOM     22  C   UNL     1       0.262   9.615  21.923  0.00  0.00    +0.000 A 
ATOM     23  C   UNL     1      -0.158  10.347  20.811  0.00  0.00    +0.000 A 
ATOM     24  C   UNL     1      -1.107  11.454  20.931  0.00  0.00    +0.000 A 
ATOM     25  C   UNL     1      -1.495  12.124  19.836  0.00  0.00    +0.000 A 
ATOM     26  C   UNL     1      -0.978  11.772  18.492  0.00  0.00    +0.000 A 
ATOM     27  O   UNL     1      -1.332  12.397  17.499  0.00  0.00    +0.000 OA
ATOM     28  N   UNL     1      -0.093  10.731  18.423  0.00  0.00    +0.000 N 
ATOM     29  C   UNL     1       0.330  10.002  19.542  0.00  0.00    +0.000 A 
ATOM     30  C   UNL     1       1.218   8.940  19.378  0.00  0.00    +0.000 A 
ATOM     31  H   UNL     1       0.242  10.500  17.499  0.00  0.00    +0.000 HD
ENDBRANCH  19  20
ENDBRANCH  18  19
ENDBRANCH  17  18
ENDBRANCH   1  17
TORSDOF 9
ENDMDL
MODEL 4
REMARK VINA RESULT:      -7.7      1.375      1.856
REMARK  Name = 
REMARK  10 active torsions:
REMARK  status: ('A' for Active; 'I' for Inactive)
REMARK    1  A    between atoms: C_1  and  O_2
REMARK    2  A    between atoms: O_2  and  C_3
REMARK    3  A    between atoms: C_9  and  C_10
REMARK    4  A    between atoms: C_12  and  C_13
REMARK    5  A    between atoms: C_13  and  N_14
REMARK    6  A    between atoms: N_14  and  C_15
REMARK    7  A    between atoms: C_15  and  C_16
REMARK    8  A    between atoms: C_16  and  C_17
REMARK    9  A    between atoms: C_17  and  O_18
REMARK   10  A    between atoms: O_18  and  C_19
REMARK                            x       y       z     vdW  Elec       q    Type
REMARK                         _______ _______ _______ _____ _____    ______ ____
ROOT
ATOM      1  C   UNL     1       6.342   6.855  17.230  0.00  0.00    +0.000 C 
ENDROOT
BRANCH   1   2
ATOM      2  N   UNL     1       5.390   7.946  17.437  0.00  0.00    +0.000 NA
ATOM      3  H   UNL     1       5.447   8.307  18.390  0.00  0.00    +0.000 HD
BRANCH   2   4
ATOM      4  C   UNL     1       4.016   7.515  17.214  0.00  0.00    +0.000 C 
BRANCH   4   7
ATOM      5  C   UNL     1       2.358   5.826  18.288  0.00  0.00    +0.000 C 
ATOM      6  C   UNL     1       2.461   6.998  19.240  0.00  0.00    +0.000 C 
ATOM      7  C   UNL     1       3.634   6.637  18.372  0.00  0.00    +0.000 C 
BRANCH   5  14
ATOM      8  C   UNL     1       2.585   3.261  18.071  0.00  0.00    +0.000 A 
ATOM      9  C   UNL     1       2.313   1.978  18.573  0.00  0.00    +0.000 A 
ATOM     10  C   UNL     1       1.699   1.815  19.814  0.00  0.00    +0.000 A 
ATOM     11  C   UNL     1       1.378   2.934  20.562  0.00  0.00    +0.000 A 
ATOM     12  F   UNL     1       0.773   2.784  21.748  0.00  0.00    +0.000 F 
ATOM     13  C   UNL     1       1.645   4.211  20.086  0.00  0.00    +0.000 A 
ATOM     14  C   UNL     1       2.241   4.412  18.824  0.00  0.00    +0.000 A 
BRANCH   8  16
ATOM     15  C   UNL     1       4.568   3.518  16.769  0.00  0.00    +0.000 C 
ATOM     16  O   UNL     1       3.146   3.495  16.837  0.00  0.00    +0.000 OA
ENDBRANCH   8  16
ENDBRANCH   5  14
ENDBRANCH   4   7
ENDBRANCH   2   4
ENDBRANCH   1   2
BRANCH   1  17
ATOM     17  C   UNL     1       7.787   7.327  17.420  0.00  0.00    +0.000 C 
BRANCH  17  18
ATOM     18  C   UNL     1       7.872   8.807  17.776  0.00  0.00    +0.000 C 
BRANCH  18  19
ATOM     19  O   UNL     1       8.785   8.988  18.859  0.00  0.00    +0.000 OA
BRANCH  19  20
ATOM     20  C   UNL     1       9.261  10.262  19.032  0.00  0.00    +0.000 A 
ATOM     21  C   UNL     1       9.422  10.656  20.366  0.00  0.00    +0.000 A 
ATOM     22  C   UNL     1       9.874  11.941  20.681  0.00  0.00    +0.000 A 
ATOM     23  C   UNL     1      10.170  12.846  19.661  0.00  0.00    +0.000 A 
ATOM     24  C   UNL     1      10.617  14.209  19.945  0.00  0.00    +0.000 A 
ATOM     25  C   UNL     1      10.879  15.052  18.935  0.00  0.00    +0.000 A 
ATOM     26  C   UNL     1      10.730  14.632  17.522  0.00  0.00    +0.000 A 
ATOM     27  O   UNL     1      10.980  15.407  16.606  0.00  0.00    +0.000 OA
ATOM     28  N   UNL     1      10.310  13.349  17.298  0.00  0.00    +0.000 N 
ATOM     29  C   UNL     1      10.018  12.443  18.326  0.00  0.00    +0.000 A 
ATOM     30  C   UNL     1       9.573  11.160  18.008  0.00  0.00    +0.000 A 
ATOM     31  H   UNL     1      10.205  13.083  16.330  0.00  0.00    +0.000 HD
ENDBRANCH  19  20
ENDBRANCH  18  19
ENDBRANCH  17  18
ENDBRANCH   1  17
TORSDOF 9
ENDMDL
MODEL 5
REMARK VINA RESULT:      -7.6      2.107      2.893
REMARK  Name = 
REMARK  10 active torsions:
REMARK  status: ('A' for Active; 'I' for Inactive)
REMARK    1  A    between atoms: C_1  and  O_2
REMARK    2  A    between atoms: O_2  and  C_3
REMARK    3  A    between atoms: C_9  and  C_10
REMARK    4  A    between atoms: C_12  and  C_13
REMARK    5  A    between atoms: C_13  and  N_14
REMARK    6  A    between atoms: N_14  and  C_15
REMARK    7  A    between atoms: C_15  and  C_16
REMARK    8  A    between atoms: C_16  and  C_17
REMARK    9  A    between atoms: C_17  and  O_18
REMARK   10  A    between atoms: O_18  and  C_19
REMARK                            x       y       z     vdW  Elec       q    Type
REMARK                         _______ _______ _______ _____ _____    ______ ____
ROOT
ATOM      1  C   UNL     1       8.196   7.964  18.191  0.00  0.00    +0.000 C 
ENDROOT
BRANCH   1   2
ATOM      2  N   UNL     1       7.538   7.194  17.136  0.00  0.00    +0.000 NA
ATOM      3  H   UNL     1       7.795   7.543  16.212  0.00  0.00    +0.000 HD
BRANCH   2   4
ATOM      4  C   UNL     1       6.085   7.262  17.240  0.00  0.00    +0.000 C 
BRANCH   4   7
ATOM      5  C   UNL     1       5.231   5.267  18.670  0.00  0.00    +0.000 C 
ATOM      6  C   UNL     1       6.442   4.770  17.911  0.00  0.00    +0.000 C 
ATOM      7  C   UNL     1       5.581   5.849  17.316  0.00  0.00    +0.000 C 
BRANCH   5  14
ATOM      8  C   UNL     1       2.845   4.775  19.529  0.00  0.00    +0.000 A 
ATOM      9  C   UNL     1       1.840   3.842  19.837  0.00  0.00    +0.000 A 
ATOM     10  C   UNL     1       2.004   2.493  19.527  0.00  0.00    +0.000 A 
ATOM     11  C   UNL     1       3.161   2.079  18.890  0.00  0.00    +0.000 A 
ATOM     12  F   UNL     1       3.330   0.782  18.604  0.00  0.00    +0.000 F 
ATOM     13  C   UNL     1       4.162   2.988  18.571  0.00  0.00    +0.000 A 
ATOM     14  C   UNL     1       4.041   4.355  18.893  0.00  0.00    +0.000 A 
BRANCH   8  16
ATOM     15  C   UNL     1       1.632   6.533  20.593  0.00  0.00    +0.000 C 
ATOM     16  O   UNL     1       2.769   6.111  19.847  0.00  0.00    +0.000 OA
ENDBRANCH   8  16
ENDBRANCH   5  14
ENDBRANCH   4   7
ENDBRANCH   2   4
ENDBRANCH   1   2
BRANCH   1  17
ATOM     17  C   UNL     1       8.169   9.465  17.892  0.00  0.00    +0.000 C 
BRANCH  17  18
ATOM     18  C   UNL     1       8.961  10.274  18.912  0.00  0.00    +0.000 C 
BRANCH  18  19
ATOM     19  O   UNL     1      10.224  10.643  18.356  0.00  0.00    +0.000 OA
BRANCH  19  20
ATOM     20  C   UNL     1      10.367  11.965  18.023  0.00  0.00    +0.000 A 
ATOM     21  C   UNL     1      11.554  12.279  17.351  0.00  0.00    +0.000 A 
ATOM     22  C   UNL     1      11.837  13.598  16.979  0.00  0.00    +0.000 A 
ATOM     23  C   UNL     1      10.931  14.616  17.279  0.00  0.00    +0.000 A 
ATOM     24  C   UNL     1      11.199  16.013  16.936  0.00  0.00    +0.000 A 
ATOM     25  C   UNL     1      10.308  16.963  17.253  0.00  0.00    +0.000 A 
ATOM     26  C   UNL     1       9.041  16.631  17.946  0.00  0.00    +0.000 A 
ATOM     27  O   UNL     1       8.228  17.506  18.224  0.00  0.00    +0.000 OA
ATOM     28  N   UNL     1       8.827  15.314  18.250  0.00  0.00    +0.000 N 
ATOM     29  C   UNL     1       9.738  14.294  17.943  0.00  0.00    +0.000 A 
ATOM     30  C   UNL     1       9.450  12.980  18.309  0.00  0.00    +0.000 A 
ATOM     31  H   UNL     1       7.963  15.108  18.730  0.00  0.00    +0.000 HD
ENDBRANCH  19  20
ENDBRANCH  18  19
ENDBRANCH  17  18
ENDBRANCH   1  17
TORSDOF 9
ENDMDL
MODEL 6
REMARK VINA RESULT:      -7.6      6.579      8.695
REMARK  Name = 
REMARK  10 active torsions:
REMARK  status: ('A' for Active; 'I' for Inactive)
REMARK    1  A    between atoms: C_1  and  O_2
REMARK    2  A    between atoms: O_2  and  C_3
REMARK    3  A    between atoms: C_9  and  C_10
REMARK    4  A    between atoms: C_12  and  C_13
REMARK    5  A    between atoms: C_13  and  N_14
REMARK    6  A    between atoms: N_14  and  C_15
REMARK    7  A    between atoms: C_15  and  C_16
REMARK    8  A    between atoms: C_16  and  C_17
REMARK    9  A    between atoms: C_17  and  O_18
REMARK   10  A    between atoms: O_18  and  C_19
REMARK                            x       y       z     vdW  Elec       q    Type
REMARK                         _______ _______ _______ _____ _____    ______ ____
ROOT
ATOM      1  C   UNL     1       1.588   5.388  20.575  0.00  0.00    +0.000 C 
ENDROOT
BRANCH   1   2
ATOM      2  N   UNL     1       2.450   6.534  20.289  0.00  0.00    +0.000 NA
ATOM      3  H   UNL     1       2.237   7.317  20.907  0.00  0.00    +0.000 HD
BRANCH   2   4
ATOM      4  C   UNL     1       2.292   7.003  18.918  0.00  0.00    +0.000 C 
BRANCH   4   7
ATOM      5  C   UNL     1       0.855   9.146  18.604  0.00  0.00    +0.000 C 
ATOM      6  C   UNL     1       2.063   9.297  17.705  0.00  0.00    +0.000 C 
ATOM      7  C   UNL     1       2.174   8.499  18.974  0.00  0.00    +0.000 C 
BRANCH   5  14
ATOM      8  C   UNL     1      -0.172  10.298  20.676  0.00  0.00    +0.000 A 
ATOM      9  C   UNL     1      -0.819  11.408  21.244  0.00  0.00    +0.000 A 
ATOM     10  C   UNL     1      -1.021  12.570  20.501  0.00  0.00    +0.000 A 
ATOM     11  C   UNL     1      -0.556  12.631  19.199  0.00  0.00    +0.000 A 
ATOM     12  F   UNL     1      -0.762  13.739  18.476  0.00  0.00    +0.000 F 
ATOM     13  C   UNL     1       0.092  11.546  18.622  0.00  0.00    +0.000 A 
ATOM     14  C   UNL     1       0.290  10.347  19.337  0.00  0.00    +0.000 A 
BRANCH   8  16
ATOM     15  C   UNL     1       0.957   9.105  22.407  0.00  0.00    +0.000 C 
ATOM     16  O   UNL     1       0.020   9.106  21.335  0.00  0.00    +0.000 OA
ENDBRANCH   8  16
ENDBRANCH   5  14
ENDBRANCH   4   7
ENDBRANCH   2   4
ENDBRANCH   1   2
BRANCH   1  17
ATOM     17  C   UNL     1       1.515   4.429  19.382  0.00  0.00    +0.000 C 
BRANCH  17  18
ATOM     18  C   UNL     1       2.448   3.234  19.541  0.00  0.00    +0.000 C 
BRANCH  18  19
ATOM     19  O   UNL     1       3.749   3.687  19.917  0.00  0.00    +0.000 OA
BRANCH  19  20
ATOM     20  C   UNL     1       4.583   4.032  18.884  0.00  0.00    +0.000 A 
ATOM     21  C   UNL     1       5.609   4.920  19.226  0.00  0.00    +0.000 A 
ATOM     22  C   UNL     1       6.513   5.374  18.259  0.00  0.00    +0.000 A 
ATOM     23  C   UNL     1       6.395   4.941  16.938  0.00  0.00    +0.000 A 
ATOM     24  C   UNL     1       7.299   5.412  15.889  0.00  0.00    +0.000 A 
ATOM     25  C   UNL     1       7.145   4.980  14.629  0.00  0.00    +0.000 A 
ATOM     26  C   UNL     1       6.072   4.023  14.267  0.00  0.00    +0.000 A 
ATOM     27  O   UNL     1       5.945   3.628  13.114  0.00  0.00    +0.000 OA
ATOM     28  N   UNL     1       5.248   3.606  15.277  0.00  0.00    +0.000 N 
ATOM     29  C   UNL     1       5.373   4.041  16.603  0.00  0.00    +0.000 A 
ATOM     30  C   UNL     1       4.474   3.582  17.566  0.00  0.00    +0.000 A 
ATOM     31  H   UNL     1       4.518   2.962  15.011  0.00  0.00    +0.000 HD
ENDBRANCH  19  20
ENDBRANCH  18  19
ENDBRANCH  17  18
ENDBRANCH   1  17
TORSDOF 9
ENDMDL
MODEL 7
REMARK VINA RESULT:      -7.6      5.854      8.792
REMARK  Name = 
REMARK  10 active torsions:
REMARK  status: ('A' for Active; 'I' for Inactive)
REMARK    1  A    between atoms: C_1  and  O_2
REMARK    2  A    between atoms: O_2  and  C_3
REMARK    3  A    between atoms: C_9  and  C_10
REMARK    4  A    between atoms: C_12  and  C_13
REMARK    5  A    between atoms: C_13  and  N_14
REMARK    6  A    between atoms: N_14  and  C_15
REMARK    7  A    between atoms: C_15  and  C_16
REMARK    8  A    between atoms: C_16  and  C_17
REMARK    9  A    between atoms: C_17  and  O_18
REMARK   10  A    between atoms: O_18  and  C_19
REMARK                            x       y       z     vdW  Elec       q    Type
REMARK                         _______ _______ _______ _____ _____    ______ ____
ROOT
ATOM      1  C   UNL     1       1.072   5.701  20.459  0.00  0.00    +0.000 C 
ENDROOT
BRANCH   1   2
ATOM      2  N   UNL     1       2.347   6.381  20.235  0.00  0.00    +0.000 NA
ATOM      3  H   UNL     1       2.475   7.148  20.895  0.00  0.00    +0.000 HD
BRANCH   2   4
ATOM      4  C   UNL     1       2.433   6.941  18.891  0.00  0.00    +0.000 C 
BRANCH   4   7
ATOM      5  C   UNL     1       0.877   8.932  18.282  0.00  0.00    +0.000 C 
ATOM      6  C   UNL     1       2.265   9.305  17.808  0.00  0.00    +0.000 C 
ATOM      7  C   UNL     1       2.102   8.402  18.999  0.00  0.00    +0.000 C 
BRANCH   5  14
ATOM      8  C   UNL     1      -1.205  10.461  18.230  0.00  0.00    +0.000 A 
ATOM      9  C   UNL     1      -1.924  11.541  18.768  0.00  0.00    +0.000 A 
ATOM     10  C   UNL     1      -1.500  12.162  19.942  0.00  0.00    +0.000 A 
ATOM     11  C   UNL     1      -0.372  11.690  20.589  0.00  0.00    +0.000 A 
ATOM     12  F   UNL     1       0.048  12.294  21.709  0.00  0.00    +0.000 F 
ATOM     13  C   UNL     1       0.348  10.619  20.076  0.00  0.00    +0.000 A 
ATOM     14  C   UNL     1      -0.037   9.984  18.878  0.00  0.00    +0.000 A 
BRANCH   8  16
ATOM     15  C   UNL     1      -2.565  10.432  16.270  0.00  0.00    +0.000 C 
ATOM     16  O   UNL     1      -1.539   9.832  17.053  0.00  0.00    +0.000 OA
ENDBRANCH   8  16
ENDBRANCH   5  14
ENDBRANCH   4   7
ENDBRANCH   2   4
ENDBRANCH   1   2
BRANCH   1  17
ATOM     17  C   UNL     1       1.269   4.199  20.682  0.00  0.00    +0.000 C 
BRANCH  17  18
ATOM     18  C   UNL     1       2.616   3.878  21.319  0.00  0.00    +0.000 C 
BRANCH  18  19
ATOM     19  O   UNL     1       3.287   2.880  20.547  0.00  0.00    +0.000 OA
BRANCH  19  20
ATOM     20  C   UNL     1       3.819   3.304  19.357  0.00  0.00    +0.000 A 
ATOM     21  C   UNL     1       3.276   2.696  18.219  0.00  0.00    +0.000 A 
ATOM     22  C   UNL     1       3.750   3.017  16.943  0.00  0.00    +0.000 A 
ATOM     23  C   UNL     1       4.776   3.952  16.795  0.00  0.00    +0.000 A 
ATOM     24  C   UNL     1       5.322   4.297  15.483  0.00  0.00    +0.000 A 
ATOM     25  C   UNL     1       6.316   5.192  15.385  0.00  0.00    +0.000 A 
ATOM     26  C   UNL     1       6.879   5.853  16.587  0.00  0.00    +0.000 A 
ATOM     27  O   UNL     1       7.781   6.676  16.486  0.00  0.00    +0.000 OA
ATOM     28  N   UNL     1       6.340   5.504  17.795  0.00  0.00    +0.000 N 
ATOM     29  C   UNL     1       5.308   4.567  17.938  0.00  0.00    +0.000 A 
ATOM     30  C   UNL     1       4.833   4.254  19.211  0.00  0.00    +0.000 A 
ATOM     31  H   UNL     1       6.742   5.957  18.602  0.00  0.00    +0.000 HD
ENDBRANCH  19  20
ENDBRANCH  18  19
ENDBRANCH  17  18
ENDBRANCH   1  17
TORSDOF 9
ENDMDL
MODEL 8
REMARK VINA RESULT:      -7.5      2.022      2.514
REMARK  Name = 
REMARK  10 active torsions:
REMARK  status: ('A' for Active; 'I' for Inactive)
REMARK    1  A    between atoms: C_1  and  O_2
REMARK    2  A    between atoms: O_2  and  C_3
REMARK    3  A    between atoms: C_9  and  C_10
REMARK    4  A    between atoms: C_12  and  C_13
REMARK    5  A    between atoms: C_13  and  N_14
REMARK    6  A    between atoms: N_14  and  C_15
REMARK    7  A    between atoms: C_15  and  C_16
REMARK    8  A    between atoms: C_16  and  C_17
REMARK    9  A    between atoms: C_17  and  O_18
REMARK   10  A    between atoms: O_18  and  C_19
REMARK                            x       y       z     vdW  Elec       q    Type
REMARK                         _______ _______ _______ _____ _____    ______ ____
ROOT
ATOM      1  C   UNL     1       8.161   7.056  18.598  0.00  0.00    +0.000 C 
ENDROOT
BRANCH   1   2
ATOM      2  N   UNL     1       7.965   5.893  17.733  0.00  0.00    +0.000 NA
ATOM      3  H   UNL     1       8.808   5.688  17.196  0.00  0.00    +0.000 HD
BRANCH   2   4
ATOM      4  C   UNL     1       6.880   6.102  16.781  0.00  0.00    +0.000 C 
BRANCH   4   7
ATOM      5  C   UNL     1       4.418   5.279  16.919  0.00  0.00    +0.000 C 
ATOM      6  C   UNL     1       4.386   6.780  17.111  0.00  0.00    +0.000 C 
ATOM      7  C   UNL     1       5.593   5.999  17.549  0.00  0.00    +0.000 C 
BRANCH   5  14
ATOM      8  C   UNL     1       2.454   4.883  18.550  0.00  0.00    +0.000 A 
ATOM      9  C   UNL     1       1.718   4.005  19.364  0.00  0.00    +0.000 A 
ATOM     10  C   UNL     1       1.985   2.637  19.356  0.00  0.00    +0.000 A 
ATOM     11  C   UNL     1       2.971   2.143  18.519  0.00  0.00    +0.000 A 
ATOM     12  F   UNL     1       3.241   0.831  18.520  0.00  0.00    +0.000 F 
ATOM     13  C   UNL     1       3.705   2.994  17.703  0.00  0.00    +0.000 A 
ATOM     14  C   UNL     1       3.479   4.386  17.705  0.00  0.00    +0.000 A 
BRANCH   8  16
ATOM     15  C   UNL     1       2.329   6.911  19.800  0.00  0.00    +0.000 C 
ATOM     16  O   UNL     1       2.276   6.246  18.542  0.00  0.00    +0.000 OA
ENDBRANCH   8  16
ENDBRANCH   5  14
ENDBRANCH   4   7
ENDBRANCH   2   4
ENDBRANCH   1   2
BRANCH   1  17
ATOM     17  C   UNL     1       8.066   8.365  17.808  0.00  0.00    +0.000 C 
BRANCH  17  18
ATOM     18  C   UNL     1       8.657   9.545  18.570  0.00  0.00    +0.000 C 
BRANCH  18  19
ATOM     19  O   UNL     1       8.185  10.768  18.002  0.00  0.00    +0.000 OA
BRANCH  19  20
ATOM     20  C   UNL     1       9.124  11.754  17.842  0.00  0.00    +0.000 A 
ATOM     21  C   UNL     1      10.451  11.309  17.831  0.00  0.00    +0.000 A 
ATOM     22  C   UNL     1      11.508  12.216  17.704  0.00  0.00    +0.000 A 
ATOM     23  C   UNL     1      11.244  13.581  17.585  0.00  0.00    +0.000 A 
ATOM     24  C   UNL     1      12.318  14.568  17.479  0.00  0.00    +0.000 A 
ATOM     25  C   UNL     1      12.022  15.872  17.379  0.00  0.00    +0.000 A 
ATOM     26  C   UNL     1      10.618  16.345  17.369  0.00  0.00    +0.000 A 
ATOM     27  O   UNL     1      10.357  17.539  17.268  0.00  0.00    +0.000 OA
ATOM     28  N   UNL     1       9.642  15.391  17.469  0.00  0.00    +0.000 N 
ATOM     29  C   UNL     1       9.912  14.021  17.584  0.00  0.00    +0.000 A 
ATOM     30  C   UNL     1       8.856  13.119  17.705  0.00  0.00    +0.000 A 
ATOM     31  H   UNL     1       8.692  15.732  17.470  0.00  0.00    +0.000 HD
ENDBRANCH  19  20
ENDBRANCH  18  19
ENDBRANCH  17  18
ENDBRANCH   1  17
TORSDOF 9
ENDMDL
MODEL 9
REMARK VINA RESULT:      -7.5      6.123      9.669
REMARK  Name = 
REMARK  10 active torsions:
REMARK  status: ('A' for Active; 'I' for Inactive)
REMARK    1  A    between atoms: C_1  and  O_2
REMARK    2  A    between atoms: O_2  and  C_3
REMARK    3  A    between atoms: C_9  and  C_10
REMARK    4  A    between atoms: C_12  and  C_13
REMARK    5  A    between atoms: C_13  and  N_14
REMARK    6  A    between atoms: N_14  and  C_15
REMARK    7  A    between atoms: C_15  and  C_16
REMARK    8  A    between atoms: C_16  and  C_17
REMARK    9  A    between atoms: C_17  and  O_18
REMARK   10  A    between atoms: O_18  and  C_19
REMARK                            x       y       z     vdW  Elec       q    Type
REMARK                         _______ _______ _______ _____ _____    ______ ____
ROOT
ATOM      1  C   UNL     1       2.120   5.498  21.115  0.00  0.00    +0.000 C 
ENDROOT
BRANCH   1   2
ATOM      2  N   UNL     1       2.380   6.550  20.134  0.00  0.00    +0.000 NA
ATOM      3  H   UNL     1       3.215   7.082  20.377  0.00  0.00    +0.000 HD
BRANCH   2   4
ATOM      4  C   UNL     1       1.271   7.493  20.045  0.00  0.00    +0.000 C 
BRANCH   4   7
ATOM      5  C   UNL     1       0.860   9.663  18.675  0.00  0.00    +0.000 C 
ATOM      6  C   UNL     1       1.911   8.871  17.928  0.00  0.00    +0.000 C 
ATOM      7  C   UNL     1       1.809   8.750  19.423  0.00  0.00    +0.000 C 
BRANCH   5  14
ATOM      8  C   UNL     1      -0.172  12.009  19.005  0.00  0.00    +0.000 A 
ATOM      9  C   UNL     1      -0.053  13.405  18.905  0.00  0.00    +0.000 A 
ATOM     10  C   UNL     1       1.158  13.992  18.543  0.00  0.00    +0.000 A 
ATOM     11  C   UNL     1       2.257  13.185  18.302  0.00  0.00    +0.000 A 
ATOM     12  F   UNL     1       3.419  13.743  17.938  0.00  0.00    +0.000 F 
ATOM     13  C   UNL     1       2.161  11.803  18.403  0.00  0.00    +0.000 A 
ATOM     14  C   UNL     1       0.945  11.176  18.742  0.00  0.00    +0.000 A 
BRANCH   8  16
ATOM     15  C   UNL     1      -2.462  11.617  18.466  0.00  0.00    +0.000 C 
ATOM     16  O   UNL     1      -1.346  11.362  19.312  0.00  0.00    +0.000 OA
ENDBRANCH   8  16
ENDBRANCH   5  14
ENDBRANCH   4   7
ENDBRANCH   2   4
ENDBRANCH   1   2
BRANCH   1  17
ATOM     17  C   UNL     1       1.171   4.433  20.559  0.00  0.00    +0.000 C 
BRANCH  17  18
ATOM     18  C   UNL     1       1.468   3.044  21.112  0.00  0.00    +0.000 C 
BRANCH  18  19
ATOM     19  O   UNL     1       1.861   2.177  20.047  0.00  0.00    +0.000 OA
BRANCH  19  20
ATOM     20  C   UNL     1       2.685   2.729  19.101  0.00  0.00    +0.000 A 
ATOM     21  C   UNL     1       2.089   2.944  17.853  0.00  0.00    +0.000 A 
ATOM     22  C   UNL     1       2.827   3.476  16.790  0.00  0.00    +0.000 A 
ATOM     23  C   UNL     1       4.173   3.798  16.970  0.00  0.00    +0.000 A 
ATOM     24  C   UNL     1       4.990   4.329  15.879  0.00  0.00    +0.000 A 
ATOM     25  C   UNL     1       6.283   4.615  16.089  0.00  0.00    +0.000 A 
ATOM     26  C   UNL     1       6.913   4.408  17.415  0.00  0.00    +0.000 A 
ATOM     27  O   UNL     1       8.093   4.681  17.600  0.00  0.00    +0.000 OA
ATOM     28  N   UNL     1       6.114   3.911  18.409  0.00  0.00    +0.000 N 
ATOM     29  C   UNL     1       4.763   3.593  18.225  0.00  0.00    +0.000 A 
ATOM     30  C   UNL     1       4.028   3.068  19.288  0.00  0.00    +0.000 A 
ATOM     31  H   UNL     1       6.562   3.768  19.302  0.00  0.00    +0.000 HD
ENDBRANCH  19  20
ENDBRANCH  18  19
ENDBRANCH  17  18
ENDBRANCH   1  17
TORSDOF 9
ENDMDL
