MODEL 1
REMARK VINA RESULT:      -6.5      0.000      0.000
REMARK  Name = 
REMARK  2 active torsions:
REMARK  status: ('A' for Active; 'I' for Inactive)
REMARK    1  A    between atoms: C_2  and  C_12
REMARK    2  A    between atoms: C_7  and  N_8
REMARK                            x       y       z     vdW  Elec       q    Type
REMARK                         _______ _______ _______ _____ _____    ______ ____
ROOT
ATOM      1  O   UNL     1       5.342   4.501  19.298  0.00  0.00    +0.000 OA
ATOM      2  C   UNL     1       4.335   4.071  18.753  0.00  0.00    +0.000 C 
ATOM      3  N   UNL     1       4.301   3.879  17.404  0.00  0.00    +0.000 N 
ATOM      4  C   UNL     1       5.397   4.174  16.542  0.00  0.00    +0.000 A 
ATOM      5  N   UNL     1       6.639   4.500  16.971  0.00  0.00    +0.000 NA
ATOM      6  C   UNL     1       7.472   4.791  15.940  0.00  0.00    +0.000 A 
ATOM      7  C   UNL     1       6.876   4.713  14.685  0.00  0.00    +0.000 A 
ATOM      8  S   UNL     1       5.271   4.233  14.862  0.00  0.00    +0.000 S 
ATOM      9  H   UNL     1       3.425   3.568  16.962  0.00  0.00    +0.000 HD
ENDROOT
BRANCH   2  10
ATOM     10  C   UNL     1       3.134   3.831  19.585  0.00  0.00    +0.000 A 
ATOM     11  C   UNL     1       1.924   4.505  19.460  0.00  0.00    +0.000 A 
ATOM     12  C   UNL     1       0.947   4.066  20.360  0.00  0.00    +0.000 A 
ATOM     13  C   UNL     1       1.384   3.051  21.201  0.00  0.00    +0.000 A 
ATOM     14  S   UNL     1       2.981   2.689  20.817  0.00  0.00    +0.000 S 
ENDBRANCH   2  10
BRANCH   7  15
ATOM     15  N   UNL     1       7.508   5.017  13.450  0.00  0.00    +0.000 N 
ATOM     16  O   UNL     1       7.197   4.440  12.454  0.00  0.00    +0.000 OA
ATOM     17  O   UNL     1       8.485   5.896  13.413  0.00  0.00    +0.000 OA
ENDBRANCH   7  15
TORSDOF 2
ENDMDL
MODEL 2
REMARK VINA RESULT:      -6.4      0.798      1.034
REMARK  Name = 
REMARK  2 active torsions:
REMARK  status: ('A' for Active; 'I' for Inactive)
REMARK    1  A    between atoms: C_2  and  C_12
REMARK    2  A    between atoms: C_7  and  N_8
REMARK                            x       y       z     vdW  Elec       q    Type
REMARK                         _______ _______ _______ _____ _____    ______ ____
ROOT
ATOM      1  O   UNL     1       5.550   4.290  19.239  0.00  0.00    +0.000 OA
ATOM      2  C   UNL     1       4.507   3.939  18.706  0.00  0.00    +0.000 C 
ATOM      3  N   UNL     1       4.423   3.827  17.349  0.00  0.00    +0.000 N 
ATOM      4  C   UNL     1       5.504   4.122  16.469  0.00  0.00    +0.000 A 
ATOM      5  N   UNL     1       6.772   4.366  16.874  0.00  0.00    +0.000 NA
ATOM      6  C   UNL     1       7.585   4.679  15.833  0.00  0.00    +0.000 A 
ATOM      7  C   UNL     1       6.948   4.700  14.596  0.00  0.00    +0.000 A 
ATOM      8  S   UNL     1       5.329   4.283  14.800  0.00  0.00    +0.000 S 
ATOM      9  H   UNL     1       3.520   3.581  16.920  0.00  0.00    +0.000 HD
ENDROOT
BRANCH   2  10
ATOM     10  C   UNL     1       3.323   3.705  19.563  0.00  0.00    +0.000 A 
ATOM     11  C   UNL     1       3.211   2.698  20.516  0.00  0.00    +0.000 A 
ATOM     12  C   UNL     1       1.991   2.715  21.201  0.00  0.00    +0.000 A 
ATOM     13  C   UNL     1       1.136   3.728  20.787  0.00  0.00    +0.000 A 
ATOM     14  S   UNL     1       1.902   4.612  19.578  0.00  0.00    +0.000 S 
ENDBRANCH   2  10
BRANCH   7  15
ATOM     15  N   UNL     1       7.555   5.046  13.360  0.00  0.00    +0.000 N 
ATOM     16  O   UNL     1       7.230   4.498  12.353  0.00  0.00    +0.000 OA
ATOM     17  O   UNL     1       8.525   5.934  13.332  0.00  0.00    +0.000 OA
ENDBRANCH   7  15
TORSDOF 2
ENDMDL
MODEL 3
REMARK VINA RESULT:      -6.3      0.910      1.257
REMARK  Name = 
REMARK  2 active torsions:
REMARK  status: ('A' for Active; 'I' for Inactive)
REMARK    1  A    between atoms: C_2  and  C_12
REMARK    2  A    between atoms: C_7  and  N_8
REMARK                            x       y       z     vdW  Elec       q    Type
REMARK                         _______ _______ _______ _____ _____    ______ ____
ROOT
ATOM      1  O   UNL     1       5.174   4.395  18.963  0.00  0.00    +0.000 OA
ATOM      2  C   UNL     1       4.228   3.926  18.347  0.00  0.00    +0.000 C 
ATOM      3  N   UNL     1       4.295   3.753  16.996  0.00  0.00    +0.000 N 
ATOM      4  C   UNL     1       5.430   4.114  16.214  0.00  0.00    +0.000 A 
ATOM      5  N   UNL     1       6.623   4.492  16.731  0.00  0.00    +0.000 NA
ATOM      6  C   UNL     1       7.508   4.840  15.762  0.00  0.00    +0.000 A 
ATOM      7  C   UNL     1       7.002   4.752  14.468  0.00  0.00    +0.000 A 
ATOM      8  S   UNL     1       5.415   4.193  14.530  0.00  0.00    +0.000 S 
ATOM      9  H   UNL     1       3.467   3.407  16.491  0.00  0.00    +0.000 HD
ENDROOT
BRANCH   2  10
ATOM     10  C   UNL     1       2.987   3.615  19.092  0.00  0.00    +0.000 A 
ATOM     11  C   UNL     1       2.864   3.613  20.477  0.00  0.00    +0.000 A 
ATOM     12  C   UNL     1       1.573   3.304  20.920  0.00  0.00    +0.000 A 
ATOM     13  C   UNL     1       0.678   3.056  19.889  0.00  0.00    +0.000 A 
ATOM     14  S   UNL     1       1.486   3.234  18.424  0.00  0.00    +0.000 S 
ENDBRANCH   2  10
BRANCH   7  15
ATOM     15  N   UNL     1       7.700   5.105  13.283  0.00  0.00    +0.000 N 
ATOM     16  O   UNL     1       8.569   5.921  13.313  0.00  0.00    +0.000 OA
ATOM     17  O   UNL     1       7.348   4.576  12.132  0.00  0.00    +0.000 OA
ENDBRANCH   7  15
TORSDOF 2
ENDMDL
MODEL 4
REMARK VINA RESULT:      -6.0      5.850      7.846
REMARK  Name = 
REMARK  2 active torsions:
REMARK  status: ('A' for Active; 'I' for Inactive)
REMARK    1  A    between atoms: C_2  and  C_12
REMARK    2  A    between atoms: C_7  and  N_8
REMARK                            x       y       z     vdW  Elec       q    Type
REMARK                         _______ _______ _______ _____ _____    ______ ____
ROOT
ATOM      1  O   UNL     1       8.047  10.117  17.574  0.00  0.00    +0.000 OA
ATOM      2  C   UNL     1       8.789   9.727  18.465  0.00  0.00    +0.000 C 
ATOM      3  N   UNL     1       8.771   8.424  18.865  0.00  0.00    +0.000 N 
ATOM      4  C   UNL     1       7.896   7.445  18.309  0.00  0.00    +0.000 A 
ATOM      5  N   UNL     1       7.125   7.644  17.215  0.00  0.00    +0.000 NA
ATOM      6  C   UNL     1       6.345   6.568  16.942  0.00  0.00    +0.000 A 
ATOM      7  C   UNL     1       6.488   5.515  17.841  0.00  0.00    +0.000 A 
ATOM      8  S   UNL     1       7.647   5.924  18.993  0.00  0.00    +0.000 S 
ATOM      9  H   UNL     1       9.365   8.131  19.652  0.00  0.00    +0.000 HD
ENDROOT
BRANCH   2  10
ATOM     10  C   UNL     1       9.657  10.718  19.141  0.00  0.00    +0.000 A 
ATOM     11  C   UNL     1       9.574  11.071  20.484  0.00  0.00    +0.000 A 
ATOM     12  C   UNL     1      10.529  12.018  20.869  0.00  0.00    +0.000 A 
ATOM     13  C   UNL     1      11.363  12.418  19.834  0.00  0.00    +0.000 A 
ATOM     14  S   UNL     1      10.922  11.585  18.440  0.00  0.00    +0.000 S 
ENDBRANCH   2  10
BRANCH   7  15
ATOM     15  N   UNL     1       5.754   4.300  17.813  0.00  0.00    +0.000 N 
ATOM     16  O   UNL     1       5.528   3.707  18.823  0.00  0.00    +0.000 OA
ATOM     17  O   UNL     1       5.373   3.790  16.663  0.00  0.00    +0.000 OA
ENDBRANCH   7  15
TORSDOF 2
ENDMDL
MODEL 5
REMARK VINA RESULT:      -6.0      5.879      7.827
REMARK  Name = 
REMARK  2 active torsions:
REMARK  status: ('A' for Active; 'I' for Inactive)
REMARK    1  A    between atoms: C_2  and  C_12
REMARK    2  A    between atoms: C_7  and  N_8
REMARK                            x       y       z     vdW  Elec       q    Type
REMARK                         _______ _______ _______ _____ _____    ______ ____
ROOT
ATOM      1  O   UNL     1       8.060  10.163  17.683  0.00  0.00    +0.000 OA
ATOM      2  C   UNL     1       8.807   9.745  18.556  0.00  0.00    +0.000 C 
ATOM      3  N   UNL     1       8.796   8.427  18.908  0.00  0.00    +0.000 N 
ATOM      4  C   UNL     1       7.924   7.466  18.321  0.00  0.00    +0.000 A 
ATOM      5  N   UNL     1       7.148   7.701  17.237  0.00  0.00    +0.000 NA
ATOM      6  C   UNL     1       6.370   6.632  16.929  0.00  0.00    +0.000 A 
ATOM      7  C   UNL     1       6.521   5.548  17.788  0.00  0.00    +0.000 A 
ATOM      8  S   UNL     1       7.683   5.920  18.950  0.00  0.00    +0.000 S 
ATOM      9  H   UNL     1       9.395   8.109  19.682  0.00  0.00    +0.000 HD
ENDROOT
BRANCH   2  10
ATOM     10  C   UNL     1       9.674  10.714  19.264  0.00  0.00    +0.000 A 
ATOM     11  C   UNL     1      10.876  11.218  18.780  0.00  0.00    +0.000 A 
ATOM     12  C   UNL     1      11.483  12.135  19.644  0.00  0.00    +0.000 A 
ATOM     13  C   UNL     1      10.767  12.353  20.813  0.00  0.00    +0.000 A 
ATOM     14  S   UNL     1       9.371  11.415  20.768  0.00  0.00    +0.000 S 
ENDBRANCH   2  10
BRANCH   7  15
ATOM     15  N   UNL     1       5.792   4.332  17.719  0.00  0.00    +0.000 N 
ATOM     16  O   UNL     1       5.410   3.915  16.670  0.00  0.00    +0.000 OA
ATOM     17  O   UNL     1       5.482   3.690  18.824  0.00  0.00    +0.000 OA
ENDBRANCH   7  15
TORSDOF 2
ENDMDL
MODEL 6
REMARK VINA RESULT:      -6.0      1.369      1.766
REMARK  Name = 
REMARK  2 active torsions:
REMARK  status: ('A' for Active; 'I' for Inactive)
REMARK    1  A    between atoms: C_2  and  C_12
REMARK    2  A    between atoms: C_7  and  N_8
REMARK                            x       y       z     vdW  Elec       q    Type
REMARK                         _______ _______ _______ _____ _____    ______ ____
ROOT
ATOM      1  O   UNL     1       3.043   5.600  18.262  0.00  0.00    +0.000 OA
ATOM      2  C   UNL     1       3.457   4.504  18.613  0.00  0.00    +0.000 C 
ATOM      3  N   UNL     1       4.491   3.906  17.956  0.00  0.00    +0.000 N 
ATOM      4  C   UNL     1       5.140   4.483  16.826  0.00  0.00    +0.000 A 
ATOM      5  N   UNL     1       4.934   5.749  16.392  0.00  0.00    +0.000 NA
ATOM      6  C   UNL     1       5.634   6.017  15.260  0.00  0.00    +0.000 A 
ATOM      7  C   UNL     1       6.385   4.946  14.786  0.00  0.00    +0.000 A 
ATOM      8  S   UNL     1       6.198   3.634  15.825  0.00  0.00    +0.000 S 
ATOM      9  H   UNL     1       4.786   2.961  18.236  0.00  0.00    +0.000 HD
ENDROOT
BRANCH   2  10
ATOM     10  C   UNL     1       2.764   3.815  19.726  0.00  0.00    +0.000 A 
ATOM     11  C   UNL     1       3.351   2.894  20.587  0.00  0.00    +0.000 A 
ATOM     12  C   UNL     1       2.474   2.410  21.564  0.00  0.00    +0.000 A 
ATOM     13  C   UNL     1       1.195   2.940  21.473  0.00  0.00    +0.000 A 
ATOM     14  S   UNL     1       1.155   4.023  20.186  0.00  0.00    +0.000 S 
ENDBRANCH   2  10
BRANCH   7  15
ATOM     15  N   UNL     1       7.163   4.945  13.597  0.00  0.00    +0.000 N 
ATOM     16  O   UNL     1       8.076   5.701  13.472  0.00  0.00    +0.000 OA
ATOM     17  O   UNL     1       6.838   4.149  12.602  0.00  0.00    +0.000 OA
ENDBRANCH   7  15
TORSDOF 2
ENDMDL
MODEL 7
REMARK VINA RESULT:      -5.9      1.280      1.363
REMARK  Name = 
REMARK  2 active torsions:
REMARK  status: ('A' for Active; 'I' for Inactive)
REMARK    1  A    between atoms: C_2  and  C_12
REMARK    2  A    between atoms: C_7  and  N_8
REMARK                            x       y       z     vdW  Elec       q    Type
REMARK                         _______ _______ _______ _____ _____    ______ ____
ROOT
ATOM      1  O   UNL     1       3.149   5.742  18.113  0.00  0.00    +0.000 OA
ATOM      2  C   UNL     1       3.482   4.608  18.429  0.00  0.00    +0.000 C 
ATOM      3  N   UNL     1       4.472   3.960  17.751  0.00  0.00    +0.000 N 
ATOM      4  C   UNL     1       5.162   4.525  16.640  0.00  0.00    +0.000 A 
ATOM      5  N   UNL     1       5.048   5.815  16.248  0.00  0.00    +0.000 NA
ATOM      6  C   UNL     1       5.767   6.069  15.124  0.00  0.00    +0.000 A 
ATOM      7  C   UNL     1       6.440   4.963  14.615  0.00  0.00    +0.000 A 
ATOM      8  S   UNL     1       6.158   3.635  15.612  0.00  0.00    +0.000 S 
ATOM      9  H   UNL     1       4.698   2.987  18.000  0.00  0.00    +0.000 HD
ENDROOT
BRANCH   2  10
ATOM     10  C   UNL     1       2.740   3.935  19.519  0.00  0.00    +0.000 A 
ATOM     11  C   UNL     1       2.538   4.457  20.792  0.00  0.00    +0.000 A 
ATOM     12  C   UNL     1       1.784   3.621  21.622  0.00  0.00    +0.000 A 
ATOM     13  C   UNL     1       1.395   2.437  21.011  0.00  0.00    +0.000 A 
ATOM     14  S   UNL     1       1.976   2.434  19.432  0.00  0.00    +0.000 S 
ENDBRANCH   2  10
BRANCH   7  15
ATOM     15  N   UNL     1       7.217   4.945  13.426  0.00  0.00    +0.000 N 
ATOM     16  O   UNL     1       6.972   4.168  12.556  0.00  0.00    +0.000 OA
ATOM     17  O   UNL     1       8.253   5.746  13.308  0.00  0.00    +0.000 OA
ENDBRANCH   7  15
TORSDOF 2
ENDMDL
MODEL 8
REMARK VINA RESULT:      -5.9      3.790      4.277
REMARK  Name = 
REMARK  2 active torsions:
REMARK  status: ('A' for Active; 'I' for Inactive)
REMARK    1  A    between atoms: C_2  and  C_12
REMARK    2  A    between atoms: C_7  and  N_8
REMARK                            x       y       z     vdW  Elec       q    Type
REMARK                         _______ _______ _______ _____ _____    ______ ____
ROOT
ATOM      1  O   UNL     1       2.425   6.112  20.037  0.00  0.00    +0.000 OA
ATOM      2  C   UNL     1       2.392   7.175  19.433  0.00  0.00    +0.000 C 
ATOM      3  N   UNL     1       3.218   7.397  18.371  0.00  0.00    +0.000 N 
ATOM      4  C   UNL     1       4.172   6.447  17.907  0.00  0.00    +0.000 A 
ATOM      5  N   UNL     1       4.245   5.166  18.338  0.00  0.00    +0.000 NA
ATOM      6  C   UNL     1       5.285   4.499  17.776  0.00  0.00    +0.000 A 
ATOM      7  C   UNL     1       6.052   5.268  16.905  0.00  0.00    +0.000 A 
ATOM      8  S   UNL     1       5.396   6.816  16.807  0.00  0.00    +0.000 S 
ATOM      9  H   UNL     1       3.210   8.319  17.912  0.00  0.00    +0.000 HD
ENDROOT
BRANCH   2  10
ATOM     10  C   UNL     1       1.484   8.235  19.925  0.00  0.00    +0.000 A 
ATOM     11  C   UNL     1       0.905   8.272  21.189  0.00  0.00    +0.000 A 
ATOM     12  C   UNL     1       0.103   9.399  21.401  0.00  0.00    +0.000 A 
ATOM     13  C   UNL     1       0.042  10.250  20.306  0.00  0.00    +0.000 A 
ATOM     14  S   UNL     1       0.995   9.609  19.076  0.00  0.00    +0.000 S 
ENDBRANCH   2  10
BRANCH   7  15
ATOM     15  N   UNL     1       7.221   4.830  16.228  0.00  0.00    +0.000 N 
ATOM     16  O   UNL     1       8.039   4.175  16.796  0.00  0.00    +0.000 OA
ATOM     17  O   UNL     1       7.435   5.198  14.984  0.00  0.00    +0.000 OA
ENDBRANCH   7  15
TORSDOF 2
ENDMDL
MODEL 9
REMARK VINA RESULT:      -5.9      2.598      7.085
REMARK  Name = 
REMARK  2 active torsions:
REMARK  status: ('A' for Active; 'I' for Inactive)
REMARK    1  A    between atoms: C_2  and  C_12
REMARK    2  A    between atoms: C_7  and  N_8
REMARK                            x       y       z     vdW  Elec       q    Type
REMARK                         _______ _______ _______ _____ _____    ______ ____
ROOT
ATOM      1  O   UNL     1       6.787   4.297  16.692  0.00  0.00    +0.000 OA
ATOM      2  C   UNL     1       5.917   4.119  15.852  0.00  0.00    +0.000 C 
ATOM      3  N   UNL     1       4.633   3.851  16.226  0.00  0.00    +0.000 N 
ATOM      4  C   UNL     1       4.219   3.738  17.585  0.00  0.00    +0.000 A 
ATOM      5  N   UNL     1       4.994   4.059  18.647  0.00  0.00    +0.000 NA
ATOM      6  C   UNL     1       4.374   3.797  19.825  0.00  0.00    +0.000 A 
ATOM      7  C   UNL     1       3.102   3.247  19.692  0.00  0.00    +0.000 A 
ATOM      8  S   UNL     1       2.726   3.113  18.055  0.00  0.00    +0.000 S 
ATOM      9  H   UNL     1       3.929   3.652  15.502  0.00  0.00    +0.000 HD
ENDROOT
BRANCH   2  10
ATOM     10  C   UNL     1       6.304   4.135  14.423  0.00  0.00    +0.000 A 
ATOM     11  C   UNL     1       5.670   3.419  13.413  0.00  0.00    +0.000 A 
ATOM     12  C   UNL     1       6.227   3.632  12.147  0.00  0.00    +0.000 A 
ATOM     13  C   UNL     1       7.303   4.509  12.155  0.00  0.00    +0.000 A 
ATOM     14  S   UNL     1       7.555   5.031  13.735  0.00  0.00    +0.000 S 
ENDBRANCH   2  10
BRANCH   7  15
ATOM     15  N   UNL     1       2.264   2.834  20.761  0.00  0.00    +0.000 N 
ATOM     16  O   UNL     1       1.080   2.818  20.629  0.00  0.00    +0.000 OA
ATOM     17  O   UNL     1       2.791   2.526  21.926  0.00  0.00    +0.000 OA
ENDBRANCH   7  15
TORSDOF 2
ENDMDL
