MODEL 1
REMARK VINA RESULT:      -5.6      0.000      0.000
REMARK  Name = 
REMARK  2 active torsions:
REMARK  status: ('A' for Active; 'I' for Inactive)
REMARK    1  A    between atoms: C_2  and  O_3
REMARK    2  A    between atoms: C_2  and  C_4
REMARK                            x       y       z     vdW  Elec       q    Type
REMARK                         _______ _______ _______ _____ _____    ______ ____
ROOT
ATOM      1  C   UNL     1       3.082   2.836  19.882  0.00  0.00    +0.000 C 
ATOM      2  C   UNL     1       2.639   2.567  21.332  0.00  0.00    +0.000 C 
ATOM      3  C   UNL     1       1.249   3.221  21.395  0.00  0.00    +0.000 C 
ATOM      4  C   UNL     1       1.060   3.782  19.976  0.00  0.00    +0.000 C 
ATOM      5  C   UNL     1       0.849   2.618  18.996  0.00  0.00    +0.000 C 
ATOM      6  C   UNL     1       2.239   1.965  18.929  0.00  0.00    +0.000 C 
ATOM      7  C   UNL     1       2.477   4.226  19.628  0.00  0.00    +0.000 C 
ENDROOT
BRANCH   1   9
ATOM      8  O   UNL     1       5.250   3.765  19.342  0.00  0.00    +0.000 OA
ATOM      9  C   UNL     1       4.583   2.804  19.694  0.00  0.00    +0.000 C 
BRANCH   9  10
ATOM     10  O   UNL     1       5.154   1.618  20.002  0.00  0.00    +0.000 OA
ATOM     11  H   UNL     1       4.932   0.887  19.398  0.00  0.00    +0.000 HD
ENDBRANCH   9  10
ENDBRANCH   1   9
TORSDOF 2
ENDMDL
MODEL 2
REMARK VINA RESULT:      -5.6      0.677      2.073
REMARK  Name = 
REMARK  2 active torsions:
REMARK  status: ('A' for Active; 'I' for Inactive)
REMARK    1  A    between atoms: C_2  and  O_3
REMARK    2  A    between atoms: C_2  and  C_4
REMARK                            x       y       z     vdW  Elec       q    Type
REMARK                         _______ _______ _______ _____ _____    ______ ____
ROOT
ATOM      1  C   UNL     1       3.167   3.198  19.943  0.00  0.00    +0.000 C 
ATOM      2  C   UNL     1       2.250   2.598  18.861  0.00  0.00    +0.000 C 
ATOM      3  C   UNL     1       0.846   2.774  19.463  0.00  0.00    +0.000 C 
ATOM      4  C   UNL     1       1.126   3.456  20.812  0.00  0.00    +0.000 C 
ATOM      5  C   UNL     1       1.578   4.903  20.563  0.00  0.00    +0.000 C 
ATOM      6  C   UNL     1       2.984   4.729  19.965  0.00  0.00    +0.000 C 
ATOM      7  C   UNL     1       2.433   2.792  21.230  0.00  0.00    +0.000 C 
ENDROOT
BRANCH   1   9
ATOM      8  O   UNL     1       5.007   1.754  20.567  0.00  0.00    +0.000 OA
ATOM      9  C   UNL     1       4.587   2.678  19.886  0.00  0.00    +0.000 C 
BRANCH   9  10
ATOM     10  O   UNL     1       5.364   3.291  18.965  0.00  0.00    +0.000 OA
ATOM     11  H   UNL     1       6.077   3.843  19.333  0.00  0.00    +0.000 HD
ENDBRANCH   9  10
ENDBRANCH   1   9
TORSDOF 2
ENDMDL
MODEL 3
REMARK VINA RESULT:      -5.6      0.920      2.262
REMARK  Name = 
REMARK  2 active torsions:
REMARK  status: ('A' for Active; 'I' for Inactive)
REMARK    1  A    between atoms: C_2  and  O_3
REMARK    2  A    between atoms: C_2  and  C_4
REMARK                            x       y       z     vdW  Elec       q    Type
REMARK                         _______ _______ _______ _____ _____    ______ ____
ROOT
ATOM      1  C   UNL     1       3.143   3.263  19.465  0.00  0.00    +0.000 C 
ATOM      2  C   UNL     1       2.985   4.214  18.265  0.00  0.00    +0.000 C 
ATOM      3  C   UNL     1       1.506   4.041  17.881  0.00  0.00    +0.000 C 
ATOM      4  C   UNL     1       0.994   3.018  18.908  0.00  0.00    +0.000 C 
ATOM      5  C   UNL     1       0.916   3.684  20.290  0.00  0.00    +0.000 C 
ATOM      6  C   UNL     1       2.394   3.853  20.677  0.00  0.00    +0.000 C 
ATOM      7  C   UNL     1       2.208   2.109  19.071  0.00  0.00    +0.000 C 
ENDROOT
BRANCH   1   9
ATOM      8  O   UNL     1       4.891   1.916  20.460  0.00  0.00    +0.000 OA
ATOM      9  C   UNL     1       4.570   2.812  19.694  0.00  0.00    +0.000 C 
BRANCH   9  10
ATOM     10  O   UNL     1       5.482   3.454  18.930  0.00  0.00    +0.000 OA
ATOM     11  H   UNL     1       5.129   3.839  18.108  0.00  0.00    +0.000 HD
ENDBRANCH   9  10
ENDBRANCH   1   9
TORSDOF 2
ENDMDL
MODEL 4
REMARK VINA RESULT:      -5.5      0.955      2.095
REMARK  Name = 
REMARK  2 active torsions:
REMARK  status: ('A' for Active; 'I' for Inactive)
REMARK    1  A    between atoms: C_2  and  O_3
REMARK    2  A    between atoms: C_2  and  C_4
REMARK                            x       y       z     vdW  Elec       q    Type
REMARK                         _______ _______ _______ _____ _____    ______ ____
ROOT
ATOM      1  C   UNL     1       3.205   3.433  19.287  0.00  0.00    +0.000 C 
ATOM      2  C   UNL     1       2.899   4.452  18.173  0.00  0.00    +0.000 C 
ATOM      3  C   UNL     1       1.450   4.114  17.786  0.00  0.00    +0.000 C 
ATOM      4  C   UNL     1       1.098   2.948  18.724  0.00  0.00    +0.000 C 
ATOM      5  C   UNL     1       0.956   3.480  20.159  0.00  0.00    +0.000 C 
ATOM      6  C   UNL     1       2.405   3.814  20.549  0.00  0.00    +0.000 C 
ATOM      7  C   UNL     1       2.425   2.201  18.802  0.00  0.00    +0.000 C 
ENDROOT
BRANCH   1   9
ATOM      8  O   UNL     1       5.559   3.996  19.294  0.00  0.00    +0.000 OA
ATOM      9  C   UNL     1       4.682   3.162  19.468  0.00  0.00    +0.000 C 
BRANCH   9  10
ATOM     10  O   UNL     1       4.967   1.912  19.897  0.00  0.00    +0.000 OA
ATOM     11  H   UNL     1       5.916   1.721  19.999  0.00  0.00    +0.000 HD
ENDBRANCH   9  10
ENDBRANCH   1   9
TORSDOF 2
ENDMDL
MODEL 5
REMARK VINA RESULT:      -5.5      0.645      1.872
REMARK  Name = 
REMARK  2 active torsions:
REMARK  status: ('A' for Active; 'I' for Inactive)
REMARK    1  A    between atoms: C_2  and  O_3
REMARK    2  A    between atoms: C_2  and  C_4
REMARK                            x       y       z     vdW  Elec       q    Type
REMARK                         _______ _______ _______ _____ _____    ______ ____
ROOT
ATOM      1  C   UNL     1       3.149   3.378  19.745  0.00  0.00    +0.000 C 
ATOM      2  C   UNL     1       2.272   2.788  18.625  0.00  0.00    +0.000 C 
ATOM      3  C   UNL     1       0.883   2.713  19.279  0.00  0.00    +0.000 C 
ATOM      4  C   UNL     1       1.128   3.271  20.690  0.00  0.00    +0.000 C 
ATOM      5  C   UNL     1       1.384   4.783  20.598  0.00  0.00    +0.000 C 
ATOM      6  C   UNL     1       2.775   4.860  19.948  0.00  0.00    +0.000 C 
ATOM      7  C   UNL     1       2.525   2.740  20.995  0.00  0.00    +0.000 C 
ENDROOT
BRANCH   1   9
ATOM      8  O   UNL     1       5.468   3.869  19.252  0.00  0.00    +0.000 OA
ATOM      9  C   UNL     1       4.620   3.057  19.592  0.00  0.00    +0.000 C 
BRANCH   9  10
ATOM     10  O   UNL     1       4.945   1.786  19.917  0.00  0.00    +0.000 OA
ATOM     11  H   UNL     1       5.704   1.700  20.522  0.00  0.00    +0.000 HD
ENDBRANCH   9  10
ENDBRANCH   1   9
TORSDOF 2
ENDMDL
MODEL 6
REMARK VINA RESULT:      -5.5      0.390      1.027
REMARK  Name = 
REMARK  2 active torsions:
REMARK  status: ('A' for Active; 'I' for Inactive)
REMARK    1  A    between atoms: C_2  and  O_3
REMARK    2  A    between atoms: C_2  and  C_4
REMARK                            x       y       z     vdW  Elec       q    Type
REMARK                         _______ _______ _______ _____ _____    ______ ____
ROOT
ATOM      1  C   UNL     1       3.124   2.769  19.889  0.00  0.00    +0.000 C 
ATOM      2  C   UNL     1       2.464   2.730  21.280  0.00  0.00    +0.000 C 
ATOM      3  C   UNL     1       1.173   3.538  21.071  0.00  0.00    +0.000 C 
ATOM      4  C   UNL     1       1.245   3.940  19.589  0.00  0.00    +0.000 C 
ATOM      5  C   UNL     1       1.017   2.696  18.716  0.00  0.00    +0.000 C 
ATOM      6  C   UNL     1       2.309   1.888  18.920  0.00  0.00    +0.000 C 
ATOM      7  C   UNL     1       2.740   4.176  19.405  0.00  0.00    +0.000 C 
ENDROOT
BRANCH   1   9
ATOM      8  O   UNL     1       5.172   1.709  20.623  0.00  0.00    +0.000 OA
ATOM      9  C   UNL     1       4.620   2.547  19.925  0.00  0.00    +0.000 C 
BRANCH   9  10
ATOM     10  O   UNL     1       5.316   3.326  19.067  0.00  0.00    +0.000 OA
ATOM     11  H   UNL     1       6.268   3.125  19.012  0.00  0.00    +0.000 HD
ENDBRANCH   9  10
ENDBRANCH   1   9
TORSDOF 2
ENDMDL
MODEL 7
REMARK VINA RESULT:      -5.4      1.157      2.218
REMARK  Name = 
REMARK  2 active torsions:
REMARK  status: ('A' for Active; 'I' for Inactive)
REMARK    1  A    between atoms: C_2  and  O_3
REMARK    2  A    between atoms: C_2  and  C_4
REMARK                            x       y       z     vdW  Elec       q    Type
REMARK                         _______ _______ _______ _____ _____    ______ ____
ROOT
ATOM      1  C   UNL     1       2.958   2.751  19.396  0.00  0.00    +0.000 C 
ATOM      2  C   UNL     1       3.016   3.744  18.220  0.00  0.00    +0.000 C 
ATOM      3  C   UNL     1       1.534   4.059  17.962  0.00  0.00    +0.000 C 
ATOM      4  C   UNL     1       0.805   3.214  19.020  0.00  0.00    +0.000 C 
ATOM      5  C   UNL     1       1.050   3.824  20.409  0.00  0.00    +0.000 C 
ATOM      6  C   UNL     1       2.531   3.505  20.671  0.00  0.00    +0.000 C 
ATOM      7  C   UNL     1       1.677   1.965  19.073  0.00  0.00    +0.000 C 
ENDROOT
BRANCH   1   9
ATOM      8  O   UNL     1       5.035   1.977  20.367  0.00  0.00    +0.000 OA
ATOM      9  C   UNL     1       4.181   1.866  19.500  0.00  0.00    +0.000 C 
BRANCH   9  10
ATOM     10  O   UNL     1       4.235   0.885  18.572  0.00  0.00    +0.000 OA
ATOM     11  H   UNL     1       3.783   0.059  18.822  0.00  0.00    +0.000 HD
ENDBRANCH   9  10
ENDBRANCH   1   9
TORSDOF 2
ENDMDL
MODEL 8
REMARK VINA RESULT:      -5.4      1.255      1.534
REMARK  Name = 
REMARK  2 active torsions:
REMARK  status: ('A' for Active; 'I' for Inactive)
REMARK    1  A    between atoms: C_2  and  O_3
REMARK    2  A    between atoms: C_2  and  C_4
REMARK                            x       y       z     vdW  Elec       q    Type
REMARK                         _______ _______ _______ _____ _____    ______ ____
ROOT
ATOM      1  C   UNL     1       2.914   2.782  19.172  0.00  0.00    +0.000 C 
ATOM      2  C   UNL     1       1.733   2.474  20.111  0.00  0.00    +0.000 C 
ATOM      3  C   UNL     1       0.961   3.803  20.141  0.00  0.00    +0.000 C 
ATOM      4  C   UNL     1       1.788   4.711  19.215  0.00  0.00    +0.000 C 
ATOM      5  C   UNL     1       1.614   4.244  17.762  0.00  0.00    +0.000 C 
ATOM      6  C   UNL     1       2.389   2.916  17.729  0.00  0.00    +0.000 C 
ATOM      7  C   UNL     1       3.210   4.249  19.519  0.00  0.00    +0.000 C 
ENDROOT
BRANCH   1   9
ATOM      8  O   UNL     1       4.917   2.010  20.291  0.00  0.00    +0.000 OA
ATOM      9  C   UNL     1       4.107   1.875  19.386  0.00  0.00    +0.000 C 
BRANCH   9  10
ATOM     10  O   UNL     1       4.183   0.846  18.513  0.00  0.00    +0.000 OA
ATOM     11  H   UNL     1       5.047   0.745  18.074  0.00  0.00    +0.000 HD
ENDBRANCH   9  10
ENDBRANCH   1   9
TORSDOF 2
ENDMDL
MODEL 9
REMARK VINA RESULT:      -5.4      1.105      1.843
REMARK  Name = 
REMARK  2 active torsions:
REMARK  status: ('A' for Active; 'I' for Inactive)
REMARK    1  A    between atoms: C_2  and  O_3
REMARK    2  A    between atoms: C_2  and  C_4
REMARK                            x       y       z     vdW  Elec       q    Type
REMARK                         _______ _______ _______ _____ _____    ______ ____
ROOT
ATOM      1  C   UNL     1       3.011   3.422  19.761  0.00  0.00    +0.000 C 
ATOM      2  C   UNL     1       2.975   4.916  20.131  0.00  0.00    +0.000 C 
ATOM      3  C   UNL     1       1.511   5.132  20.547  0.00  0.00    +0.000 C 
ATOM      4  C   UNL     1       0.885   3.739  20.370  0.00  0.00    +0.000 C 
ATOM      5  C   UNL     1       1.420   2.802  21.465  0.00  0.00    +0.000 C 
ATOM      6  C   UNL     1       2.883   2.582  21.048  0.00  0.00    +0.000 C 
ATOM      7  C   UNL     1       1.621   3.224  19.138  0.00  0.00    +0.000 C 
ENDROOT
BRANCH   1   9
ATOM      8  O   UNL     1       4.014   2.981  17.603  0.00  0.00    +0.000 OA
ATOM      9  C   UNL     1       4.137   3.062  18.816  0.00  0.00    +0.000 C 
BRANCH   9  10
ATOM     10  O   UNL     1       5.332   2.882  19.422  0.00  0.00    +0.000 OA
ATOM     11  H   UNL     1       5.329   2.235  20.149  0.00  0.00    +0.000 HD
ENDBRANCH   9  10
ENDBRANCH   1   9
TORSDOF 2
ENDMDL
