MODEL 1
REMARK VINA RESULT:      -6.7      0.000      0.000
REMARK  Name = 
REMARK  6 active torsions:
REMARK  status: ('A' for Active; 'I' for Inactive)
REMARK    1  A    between atoms: C_1  and  C_2
REMARK    2  A    between atoms: N_4  and  C_5
REMARK    3  A    between atoms: N_4  and  C_6
REMARK    4  A    between atoms: C_6  and  C_7
REMARK    5  A    between atoms: N_9  and  C_10
REMARK    6  A    between atoms: C_10  and  C_11
REMARK                            x       y       z     vdW  Elec       q    Type
REMARK                         _______ _______ _______ _____ _____    ______ ____
ROOT
ATOM      1  C   UNL     1       4.132   6.319  18.163  0.00  0.00    +0.000 C 
ATOM      2  O   UNL     1       4.131   6.964  17.109  0.00  0.00    +0.000 OA
ATOM      3  N   UNL     1       5.219   5.591  18.612  0.00  0.00    +0.000 N 
ATOM      4  H   UNL     1       5.164   5.134  19.511  0.00  0.00    +0.000 HD
ENDROOT
BRANCH   3   5
ATOM      5  C   UNL     1       6.486   5.593  17.933  0.00  0.00    +0.000 C 
ATOM      6  C   UNL     1       7.393   6.808  18.071  0.00  0.00    +0.000 C 
ATOM      7  C   UNL     1       7.755   5.546  18.779  0.00  0.00    +0.000 C 
BRANCH   5   8
ATOM      8  C   UNL     1       6.512   4.884  16.580  0.00  0.00    +0.000 A 
ATOM      9  C   UNL     1       5.673   3.781  16.336  0.00  0.00    +0.000 A 
ATOM     10  C   UNL     1       5.473   3.285  15.047  0.00  0.00    +0.000 A 
ATOM     11  C   UNL     1       6.139   3.871  13.977  0.00  0.00    +0.000 A 
ATOM     12 BR   UNL     1       5.732   3.335  12.211  0.00  0.00    +0.000 Br
ATOM     13  C   UNL     1       7.064   4.888  14.198  0.00  0.00    +0.000 A 
ATOM     14  C   UNL     1       7.258   5.378  15.493  0.00  0.00    +0.000 A 
ENDBRANCH   5   8
ENDBRANCH   3   5
BRANCH   1  15
ATOM     15  C   UNL     1       2.872   6.170  19.012  0.00  0.00    +0.000 C 
BRANCH  15  19
ATOM     16  C   UNL     1       1.098   3.037  20.252  0.00  0.00    +0.000 C 
ATOM     17  C   UNL     1       1.892   4.318  20.230  0.00  0.00    +0.000 C 
ATOM     18  O   UNL     1       2.232   4.856  21.284  0.00  0.00    +0.000 OA
ATOM     19  N   UNL     1       2.207   4.863  18.994  0.00  0.00    +0.000 N 
ATOM     20  C   UNL     1       1.844   4.277  17.708  0.00  0.00    +0.000 C 
ENDBRANCH  15  19
ENDBRANCH   1  15
TORSDOF 4
ENDMDL
MODEL 2
REMARK VINA RESULT:      -6.5      1.456      1.722
REMARK  Name = 
REMARK  6 active torsions:
REMARK  status: ('A' for Active; 'I' for Inactive)
REMARK    1  A    between atoms: C_1  and  C_2
REMARK    2  A    between atoms: N_4  and  C_5
REMARK    3  A    between atoms: N_4  and  C_6
REMARK    4  A    between atoms: C_6  and  C_7
REMARK    5  A    between atoms: N_9  and  C_10
REMARK    6  A    between atoms: C_10  and  C_11
REMARK                            x       y       z     vdW  Elec       q    Type
REMARK                         _______ _______ _______ _____ _____    ______ ____
ROOT
ATOM      1  C   UNL     1       4.691   4.875  19.231  0.00  0.00    +0.000 C 
ATOM      2  O   UNL     1       5.350   3.874  19.533  0.00  0.00    +0.000 OA
ATOM      3  N   UNL     1       5.156   5.871  18.392  0.00  0.00    +0.000 N 
ATOM      4  H   UNL     1       4.539   6.632  18.146  0.00  0.00    +0.000 HD
ENDROOT
BRANCH   3   5
ATOM      5  C   UNL     1       6.423   5.788  17.719  0.00  0.00    +0.000 C 
ATOM      6  C   UNL     1       7.370   6.979  17.780  0.00  0.00    +0.000 C 
ATOM      7  C   UNL     1       7.689   5.754  18.569  0.00  0.00    +0.000 C 
BRANCH   5   8
ATOM      8  C   UNL     1       6.427   4.993  16.413  0.00  0.00    +0.000 A 
ATOM      9  C   UNL     1       5.423   4.040  16.157  0.00  0.00    +0.000 A 
ATOM     10  C   UNL     1       5.238   3.499  14.883  0.00  0.00    +0.000 A 
ATOM     11  C   UNL     1       6.081   3.882  13.847  0.00  0.00    +0.000 A 
ATOM     12 BR   UNL     1       5.724   3.304  12.083  0.00  0.00    +0.000 Br
ATOM     13  C   UNL     1       7.155   4.733  14.094  0.00  0.00    +0.000 A 
ATOM     14  C   UNL     1       7.332   5.271  15.373  0.00  0.00    +0.000 A 
ENDBRANCH   5   8
ENDBRANCH   3   5
BRANCH   1  15
ATOM     15  C   UNL     1       3.331   5.160  19.865  0.00  0.00    +0.000 C 
BRANCH  15  19
ATOM     16  C   UNL     1       0.869   2.458  18.799  0.00  0.00    +0.000 C 
ATOM     17  C   UNL     1       1.747   3.683  18.777  0.00  0.00    +0.000 C 
ATOM     18  O   UNL     1       1.886   4.328  17.738  0.00  0.00    +0.000 OA
ATOM     19  N   UNL     1       2.390   4.038  19.954  0.00  0.00    +0.000 N 
ATOM     20  C   UNL     1       2.265   3.325  21.220  0.00  0.00    +0.000 C 
ENDBRANCH  15  19
ENDBRANCH   1  15
TORSDOF 4
ENDMDL
MODEL 3
REMARK VINA RESULT:      -6.5      3.394      5.926
REMARK  Name = 
REMARK  6 active torsions:
REMARK  status: ('A' for Active; 'I' for Inactive)
REMARK    1  A    between atoms: C_1  and  C_2
REMARK    2  A    between atoms: N_4  and  C_5
REMARK    3  A    between atoms: N_4  and  C_6
REMARK    4  A    between atoms: C_6  and  C_7
REMARK    5  A    between atoms: N_9  and  C_10
REMARK    6  A    between atoms: C_10  and  C_11
REMARK                            x       y       z     vdW  Elec       q    Type
REMARK                         _______ _______ _______ _____ _____    ______ ____
ROOT
ATOM      1  C   UNL     1       7.370   5.040  15.684  0.00  0.00    +0.000 C 
ATOM      2  O   UNL     1       7.756   4.243  16.546  0.00  0.00    +0.000 OA
ATOM      3  N   UNL     1       6.777   6.254  15.977  0.00  0.00    +0.000 N 
ATOM      4  H   UNL     1       6.539   6.878  15.219  0.00  0.00    +0.000 HD
ENDROOT
BRANCH   3   5
ATOM      5  C   UNL     1       6.635   6.743  17.321  0.00  0.00    +0.000 C 
ATOM      6  C   UNL     1       7.884   6.927  18.173  0.00  0.00    +0.000 C 
ATOM      7  C   UNL     1       7.180   8.131  17.643  0.00  0.00    +0.000 C 
BRANCH   5   8
ATOM      8  C   UNL     1       5.378   6.287  18.061  0.00  0.00    +0.000 A 
ATOM      9  C   UNL     1       4.104   6.677  17.608  0.00  0.00    +0.000 A 
ATOM     10  C   UNL     1       2.941   6.069  18.086  0.00  0.00    +0.000 A 
ATOM     11  C   UNL     1       3.035   5.077  19.054  0.00  0.00    +0.000 A 
ATOM     12 BR   UNL     1       1.490   4.118  19.569  0.00  0.00    +0.000 Br
ATOM     13  C   UNL     1       4.270   4.751  19.607  0.00  0.00    +0.000 A 
ATOM     14  C   UNL     1       5.430   5.364  19.122  0.00  0.00    +0.000 A 
ENDBRANCH   5   8
ENDBRANCH   3   5
BRANCH   1  15
ATOM     15  C   UNL     1       7.409   4.692  14.197  0.00  0.00    +0.000 C 
BRANCH  15  19
ATOM     16  C   UNL     1       5.160   2.825  11.756  0.00  0.00    +0.000 C 
ATOM     17  C   UNL     1       6.325   3.591  12.330  0.00  0.00    +0.000 C 
ATOM     18  O   UNL     1       7.339   3.774  11.657  0.00  0.00    +0.000 OA
ATOM     19  N   UNL     1       6.213   4.061  13.631  0.00  0.00    +0.000 N 
ATOM     20  C   UNL     1       5.040   3.887  14.481  0.00  0.00    +0.000 C 
ENDBRANCH  15  19
ENDBRANCH   1  15
TORSDOF 4
ENDMDL
MODEL 4
REMARK VINA RESULT:      -6.5      3.424      6.470
REMARK  Name = 
REMARK  6 active torsions:
REMARK  status: ('A' for Active; 'I' for Inactive)
REMARK    1  A    between atoms: C_1  and  C_2
REMARK    2  A    between atoms: N_4  and  C_5
REMARK    3  A    between atoms: N_4  and  C_6
REMARK    4  A    between atoms: C_6  and  C_7
REMARK    5  A    between atoms: N_9  and  C_10
REMARK    6  A    between atoms: C_10  and  C_11
REMARK                            x       y       z     vdW  Elec       q    Type
REMARK                         _______ _______ _______ _____ _____    ______ ____
ROOT
ATOM      1  C   UNL     1       4.187   4.525  18.247  0.00  0.00    +0.000 C 
ATOM      2  O   UNL     1       3.326   4.397  17.370  0.00  0.00    +0.000 OA
ATOM      3  N   UNL     1       3.929   5.050  19.500  0.00  0.00    +0.000 N 
ATOM      4  H   UNL     1       4.672   5.072  20.184  0.00  0.00    +0.000 HD
ENDROOT
BRANCH   3   5
ATOM      5  C   UNL     1       2.606   5.411  19.931  0.00  0.00    +0.000 C 
ATOM      6  C   UNL     1       1.472   4.412  19.743  0.00  0.00    +0.000 C 
ATOM      7  C   UNL     1       2.005   4.659  21.114  0.00  0.00    +0.000 C 
BRANCH   5   8
ATOM      8  C   UNL     1       2.237   6.885  19.769  0.00  0.00    +0.000 A 
ATOM      9  C   UNL     1       2.401   7.528  18.528  0.00  0.00    +0.000 A 
ATOM     10  C   UNL     1       1.831   8.776  18.271  0.00  0.00    +0.000 A 
ATOM     11  C   UNL     1       1.109   9.418  19.270  0.00  0.00    +0.000 A 
ATOM     12 BR   UNL     1       0.176  11.014  18.876  0.00  0.00    +0.000 Br
ATOM     13  C   UNL     1       1.027   8.863  20.544  0.00  0.00    +0.000 A 
ATOM     14  C   UNL     1       1.601   7.612  20.792  0.00  0.00    +0.000 A 
ENDBRANCH   5   8
ENDBRANCH   3   5
BRANCH   1  15
ATOM     15  C   UNL     1       5.659   4.223  17.974  0.00  0.00    +0.000 C 
BRANCH  15  19
ATOM     16  C   UNL     1       8.237   6.957  18.588  0.00  0.00    +0.000 C 
ATOM     17  C   UNL     1       7.230   5.861  18.824  0.00  0.00    +0.000 C 
ATOM     18  O   UNL     1       7.047   5.421  19.959  0.00  0.00    +0.000 OA
ATOM     19  N   UNL     1       6.539   5.370  17.726  0.00  0.00    +0.000 N 
ATOM     20  C   UNL     1       6.700   5.851  16.358  0.00  0.00    +0.000 C 
ENDBRANCH  15  19
ENDBRANCH   1  15
TORSDOF 4
ENDMDL
MODEL 5
REMARK VINA RESULT:      -6.4      3.515      6.416
REMARK  Name = 
REMARK  6 active torsions:
REMARK  status: ('A' for Active; 'I' for Inactive)
REMARK    1  A    between atoms: C_1  and  C_2
REMARK    2  A    between atoms: N_4  and  C_5
REMARK    3  A    between atoms: N_4  and  C_6
REMARK    4  A    between atoms: C_6  and  C_7
REMARK    5  A    between atoms: N_9  and  C_10
REMARK    6  A    between atoms: C_10  and  C_11
REMARK                            x       y       z     vdW  Elec       q    Type
REMARK                         _______ _______ _______ _____ _____    ______ ____
ROOT
ATOM      1  C   UNL     1       5.503   4.433  17.310  0.00  0.00    +0.000 C 
ATOM      2  O   UNL     1       4.969   4.823  16.266  0.00  0.00    +0.000 OA
ATOM      3  N   UNL     1       4.794   4.003  18.416  0.00  0.00    +0.000 N 
ATOM      4  H   UNL     1       5.300   3.645  19.214  0.00  0.00    +0.000 HD
ENDROOT
BRANCH   3   5
ATOM      5  C   UNL     1       3.361   3.884  18.420  0.00  0.00    +0.000 C 
ATOM      6  C   UNL     1       2.679   3.166  17.263  0.00  0.00    +0.000 C 
ATOM      7  C   UNL     1       2.755   2.495  18.593  0.00  0.00    +0.000 C 
BRANCH   5   8
ATOM      8  C   UNL     1       2.602   5.067  19.019  0.00  0.00    +0.000 A 
ATOM      9  C   UNL     1       1.897   4.923  20.229  0.00  0.00    +0.000 A 
ATOM     10  C   UNL     1       1.426   6.030  20.937  0.00  0.00    +0.000 A 
ATOM     11  C   UNL     1       1.627   7.306  20.425  0.00  0.00    +0.000 A 
ATOM     12 BR   UNL     1       1.164   8.817  21.462  0.00  0.00    +0.000 Br
ATOM     13  C   UNL     1       2.217   7.476  19.175  0.00  0.00    +0.000 A 
ATOM     14  C   UNL     1       2.686   6.361  18.474  0.00  0.00    +0.000 A 
ENDBRANCH   5   8
ENDBRANCH   3   5
BRANCH   1  15
ATOM     15  C   UNL     1       7.015   4.508  17.512  0.00  0.00    +0.000 C 
BRANCH  15  19
ATOM     16  C   UNL     1       8.128   8.094  18.143  0.00  0.00    +0.000 C 
ATOM     17  C   UNL     1       7.715   6.827  17.440  0.00  0.00    +0.000 C 
ATOM     18  O   UNL     1       7.537   6.823  16.221  0.00  0.00    +0.000 OA
ATOM     19  N   UNL     1       7.535   5.688  18.211  0.00  0.00    +0.000 N 
ATOM     20  C   UNL     1       7.735   5.619  19.654  0.00  0.00    +0.000 C 
ENDBRANCH  15  19
ENDBRANCH   1  15
TORSDOF 4
ENDMDL
MODEL 6
REMARK VINA RESULT:      -6.4      1.067      1.318
REMARK  Name = 
REMARK  6 active torsions:
REMARK  status: ('A' for Active; 'I' for Inactive)
REMARK    1  A    between atoms: C_1  and  C_2
REMARK    2  A    between atoms: N_4  and  C_5
REMARK    3  A    between atoms: N_4  and  C_6
REMARK    4  A    between atoms: C_6  and  C_7
REMARK    5  A    between atoms: N_9  and  C_10
REMARK    6  A    between atoms: C_10  and  C_11
REMARK                            x       y       z     vdW  Elec       q    Type
REMARK                         _______ _______ _______ _____ _____    ______ ____
ROOT
ATOM      1  C   UNL     1       3.967   6.248  18.174  0.00  0.00    +0.000 C 
ATOM      2  O   UNL     1       3.998   6.962  17.166  0.00  0.00    +0.000 OA
ATOM      3  N   UNL     1       5.039   5.489  18.606  0.00  0.00    +0.000 N 
ATOM      4  H   UNL     1       4.957   4.974  19.471  0.00  0.00    +0.000 HD
ENDROOT
BRANCH   3   5
ATOM      5  C   UNL     1       6.327   5.534  17.969  0.00  0.00    +0.000 C 
ATOM      6  C   UNL     1       7.191   6.776  18.140  0.00  0.00    +0.000 C 
ATOM      7  C   UNL     1       7.569   5.522  18.855  0.00  0.00    +0.000 C 
BRANCH   5   8
ATOM      8  C   UNL     1       6.418   4.833  16.614  0.00  0.00    +0.000 A 
ATOM      9  C   UNL     1       5.582   3.739  16.319  0.00  0.00    +0.000 A 
ATOM     10  C   UNL     1       5.446   3.254  15.017  0.00  0.00    +0.000 A 
ATOM     11  C   UNL     1       6.173   3.840  13.988  0.00  0.00    +0.000 A 
ATOM     12 BR   UNL     1       5.856   3.318  12.200  0.00  0.00    +0.000 Br
ATOM     13  C   UNL     1       7.096   4.846  14.264  0.00  0.00    +0.000 A 
ATOM     14  C   UNL     1       7.225   5.326  15.572  0.00  0.00    +0.000 A 
ENDBRANCH   5   8
ENDBRANCH   3   5
BRANCH   1  15
ATOM     15  C   UNL     1       2.681   6.046  18.972  0.00  0.00    +0.000 C 
BRANCH  15  19
ATOM     16  C   UNL     1       1.431   2.457  18.728  0.00  0.00    +0.000 C 
ATOM     17  C   UNL     1       1.679   3.910  18.414  0.00  0.00    +0.000 C 
ATOM     18  O   UNL     1       1.303   4.387  17.343  0.00  0.00    +0.000 OA
ATOM     19  N   UNL     1       2.349   4.671  19.362  0.00  0.00    +0.000 N 
ATOM     20  C   UNL     1       2.814   4.174  20.652  0.00  0.00    +0.000 C 
ENDBRANCH  15  19
ENDBRANCH   1  15
TORSDOF 4
ENDMDL
MODEL 7
REMARK VINA RESULT:      -6.3      1.538      2.066
REMARK  Name = 
REMARK  6 active torsions:
REMARK  status: ('A' for Active; 'I' for Inactive)
REMARK    1  A    between atoms: C_1  and  C_2
REMARK    2  A    between atoms: N_4  and  C_5
REMARK    3  A    between atoms: N_4  and  C_6
REMARK    4  A    between atoms: C_6  and  C_7
REMARK    5  A    between atoms: N_9  and  C_10
REMARK    6  A    between atoms: C_10  and  C_11
REMARK                            x       y       z     vdW  Elec       q    Type
REMARK                         _______ _______ _______ _____ _____    ______ ____
ROOT
ATOM      1  C   UNL     1       4.679   4.683  19.203  0.00  0.00    +0.000 C 
ATOM      2  O   UNL     1       5.266   3.598  19.271  0.00  0.00    +0.000 OA
ATOM      3  N   UNL     1       5.173   5.776  18.514  0.00  0.00    +0.000 N 
ATOM      4  H   UNL     1       4.610   6.613  18.455  0.00  0.00    +0.000 HD
ENDROOT
BRANCH   3   5
ATOM      5  C   UNL     1       6.378   5.719  17.733  0.00  0.00    +0.000 C 
ATOM      6  C   UNL     1       7.476   6.741  17.999  0.00  0.00    +0.000 C 
ATOM      7  C   UNL     1       7.673   5.328  18.437  0.00  0.00    +0.000 C 
BRANCH   5   8
ATOM      8  C   UNL     1       6.204   5.283  16.279  0.00  0.00    +0.000 A 
ATOM      9  C   UNL     1       7.219   5.526  15.335  0.00  0.00    +0.000 A 
ATOM     10  C   UNL     1       7.215   4.911  14.082  0.00  0.00    +0.000 A 
ATOM     11  C   UNL     1       6.169   4.062  13.740  0.00  0.00    +0.000 A 
ATOM     12 BR   UNL     1       6.247   3.079  12.127  0.00  0.00    +0.000 Br
ATOM     13  C   UNL     1       5.091   3.892  14.604  0.00  0.00    +0.000 A 
ATOM     14  C   UNL     1       5.105   4.511  15.858  0.00  0.00    +0.000 A 
ENDBRANCH   5   8
ENDBRANCH   3   5
BRANCH   1  15
ATOM     15  C   UNL     1       3.396   4.951  19.987  0.00  0.00    +0.000 C 
BRANCH  15  19
ATOM     16  C   UNL     1       0.682   2.505  18.915  0.00  0.00    +0.000 C 
ATOM     17  C   UNL     1       1.613   3.690  18.936  0.00  0.00    +0.000 C 
ATOM     18  O   UNL     1       1.654   4.464  17.979  0.00  0.00    +0.000 OA
ATOM     19  N   UNL     1       2.417   3.862  20.054  0.00  0.00    +0.000 N 
ATOM     20  C   UNL     1       2.415   2.989  21.223  0.00  0.00    +0.000 C 
ENDBRANCH  15  19
ENDBRANCH   1  15
TORSDOF 4
ENDMDL
MODEL 8
REMARK VINA RESULT:      -6.3      1.040      1.045
REMARK  Name = 
REMARK  6 active torsions:
REMARK  status: ('A' for Active; 'I' for Inactive)
REMARK    1  A    between atoms: C_1  and  C_2
REMARK    2  A    between atoms: N_4  and  C_5
REMARK    3  A    between atoms: N_4  and  C_6
REMARK    4  A    between atoms: C_6  and  C_7
REMARK    5  A    between atoms: N_9  and  C_10
REMARK    6  A    between atoms: C_10  and  C_11
REMARK                            x       y       z     vdW  Elec       q    Type
REMARK                         _______ _______ _______ _____ _____    ______ ____
ROOT
ATOM      1  C   UNL     1       4.698   5.393  18.999  0.00  0.00    +0.000 C 
ATOM      2  O   UNL     1       5.364   4.440  19.417  0.00  0.00    +0.000 OA
ATOM      3  N   UNL     1       5.176   6.318  18.089  0.00  0.00    +0.000 N 
ATOM      4  H   UNL     1       4.554   7.038  17.751  0.00  0.00    +0.000 HD
ENDROOT
BRANCH   3   5
ATOM      5  C   UNL     1       6.470   6.203  17.474  0.00  0.00    +0.000 C 
ATOM      6  C   UNL     1       7.396   7.411  17.475  0.00  0.00    +0.000 C 
ATOM      7  C   UNL     1       7.701   6.259  18.373  0.00  0.00    +0.000 C 
BRANCH   5   8
ATOM      8  C   UNL     1       6.537   5.305  16.239  0.00  0.00    +0.000 A 
ATOM      9  C   UNL     1       5.663   4.211  16.105  0.00  0.00    +0.000 A 
ATOM     10  C   UNL     1       5.510   3.542  14.889  0.00  0.00    +0.000 A 
ATOM     11  C   UNL     1       6.259   3.942  13.789  0.00  0.00    +0.000 A 
ATOM     12 BR   UNL     1       5.925   3.172  12.095  0.00  0.00    +0.000 Br
ATOM     13  C   UNL     1       7.217   4.944  13.918  0.00  0.00    +0.000 A 
ATOM     14  C   UNL     1       7.362   5.609  15.140  0.00  0.00    +0.000 A 
ENDBRANCH   5   8
ENDBRANCH   3   5
BRANCH   1  15
ATOM     15  C   UNL     1       3.308   5.703  19.552  0.00  0.00    +0.000 C 
BRANCH  15  19
ATOM     16  C   UNL     1       0.627   3.100  20.284  0.00  0.00    +0.000 C 
ATOM     17  C   UNL     1       1.786   4.048  20.457  0.00  0.00    +0.000 C 
ATOM     18  O   UNL     1       2.274   4.235  21.571  0.00  0.00    +0.000 OA
ATOM     19  N   UNL     1       2.264   4.698  19.328  0.00  0.00    +0.000 N 
ATOM     20  C   UNL     1       1.739   4.518  17.979  0.00  0.00    +0.000 C 
ENDBRANCH  15  19
ENDBRANCH   1  15
TORSDOF 4
ENDMDL
MODEL 9
REMARK VINA RESULT:      -6.3      3.312      6.306
REMARK  Name = 
REMARK  6 active torsions:
REMARK  status: ('A' for Active; 'I' for Inactive)
REMARK    1  A    between atoms: C_1  and  C_2
REMARK    2  A    between atoms: N_4  and  C_5
REMARK    3  A    between atoms: N_4  and  C_6
REMARK    4  A    between atoms: C_6  and  C_7
REMARK    5  A    between atoms: N_9  and  C_10
REMARK    6  A    between atoms: C_10  and  C_11
REMARK                            x       y       z     vdW  Elec       q    Type
REMARK                         _______ _______ _______ _____ _____    ______ ____
ROOT
ATOM      1  C   UNL     1       3.126   3.767  17.889  0.00  0.00    +0.000 C 
ATOM      2  O   UNL     1       2.030   3.814  17.319  0.00  0.00    +0.000 OA
ATOM      3  N   UNL     1       3.361   4.315  19.137  0.00  0.00    +0.000 N 
ATOM      4  H   UNL     1       4.267   4.188  19.564  0.00  0.00    +0.000 HD
ENDROOT
BRANCH   3   5
ATOM      5  C   UNL     1       2.322   4.916  19.928  0.00  0.00    +0.000 C 
ATOM      6  C   UNL     1       1.037   4.134  20.172  0.00  0.00    +0.000 C 
ATOM      7  C   UNL     1       2.010   4.304  21.290  0.00  0.00    +0.000 C 
BRANCH   5   8
ATOM      8  C   UNL     1       2.170   6.429  19.781  0.00  0.00    +0.000 A 
ATOM      9  C   UNL     1       2.496   7.064  18.568  0.00  0.00    +0.000 A 
ATOM     10  C   UNL     1       2.119   8.383  18.309  0.00  0.00    +0.000 A 
ATOM     11  C   UNL     1       1.434   9.102  19.280  0.00  0.00    +0.000 A 
ATOM     12 BR   UNL     1       0.755  10.819  18.872  0.00  0.00    +0.000 Br
ATOM     13  C   UNL     1       1.198   8.543  20.533  0.00  0.00    +0.000 A 
ATOM     14  C   UNL     1       1.579   7.221  20.783  0.00  0.00    +0.000 A 
ENDBRANCH   5   8
ENDBRANCH   3   5
BRANCH   1  15
ATOM     15  C   UNL     1       4.363   3.194  17.202  0.00  0.00    +0.000 C 
BRANCH  15  19
ATOM     16  C   UNL     1       7.391   5.495  17.007  0.00  0.00    +0.000 C 
ATOM     17  C   UNL     1       6.304   4.603  17.550  0.00  0.00    +0.000 C 
ATOM     18  O   UNL     1       6.300   4.283  18.739  0.00  0.00    +0.000 OA
ATOM     19  N   UNL     1       5.332   4.156  16.667  0.00  0.00    +0.000 N 
ATOM     20  C   UNL     1       5.271   4.502  15.251  0.00  0.00    +0.000 C 
ENDBRANCH  15  19
ENDBRANCH   1  15
TORSDOF 4
ENDMDL
