MODEL 1
REMARK VINA RESULT:      -6.6      0.000      0.000
REMARK  Name = 
REMARK  4 active torsions:
REMARK  status: ('A' for Active; 'I' for Inactive)
REMARK    1  A    between atoms: C_1  and  C_2
REMARK    2  A    between atoms: C_2  and  C_3
REMARK    3  A    between atoms: C_3  and  N_4
REMARK    4  A    between atoms: N_4  and  C_5
REMARK                            x       y       z     vdW  Elec       q    Type
REMARK                         _______ _______ _______ _____ _____    ______ ____
ROOT
ATOM      1  C   UNL     1       4.479   5.547  16.890  0.00  0.00    +0.000 C 
ATOM      2  C   UNL     1       4.130   6.185  18.292  0.00  0.00    +0.000 C 
ATOM      3  C   UNL     1       3.133   5.310  19.045  0.00  0.00    +0.000 A 
ATOM      4  C   UNL     1       2.203   5.729  19.930  0.00  0.00    +0.000 A 
ATOM      5  C   UNL     1       1.278   4.786  20.565  0.00  0.00    +0.000 A 
ATOM      6  C   UNL     1       1.337   3.474  20.251  0.00  0.00    +0.000 A 
ATOM      7  N   UNL     1       2.282   3.033  19.330  0.00  0.00    +0.000 N 
ATOM      8  N   UNL     1       2.514   1.783  18.832  0.00  0.00    +0.000 NA
ATOM      9  C   UNL     1       3.497   1.951  17.929  0.00  0.00    +0.000 A 
ATOM     10  C   UNL     1       3.926   3.281  17.835  0.00  0.00    +0.000 A 
ATOM     11  C   UNL     1       3.149   3.924  18.749  0.00  0.00    +0.000 A 
ATOM     12  C   UNL     1       4.903   4.029  17.012  0.00  0.00    +0.000 C 
ENDROOT
BRANCH   1  13
ATOM     13  N   UNL     1       5.502   6.369  16.200  0.00  0.00    +0.000 NA
ATOM     14  H   UNL     1       5.366   6.288  15.191  0.00  0.00    +0.000 HD
BRANCH  13  15
ATOM     15  C   UNL     1       6.860   5.947  16.538  0.00  0.00    +0.000 C 
BRANCH  15  17
ATOM     16  C   UNL     1       7.821   6.171  18.836  0.00  0.00    +0.000 C 
ATOM     17  C   UNL     1       7.501   6.903  17.540  0.00  0.00    +0.000 C 
ENDBRANCH  15  17
ENDBRANCH  13  15
ENDBRANCH   1  13
TORSDOF 3
ENDMDL
MODEL 2
REMARK VINA RESULT:      -6.6      2.936      4.502
REMARK  Name = 
REMARK  4 active torsions:
REMARK  status: ('A' for Active; 'I' for Inactive)
REMARK    1  A    between atoms: C_1  and  C_2
REMARK    2  A    between atoms: C_2  and  C_3
REMARK    3  A    between atoms: C_3  and  N_4
REMARK    4  A    between atoms: N_4  and  C_5
REMARK                            x       y       z     vdW  Elec       q    Type
REMARK                         _______ _______ _______ _____ _____    ______ ____
ROOT
ATOM      1  C   UNL     1       6.227   3.806  15.290  0.00  0.00    +0.000 C 
ATOM      2  C   UNL     1       4.784   4.426  15.459  0.00  0.00    +0.000 C 
ATOM      3  C   UNL     1       4.491   4.707  16.929  0.00  0.00    +0.000 A 
ATOM      4  C   UNL     1       3.281   4.684  17.528  0.00  0.00    +0.000 A 
ATOM      5  C   UNL     1       3.138   4.944  18.964  0.00  0.00    +0.000 A 
ATOM      6  C   UNL     1       4.233   5.195  19.712  0.00  0.00    +0.000 A 
ATOM      7  N   UNL     1       5.486   5.209  19.109  0.00  0.00    +0.000 N 
ATOM      8  N   UNL     1       6.725   5.401  19.650  0.00  0.00    +0.000 NA
ATOM      9  C   UNL     1       7.576   5.242  18.621  0.00  0.00    +0.000 A 
ATOM     10  C   UNL     1       6.922   4.963  17.414  0.00  0.00    +0.000 A 
ATOM     11  C   UNL     1       5.607   4.973  17.763  0.00  0.00    +0.000 A 
ATOM     12  C   UNL     1       7.335   4.660  16.025  0.00  0.00    +0.000 C 
ENDROOT
BRANCH   1  13
ATOM     13  N   UNL     1       6.526   3.602  13.852  0.00  0.00    +0.000 NA
ATOM     14  H   UNL     1       7.319   4.190  13.593  0.00  0.00    +0.000 HD
BRANCH  13  15
ATOM     15  C   UNL     1       5.381   3.935  13.005  0.00  0.00    +0.000 C 
BRANCH  15  17
ATOM     16  C   UNL     1       3.950   3.200  11.091  0.00  0.00    +0.000 C 
ATOM     17  C   UNL     1       5.248   2.950  11.847  0.00  0.00    +0.000 C 
ENDBRANCH  15  17
ENDBRANCH  13  15
ENDBRANCH   1  13
TORSDOF 3
ENDMDL
MODEL 3
REMARK VINA RESULT:      -6.6      1.318      5.276
REMARK  Name = 
REMARK  4 active torsions:
REMARK  status: ('A' for Active; 'I' for Inactive)
REMARK    1  A    between atoms: C_1  and  C_2
REMARK    2  A    between atoms: C_2  and  C_3
REMARK    3  A    between atoms: C_3  and  N_4
REMARK    4  A    between atoms: N_4  and  C_5
REMARK                            x       y       z     vdW  Elec       q    Type
REMARK                         _______ _______ _______ _____ _____    ______ ____
ROOT
ATOM      1  C   UNL     1       3.949   3.001  18.438  0.00  0.00    +0.000 C 
ATOM      2  C   UNL     1       4.493   4.094  19.441  0.00  0.00    +0.000 C 
ATOM      3  C   UNL     1       5.598   4.917  18.787  0.00  0.00    +0.000 A 
ATOM      4  C   UNL     1       6.643   5.501  19.413  0.00  0.00    +0.000 A 
ATOM      5  C   UNL     1       7.660   6.243  18.662  0.00  0.00    +0.000 A 
ATOM      6  C   UNL     1       7.569   6.334  17.318  0.00  0.00    +0.000 A 
ATOM      7  N   UNL     1       6.504   5.725  16.662  0.00  0.00    +0.000 N 
ATOM      8  N   UNL     1       6.214   5.648  15.329  0.00  0.00    +0.000 NA
ATOM      9  C   UNL     1       5.108   4.886  15.263  0.00  0.00    +0.000 A 
ATOM     10  C   UNL     1       4.657   4.473  16.523  0.00  0.00    +0.000 A 
ATOM     11  C   UNL     1       5.553   5.041  17.376  0.00  0.00    +0.000 A 
ATOM     12  C   UNL     1       3.563   3.616  17.034  0.00  0.00    +0.000 C 
ENDROOT
BRANCH   1  13
ATOM     13  N   UNL     1       2.829   2.256  19.060  0.00  0.00    +0.000 NA
ATOM     14  H   UNL     1       2.833   1.297  18.708  0.00  0.00    +0.000 HD
BRANCH  13  15
ATOM     15  C   UNL     1       1.535   2.870  18.766  0.00  0.00    +0.000 C 
BRANCH  15  17
ATOM     16  C   UNL     1       1.487   2.708  21.260  0.00  0.00    +0.000 C 
ATOM     17  C   UNL     1       0.856   3.364  20.040  0.00  0.00    +0.000 C 
ENDBRANCH  15  17
ENDBRANCH  13  15
ENDBRANCH   1  13
TORSDOF 3
ENDMDL
MODEL 4
REMARK VINA RESULT:      -6.5      1.911      3.166
REMARK  Name = 
REMARK  4 active torsions:
REMARK  status: ('A' for Active; 'I' for Inactive)
REMARK    1  A    between atoms: C_1  and  C_2
REMARK    2  A    between atoms: C_2  and  C_3
REMARK    3  A    between atoms: C_3  and  N_4
REMARK    4  A    between atoms: N_4  and  C_5
REMARK                            x       y       z     vdW  Elec       q    Type
REMARK                         _______ _______ _______ _____ _____    ______ ____
ROOT
ATOM      1  C   UNL     1       4.926   3.900  17.252  0.00  0.00    +0.000 C 
ATOM      2  C   UNL     1       3.744   2.870  17.443  0.00  0.00    +0.000 C 
ATOM      3  C   UNL     1       2.803   3.334  18.551  0.00  0.00    +0.000 A 
ATOM      4  C   UNL     1       2.072   2.545  19.367  0.00  0.00    +0.000 A 
ATOM      5  C   UNL     1       1.226   3.118  20.419  0.00  0.00    +0.000 A 
ATOM      6  C   UNL     1       1.185   4.456  20.594  0.00  0.00    +0.000 A 
ATOM      7  N   UNL     1       1.945   5.277  19.767  0.00  0.00    +0.000 N 
ATOM      8  N   UNL     1       2.097   6.634  19.767  0.00  0.00    +0.000 NA
ATOM      9  C   UNL     1       2.997   6.878  18.799  0.00  0.00    +0.000 A 
ATOM     10  C   UNL     1       3.429   5.713  18.153  0.00  0.00    +0.000 A 
ATOM     11  C   UNL     1       2.726   4.731  18.780  0.00  0.00    +0.000 A 
ATOM     12  C   UNL     1       4.406   5.384  17.089  0.00  0.00    +0.000 C 
ENDROOT
BRANCH   1  13
ATOM     13  N   UNL     1       5.792   3.475  16.127  0.00  0.00    +0.000 NA
ATOM     14  H   UNL     1       6.224   2.580  16.361  0.00  0.00    +0.000 HD
BRANCH  13  15
ATOM     15  C   UNL     1       6.840   4.455  15.845  0.00  0.00    +0.000 C 
BRANCH  15  17
ATOM     16  C   UNL     1       6.047   3.833  13.556  0.00  0.00    +0.000 C 
ATOM     17  C   UNL     1       6.854   4.838  14.367  0.00  0.00    +0.000 C 
ENDBRANCH  15  17
ENDBRANCH  13  15
ENDBRANCH   1  13
TORSDOF 3
ENDMDL
MODEL 5
REMARK VINA RESULT:      -6.4      1.701      5.474
REMARK  Name = 
REMARK  4 active torsions:
REMARK  status: ('A' for Active; 'I' for Inactive)
REMARK    1  A    between atoms: C_1  and  C_2
REMARK    2  A    between atoms: C_2  and  C_3
REMARK    3  A    between atoms: C_3  and  N_4
REMARK    4  A    between atoms: N_4  and  C_5
REMARK                            x       y       z     vdW  Elec       q    Type
REMARK                         _______ _______ _______ _____ _____    ______ ____
ROOT
ATOM      1  C   UNL     1       3.017   4.846  18.257  0.00  0.00    +0.000 C 
ATOM      2  C   UNL     1       3.380   3.901  17.045  0.00  0.00    +0.000 C 
ATOM      3  C   UNL     1       4.796   4.180  16.554  0.00  0.00    +0.000 A 
ATOM      4  C   UNL     1       5.253   4.036  15.292  0.00  0.00    +0.000 A 
ATOM      5  C   UNL     1       6.637   4.370  14.941  0.00  0.00    +0.000 A 
ATOM      6  C   UNL     1       7.472   4.849  15.888  0.00  0.00    +0.000 A 
ATOM      7  N   UNL     1       7.008   5.014  17.189  0.00  0.00    +0.000 N 
ATOM      8  N   UNL     1       7.639   5.504  18.296  0.00  0.00    +0.000 NA
ATOM      9  C   UNL     1       6.698   5.499  19.257  0.00  0.00    +0.000 A 
ATOM     10  C   UNL     1       5.467   5.002  18.809  0.00  0.00    +0.000 A 
ATOM     11  C   UNL     1       5.714   4.690  17.507  0.00  0.00    +0.000 A 
ATOM     12  C   UNL     1       4.119   4.816  19.390  0.00  0.00    +0.000 C 
ENDROOT
BRANCH   1  13
ATOM     13  N   UNL     1       1.665   4.517  18.770  0.00  0.00    +0.000 NA
ATOM     14  H   UNL     1       1.423   5.174  19.513  0.00  0.00    +0.000 HD
BRANCH  13  15
ATOM     15  C   UNL     1       1.598   3.153  19.294  0.00  0.00    +0.000 C 
BRANCH  15  17
ATOM     16  C   UNL     1       2.118   2.646  21.687  0.00  0.00    +0.000 C 
ATOM     17  C   UNL     1       1.051   3.136  20.718  0.00  0.00    +0.000 C 
ENDBRANCH  15  17
ENDBRANCH  13  15
ENDBRANCH   1  13
TORSDOF 3
ENDMDL
MODEL 6
REMARK VINA RESULT:      -6.4      2.182      3.238
REMARK  Name = 
REMARK  4 active torsions:
REMARK  status: ('A' for Active; 'I' for Inactive)
REMARK    1  A    between atoms: C_1  and  C_2
REMARK    2  A    between atoms: C_2  and  C_3
REMARK    3  A    between atoms: C_3  and  N_4
REMARK    4  A    between atoms: N_4  and  C_5
REMARK                            x       y       z     vdW  Elec       q    Type
REMARK                         _______ _______ _______ _____ _____    ______ ____
ROOT
ATOM      1  C   UNL     1       6.245   5.231  16.150  0.00  0.00    +0.000 C 
ATOM      2  C   UNL     1       5.734   6.676  16.533  0.00  0.00    +0.000 C 
ATOM      3  C   UNL     1       4.548   6.588  17.488  0.00  0.00    +0.000 A 
ATOM      4  C   UNL     1       3.531   7.470  17.590  0.00  0.00    +0.000 A 
ATOM      5  C   UNL     1       2.428   7.253  18.532  0.00  0.00    +0.000 A 
ATOM      6  C   UNL     1       2.412   6.145  19.303  0.00  0.00    +0.000 A 
ATOM      7  N   UNL     1       3.449   5.223  19.196  0.00  0.00    +0.000 N 
ATOM      8  N   UNL     1       3.638   4.029  19.833  0.00  0.00    +0.000 NA
ATOM      9  C   UNL     1       4.767   3.532  19.297  0.00  0.00    +0.000 A 
ATOM     10  C   UNL     1       5.331   4.379  18.334  0.00  0.00    +0.000 A 
ATOM     11  C   UNL     1       4.480   5.441  18.318  0.00  0.00    +0.000 A 
ATOM     12  C   UNL     1       6.496   4.328  17.423  0.00  0.00    +0.000 C 
ENDROOT
BRANCH   1  13
ATOM     13  N   UNL     1       7.441   5.331  15.279  0.00  0.00    +0.000 NA
ATOM     14  H   UNL     1       7.788   6.291  15.302  0.00  0.00    +0.000 HD
BRANCH  13  15
ATOM     15  C   UNL     1       7.141   4.961  13.896  0.00  0.00    +0.000 C 
BRANCH  15  17
ATOM     16  C   UNL     1       5.899   3.361  12.430  0.00  0.00    +0.000 C 
ATOM     17  C   UNL     1       6.004   3.945  13.832  0.00  0.00    +0.000 C 
ENDBRANCH  15  17
ENDBRANCH  13  15
ENDBRANCH   1  13
TORSDOF 3
ENDMDL
MODEL 7
REMARK VINA RESULT:      -6.4      1.383      2.600
REMARK  Name = 
REMARK  4 active torsions:
REMARK  status: ('A' for Active; 'I' for Inactive)
REMARK    1  A    between atoms: C_1  and  C_2
REMARK    2  A    between atoms: C_2  and  C_3
REMARK    3  A    between atoms: C_3  and  N_4
REMARK    4  A    between atoms: N_4  and  C_5
REMARK                            x       y       z     vdW  Elec       q    Type
REMARK                         _______ _______ _______ _____ _____    ______ ____
ROOT
ATOM      1  C   UNL     1       4.696   4.852  17.215  0.00  0.00    +0.000 C 
ATOM      2  C   UNL     1       3.630   3.713  16.964  0.00  0.00    +0.000 C 
ATOM      3  C   UNL     1       2.664   3.615  18.140  0.00  0.00    +0.000 A 
ATOM      4  C   UNL     1       2.031   2.503  18.570  0.00  0.00    +0.000 A 
ATOM      5  C   UNL     1       1.147   2.535  19.739  0.00  0.00    +0.000 A 
ATOM      6  C   UNL     1       0.970   3.691  20.415  0.00  0.00    +0.000 A 
ATOM      7  N   UNL     1       1.628   4.840  19.988  0.00  0.00    +0.000 N 
ATOM      8  N   UNL     1       1.638   6.100  20.516  0.00  0.00    +0.000 NA
ATOM      9  C   UNL     1       2.493   6.789  19.740  0.00  0.00    +0.000 A 
ATOM     10  C   UNL     1       3.034   6.013  18.706  0.00  0.00    +0.000 A 
ATOM     11  C   UNL     1       2.446   4.799  18.888  0.00  0.00    +0.000 A 
ATOM     12  C   UNL     1       4.022   6.222  17.623  0.00  0.00    +0.000 C 
ENDROOT
BRANCH   1  13
ATOM     13  N   UNL     1       5.584   4.984  16.036  0.00  0.00    +0.000 NA
ATOM     14  H   UNL     1       5.691   4.068  15.597  0.00  0.00    +0.000 HD
BRANCH  13  15
ATOM     15  C   UNL     1       6.903   5.500  16.401  0.00  0.00    +0.000 C 
BRANCH  15  17
ATOM     16  C   UNL     1       7.757   5.760  18.737  0.00  0.00    +0.000 C 
ATOM     17  C   UNL     1       7.462   4.769  17.619  0.00  0.00    +0.000 C 
ENDBRANCH  15  17
ENDBRANCH  13  15
ENDBRANCH   1  13
TORSDOF 3
ENDMDL
MODEL 8
REMARK VINA RESULT:      -6.4      1.806      3.212
REMARK  Name = 
REMARK  4 active torsions:
REMARK  status: ('A' for Active; 'I' for Inactive)
REMARK    1  A    between atoms: C_1  and  C_2
REMARK    2  A    between atoms: C_2  and  C_3
REMARK    3  A    between atoms: C_3  and  N_4
REMARK    4  A    between atoms: N_4  and  C_5
REMARK                            x       y       z     vdW  Elec       q    Type
REMARK                         _______ _______ _______ _____ _____    ______ ____
ROOT
ATOM      1  C   UNL     1       5.122   4.942  17.336  0.00  0.00    +0.000 C 
ATOM      2  C   UNL     1       4.130   3.866  16.742  0.00  0.00    +0.000 C 
ATOM      3  C   UNL     1       3.008   3.569  17.732  0.00  0.00    +0.000 A 
ATOM      4  C   UNL     1       2.346   2.400  17.870  0.00  0.00    +0.000 A 
ATOM      5  C   UNL     1       1.303   2.233  18.887  0.00  0.00    +0.000 A 
ATOM      6  C   UNL     1       1.006   3.254  19.718  0.00  0.00    +0.000 A 
ATOM      7  N   UNL     1       1.692   4.458  19.594  0.00  0.00    +0.000 N 
ATOM      8  N   UNL     1       1.597   5.608  20.325  0.00  0.00    +0.000 NA
ATOM      9  C   UNL     1       2.539   6.419  19.810  0.00  0.00    +0.000 A 
ATOM     10  C   UNL     1       3.239   5.832  18.748  0.00  0.00    +0.000 A 
ATOM     11  C   UNL     1       2.659   4.607  18.632  0.00  0.00    +0.000 A 
ATOM     12  C   UNL     1       4.366   6.223  17.871  0.00  0.00    +0.000 C 
ENDROOT
BRANCH   1  13
ATOM     13  N   UNL     1       6.166   5.274  16.337  0.00  0.00    +0.000 NA
ATOM     14  H   UNL     1       5.846   6.062  15.772  0.00  0.00    +0.000 HD
BRANCH  13  15
ATOM     15  C   UNL     1       6.461   4.142  15.459  0.00  0.00    +0.000 C 
BRANCH  15  17
ATOM     16  C   UNL     1       6.098   3.640  13.036  0.00  0.00    +0.000 C 
ATOM     17  C   UNL     1       6.727   4.607  14.030  0.00  0.00    +0.000 C 
ENDBRANCH  15  17
ENDBRANCH  13  15
ENDBRANCH   1  13
TORSDOF 3
ENDMDL
MODEL 9
REMARK VINA RESULT:      -6.4      1.333      1.959
REMARK  Name = 
REMARK  4 active torsions:
REMARK  status: ('A' for Active; 'I' for Inactive)
REMARK    1  A    between atoms: C_1  and  C_2
REMARK    2  A    between atoms: C_2  and  C_3
REMARK    3  A    between atoms: C_3  and  N_4
REMARK    4  A    between atoms: N_4  and  C_5
REMARK                            x       y       z     vdW  Elec       q    Type
REMARK                         _______ _______ _______ _____ _____    ______ ____
ROOT
ATOM      1  C   UNL     1       4.639   5.255  16.902  0.00  0.00    +0.000 C 
ATOM      2  C   UNL     1       4.534   5.863  18.356  0.00  0.00    +0.000 C 
ATOM      3  C   UNL     1       3.318   5.300  19.084  0.00  0.00    +0.000 A 
ATOM      4  C   UNL     1       2.585   5.927  20.030  0.00  0.00    +0.000 A 
ATOM      5  C   UNL     1       1.414   5.284  20.633  0.00  0.00    +0.000 A 
ATOM      6  C   UNL     1       1.043   4.051  20.230  0.00  0.00    +0.000 A 
ATOM      7  N   UNL     1       1.782   3.401  19.247  0.00  0.00    +0.000 N 
ATOM      8  N   UNL     1       1.592   2.184  18.657  0.00  0.00    +0.000 NA
ATOM      9  C   UNL     1       2.564   2.096  17.733  0.00  0.00    +0.000 A 
ATOM     10  C   UNL     1       3.398   3.222  17.712  0.00  0.00    +0.000 A 
ATOM     11  C   UNL     1       2.882   4.009  18.696  0.00  0.00    +0.000 A 
ATOM     12  C   UNL     1       4.553   3.677  16.905  0.00  0.00    +0.000 C 
ENDROOT
BRANCH   1  13
ATOM     13  N   UNL     1       5.863   5.756  16.231  0.00  0.00    +0.000 NA
ATOM     14  H   UNL     1       5.592   6.389  15.477  0.00  0.00    +0.000 HD
BRANCH  13  15
ATOM     15  C   UNL     1       6.667   4.666  15.678  0.00  0.00    +0.000 C 
BRANCH  15  17
ATOM     16  C   UNL     1       6.092   3.753  13.422  0.00  0.00    +0.000 C 
ATOM     17  C   UNL     1       6.860   4.832  14.173  0.00  0.00    +0.000 C 
ENDBRANCH  15  17
ENDBRANCH  13  15
ENDBRANCH   1  13
TORSDOF 3
ENDMDL
