MODEL 1
REMARK VINA RESULT:      -8.5      0.000      0.000
REMARK  Name = 
REMARK  7 active torsions:
REMARK  status: ('A' for Active; 'I' for Inactive)
REMARK    1  A    between atoms: C_2  and  C_27
REMARK    2  A    between atoms: N_3  and  C_4
REMARK    3  A    between atoms: C_9  and  S_10
REMARK    4  A    between atoms: S_10  and  S_11
REMARK    5  A    between atoms: S_11  and  C_12
REMARK    6  A    between atoms: C_17  and  N_18
REMARK    7  A    between atoms: C_19  and  C_21
REMARK                            x       y       z     vdW  Elec       q    Type
REMARK                         _______ _______ _______ _____ _____    ______ ____
ROOT
ATOM      1  S   UNL     1       3.300   6.798  18.892  0.00  0.00    +0.000 S 
ENDROOT
BRANCH   1   7
ATOM      2  C   UNL     1       4.236   4.715  17.071  0.00  0.00    +0.000 A 
ATOM      3  C   UNL     1       5.022   4.444  15.938  0.00  0.00    +0.000 A 
ATOM      4  C   UNL     1       5.576   5.458  15.150  0.00  0.00    +0.000 A 
ATOM      5  C   UNL     1       5.344   6.783  15.469  0.00  0.00    +0.000 A 
ATOM      6  C   UNL     1       4.587   7.081  16.596  0.00  0.00    +0.000 A 
ATOM      7  C   UNL     1       4.040   6.072  17.427  0.00  0.00    +0.000 A 
BRANCH   2  10
ATOM      8  O   UNL     1       5.319   3.470  19.564  0.00  0.00    +0.000 OA
ATOM      9  C   UNL     1       4.248   3.158  19.065  0.00  0.00    +0.000 C 
ATOM     10  N   UNL     1       3.725   3.638  17.857  0.00  0.00    +0.000 N 
ATOM     11  H   UNL     1       2.941   3.142  17.446  0.00  0.00    +0.000 HD
BRANCH   9  12
ATOM     12  C   UNL     1       3.329   2.144  19.775  0.00  0.00    +0.000 C 
ATOM     13  C   UNL     1       2.969   2.592  21.188  0.00  0.00    +0.000 C 
ATOM     14  C   UNL     1       1.988   3.756  21.165  0.00  0.00    +0.000 C 
ATOM     15  C   UNL     1       0.668   3.329  20.544  0.00  0.00    +0.000 C 
ATOM     16  C   UNL     1       0.826   2.680  19.171  0.00  0.00    +0.000 C 
ATOM     17  C   UNL     1       2.060   1.786  18.974  0.00  0.00    +0.000 C 
ENDBRANCH   9  12
ENDBRANCH   2  10
ENDBRANCH   1   7
BRANCH   1  18
ATOM     18  S   UNL     1       2.219   8.444  18.418  0.00  0.00    +0.000 S 
BRANCH  18  19
ATOM     19  C   UNL     1       1.287   8.980  19.849  0.00  0.00    +0.000 A 
ATOM     20  C   UNL     1       1.226   7.979  20.839  0.00  0.00    +0.000 A 
ATOM     21  C   UNL     1       0.399   8.104  21.949  0.00  0.00    +0.000 A 
ATOM     22  C   UNL     1      -0.372   9.247  22.093  0.00  0.00    +0.000 A 
ATOM     23  C   UNL     1      -0.222  10.309  21.194  0.00  0.00    +0.000 A 
ATOM     24  C   UNL     1       0.647  10.211  20.096  0.00  0.00    +0.000 A 
BRANCH  24  25
ATOM     25  N   UNL     1       0.879  11.337  19.261  0.00  0.00    +0.000 N 
ATOM     26  C   UNL     1       1.510  12.519  19.644  0.00  0.00    +0.000 C 
ATOM     27  O   UNL     1       1.937  12.755  20.773  0.00  0.00    +0.000 OA
ATOM     28  H   UNL     1       0.838  11.144  18.266  0.00  0.00    +0.000 HD
BRANCH  26  29
ATOM     29  C   UNL     1       1.712  13.503  18.468  0.00  0.00    +0.000 C 
ATOM     30  C   UNL     1       1.156  14.920  18.743  0.00  0.00    +0.000 C 
ATOM     31  C   UNL     1       2.073  16.145  18.584  0.00  0.00    +0.000 C 
ATOM     32  C   UNL     1       3.559  15.909  18.355  0.00  0.00    +0.000 C 
ATOM     33  C   UNL     1       4.013  14.520  18.750  0.00  0.00    +0.000 C 
ATOM     34  C   UNL     1       3.176  13.489  18.011  0.00  0.00    +0.000 C 
ENDBRANCH  26  29
ENDBRANCH  24  25
ENDBRANCH  18  19
ENDBRANCH   1  18
TORSDOF 7
ENDMDL
MODEL 2
REMARK VINA RESULT:      -8.4      1.429      3.911
REMARK  Name = 
REMARK  7 active torsions:
REMARK  status: ('A' for Active; 'I' for Inactive)
REMARK    1  A    between atoms: C_2  and  C_27
REMARK    2  A    between atoms: N_3  and  C_4
REMARK    3  A    between atoms: C_9  and  S_10
REMARK    4  A    between atoms: S_10  and  S_11
REMARK    5  A    between atoms: S_11  and  C_12
REMARK    6  A    between atoms: C_17  and  N_18
REMARK    7  A    between atoms: C_19  and  C_21
REMARK                            x       y       z     vdW  Elec       q    Type
REMARK                         _______ _______ _______ _____ _____    ______ ____
ROOT
ATOM      1  S   UNL     1       2.288   6.952  20.742  0.00  0.00    +0.000 S 
ENDROOT
BRANCH   1   7
ATOM      2  C   UNL     1       2.559   5.030  18.559  0.00  0.00    +0.000 A 
ATOM      3  C   UNL     1       2.027   3.865  17.979  0.00  0.00    +0.000 A 
ATOM      4  C   UNL     1       1.037   3.100  18.603  0.00  0.00    +0.000 A 
ATOM      5  C   UNL     1       0.558   3.474  19.844  0.00  0.00    +0.000 A 
ATOM      6  C   UNL     1       1.050   4.633  20.434  0.00  0.00    +0.000 A 
ATOM      7  C   UNL     1       2.032   5.441  19.808  0.00  0.00    +0.000 A 
BRANCH   2  10
ATOM      8  O   UNL     1       5.430   5.526  19.223  0.00  0.00    +0.000 OA
ATOM      9  C   UNL     1       4.901   5.912  18.192  0.00  0.00    +0.000 C 
ATOM     10  N   UNL     1       3.545   5.789  17.860  0.00  0.00    +0.000 N 
ATOM     11  H   UNL     1       3.192   6.339  17.084  0.00  0.00    +0.000 HD
BRANCH   9  12
ATOM     12  C   UNL     1       5.740   6.611  17.104  0.00  0.00    +0.000 C 
ATOM     13  C   UNL     1       7.202   6.175  17.143  0.00  0.00    +0.000 C 
ATOM     14  C   UNL     1       7.368   4.752  16.628  0.00  0.00    +0.000 C 
ATOM     15  C   UNL     1       6.975   4.667  15.162  0.00  0.00    +0.000 C 
ATOM     16  C   UNL     1       5.585   5.227  14.873  0.00  0.00    +0.000 C 
ATOM     17  C   UNL     1       5.163   6.464  15.681  0.00  0.00    +0.000 C 
ENDBRANCH   9  12
ENDBRANCH   2  10
ENDBRANCH   1   7
BRANCH   1  18
ATOM     18  S   UNL     1       1.351   8.517  19.864  0.00  0.00    +0.000 S 
BRANCH  18  19
ATOM     19  C   UNL     1       0.528   9.501  21.112  0.00  0.00    +0.000 A 
ATOM     20  C   UNL     1       0.381   8.793  22.322  0.00  0.00    +0.000 A 
ATOM     21  C   UNL     1      -0.394   9.289  23.364  0.00  0.00    +0.000 A 
ATOM     22  C   UNL     1      -1.023  10.515  23.215  0.00  0.00    +0.000 A 
ATOM     23  C   UNL     1      -0.777  11.293  22.078  0.00  0.00    +0.000 A 
ATOM     24  C   UNL     1       0.043  10.821  21.041  0.00  0.00    +0.000 A 
BRANCH  24  25
ATOM     25  N   UNL     1       0.378  11.667  19.950  0.00  0.00    +0.000 N 
ATOM     26  C   UNL     1       1.262  12.744  19.995  0.00  0.00    +0.000 C 
ATOM     27  O   UNL     1       1.859  13.121  21.002  0.00  0.00    +0.000 OA
ATOM     28  H   UNL     1       0.182  11.278  19.034  0.00  0.00    +0.000 HD
BRANCH  26  29
ATOM     29  C   UNL     1       1.501  13.387  18.609  0.00  0.00    +0.000 C 
ATOM     30  C   UNL     1       1.243  14.912  18.581  0.00  0.00    +0.000 C 
ATOM     31  C   UNL     1       2.340  15.863  18.074  0.00  0.00    +0.000 C 
ATOM     32  C   UNL     1       3.724  15.289  17.803  0.00  0.00    +0.000 C 
ATOM     33  C   UNL     1       3.964  13.958  18.481  0.00  0.00    +0.000 C 
ATOM     34  C   UNL     1       2.876  12.980  18.067  0.00  0.00    +0.000 C 
ENDBRANCH  26  29
ENDBRANCH  24  25
ENDBRANCH  18  19
ENDBRANCH   1  18
TORSDOF 7
ENDMDL
MODEL 3
REMARK VINA RESULT:      -8.2      1.763      9.510
REMARK  Name = 
REMARK  7 active torsions:
REMARK  status: ('A' for Active; 'I' for Inactive)
REMARK    1  A    between atoms: C_2  and  C_27
REMARK    2  A    between atoms: N_3  and  C_4
REMARK    3  A    between atoms: C_9  and  S_10
REMARK    4  A    between atoms: S_10  and  S_11
REMARK    5  A    between atoms: S_11  and  C_12
REMARK    6  A    between atoms: C_17  and  N_18
REMARK    7  A    between atoms: C_19  and  C_21
REMARK                            x       y       z     vdW  Elec       q    Type
REMARK                         _______ _______ _______ _____ _____    ______ ____
ROOT
ATOM      1  S   UNL     1       3.553   7.440  17.454  0.00  0.00    +0.000 S 
ENDROOT
BRANCH   1   7
ATOM      2  C   UNL     1       1.719   8.681  19.359  0.00  0.00    +0.000 A 
ATOM      3  C   UNL     1       1.068   8.530  20.596  0.00  0.00    +0.000 A 
ATOM      4  C   UNL     1       1.084   7.328  21.311  0.00  0.00    +0.000 A 
ATOM      5  C   UNL     1       1.747   6.230  20.795  0.00  0.00    +0.000 A 
ATOM      6  C   UNL     1       2.417   6.355  19.584  0.00  0.00    +0.000 A 
ATOM      7  C   UNL     1       2.440   7.570  18.855  0.00  0.00    +0.000 A 
BRANCH   2  10
ATOM      8  O   UNL     1      -0.494  10.673  19.091  0.00  0.00    +0.000 OA
ATOM      9  C   UNL     1       0.639  10.864  18.675  0.00  0.00    +0.000 C 
ATOM     10  N   UNL     1       1.695   9.942  18.691  0.00  0.00    +0.000 N 
ATOM     11  H   UNL     1       2.511  10.142  18.122  0.00  0.00    +0.000 HD
BRANCH   9  12
ATOM     12  C   UNL     1       1.019  12.225  18.059  0.00  0.00    +0.000 C 
ATOM     13  C   UNL     1      -0.006  13.306  18.388  0.00  0.00    +0.000 C 
ATOM     14  C   UNL     1       0.083  13.725  19.849  0.00  0.00    +0.000 C 
ATOM     15  C   UNL     1       1.431  14.365  20.139  0.00  0.00    +0.000 C 
ATOM     16  C   UNL     1       2.616  13.503  19.712  0.00  0.00    +0.000 C 
ATOM     17  C   UNL     1       2.444  12.695  18.417  0.00  0.00    +0.000 C 
ENDBRANCH   9  12
ENDBRANCH   2  10
ENDBRANCH   1   7
BRANCH   1  18
ATOM     18  S   UNL     1       5.232   6.424  17.953  0.00  0.00    +0.000 S 
BRANCH  18  19
ATOM     19  C   UNL     1       5.643   5.269  16.649  0.00  0.00    +0.000 A 
ATOM     20  C   UNL     1       6.488   5.850  15.683  0.00  0.00    +0.000 A 
ATOM     21  C   UNL     1       6.780   5.202  14.488  0.00  0.00    +0.000 A 
ATOM     22  C   UNL     1       6.240   3.948  14.250  0.00  0.00    +0.000 A 
ATOM     23  C   UNL     1       5.513   3.298  15.254  0.00  0.00    +0.000 A 
ATOM     24  C   UNL     1       5.254   3.926  16.482  0.00  0.00    +0.000 A 
BRANCH  24  25
ATOM     25  N   UNL     1       4.618   3.212  17.533  0.00  0.00    +0.000 N 
ATOM     26  C   UNL     1       3.243   3.042  17.688  0.00  0.00    +0.000 C 
ATOM     27  O   UNL     1       2.388   3.511  16.939  0.00  0.00    +0.000 OA
ATOM     28  H   UNL     1       5.215   2.555  18.024  0.00  0.00    +0.000 HD
BRANCH  26  29
ATOM     29  C   UNL     1       2.879   2.113  18.870  0.00  0.00    +0.000 C 
ATOM     30  C   UNL     1       3.568   2.501  20.199  0.00  0.00    +0.000 C 
ATOM     31  C   UNL     1       2.719   2.738  21.459  0.00  0.00    +0.000 C 
ATOM     32  C   UNL     1       1.204   2.781  21.311  0.00  0.00    +0.000 C 
ATOM     33  C   UNL     1       0.749   3.023  19.888  0.00  0.00    +0.000 C 
ATOM     34  C   UNL     1       1.357   1.968  18.979  0.00  0.00    +0.000 C 
ENDBRANCH  26  29
ENDBRANCH  24  25
ENDBRANCH  18  19
ENDBRANCH   1  18
TORSDOF 7
ENDMDL
MODEL 4
REMARK VINA RESULT:      -8.1      1.756      9.434
REMARK  Name = 
REMARK  7 active torsions:
REMARK  status: ('A' for Active; 'I' for Inactive)
REMARK    1  A    between atoms: C_2  and  C_27
REMARK    2  A    between atoms: N_3  and  C_4
REMARK    3  A    between atoms: C_9  and  S_10
REMARK    4  A    between atoms: S_10  and  S_11
REMARK    5  A    between atoms: S_11  and  C_12
REMARK    6  A    between atoms: C_17  and  N_18
REMARK    7  A    between atoms: C_19  and  C_21
REMARK                            x       y       z     vdW  Elec       q    Type
REMARK                         _______ _______ _______ _____ _____    ______ ____
ROOT
ATOM      1  S   UNL     1       3.069   8.470  17.564  0.00  0.00    +0.000 S 
ENDROOT
BRANCH   1   7
ATOM      2  C   UNL     1       1.177   9.290  19.634  0.00  0.00    +0.000 A 
ATOM      3  C   UNL     1       0.612   8.953  20.876  0.00  0.00    +0.000 A 
ATOM      4  C   UNL     1       0.824   7.711  21.484  0.00  0.00    +0.000 A 
ATOM      5  C   UNL     1       1.602   6.759  20.853  0.00  0.00    +0.000 A 
ATOM      6  C   UNL     1       2.191   7.072  19.633  0.00  0.00    +0.000 A 
ATOM      7  C   UNL     1       2.016   8.333  19.011  0.00  0.00    +0.000 A 
BRANCH   2  10
ATOM      8  O   UNL     1       1.622  11.996  20.822  0.00  0.00    +0.000 OA
ATOM      9  C   UNL     1       1.262  11.818  19.668  0.00  0.00    +0.000 C 
ATOM     10  N   UNL     1       0.953  10.586  19.077  0.00  0.00    +0.000 N 
ATOM     11  H   UNL     1       0.459  10.592  18.191  0.00  0.00    +0.000 HD
BRANCH   9  12
ATOM     12  C   UNL     1       1.109  13.016  18.710  0.00  0.00    +0.000 C 
ATOM     13  C   UNL     1      -0.355  13.310  18.394  0.00  0.00    +0.000 C 
ATOM     14  C   UNL     1      -1.065  13.929  19.590  0.00  0.00    +0.000 C 
ATOM     15  C   UNL     1      -0.460  15.282  19.927  0.00  0.00    +0.000 C 
ATOM     16  C   UNL     1       1.054  15.240  20.113  0.00  0.00    +0.000 C 
ATOM     17  C   UNL     1       1.832  14.292  19.188  0.00  0.00    +0.000 C 
ENDBRANCH   9  12
ENDBRANCH   2  10
ENDBRANCH   1   7
BRANCH   1  18
ATOM     18  S   UNL     1       3.806   6.662  17.029  0.00  0.00    +0.000 S 
BRANCH  18  19
ATOM     19  C   UNL     1       5.388   6.399  17.824  0.00  0.00    +0.000 A 
ATOM     20  C   UNL     1       6.290   7.447  17.551  0.00  0.00    +0.000 A 
ATOM     21  C   UNL     1       7.631   7.362  17.907  0.00  0.00    +0.000 A 
ATOM     22  C   UNL     1       8.088   6.227  18.557  0.00  0.00    +0.000 A 
ATOM     23  C   UNL     1       7.181   5.239  18.957  0.00  0.00    +0.000 A 
ATOM     24  C   UNL     1       5.816   5.339  18.646  0.00  0.00    +0.000 A 
BRANCH  24  25
ATOM     25  N   UNL     1       4.891   4.391  19.159  0.00  0.00    +0.000 N 
ATOM     26  C   UNL     1       4.304   3.352  18.438  0.00  0.00    +0.000 C 
ATOM     27  O   UNL     1       4.496   3.129  17.244  0.00  0.00    +0.000 OA
ATOM     28  H   UNL     1       4.891   4.300  20.169  0.00  0.00    +0.000 HD
BRANCH  26  29
ATOM     29  C   UNL     1       3.434   2.424  19.317  0.00  0.00    +0.000 C 
ATOM     30  C   UNL     1       3.460   2.790  20.819  0.00  0.00    +0.000 C 
ATOM     31  C   UNL     1       2.139   3.038  21.568  0.00  0.00    +0.000 C 
ATOM     32  C   UNL     1       0.853   3.114  20.758  0.00  0.00    +0.000 C 
ATOM     33  C   UNL     1       1.088   3.373  19.285  0.00  0.00    +0.000 C 
ATOM     34  C   UNL     1       2.022   2.311  18.730  0.00  0.00    +0.000 C 
ENDBRANCH  26  29
ENDBRANCH  24  25
ENDBRANCH  18  19
ENDBRANCH   1  18
TORSDOF 7
ENDMDL
MODEL 5
REMARK VINA RESULT:      -8.0      1.367      1.459
REMARK  Name = 
REMARK  7 active torsions:
REMARK  status: ('A' for Active; 'I' for Inactive)
REMARK    1  A    between atoms: C_2  and  C_27
REMARK    2  A    between atoms: N_3  and  C_4
REMARK    3  A    between atoms: C_9  and  S_10
REMARK    4  A    between atoms: S_10  and  S_11
REMARK    5  A    between atoms: S_11  and  C_12
REMARK    6  A    between atoms: C_17  and  N_18
REMARK    7  A    between atoms: C_19  and  C_21
REMARK                            x       y       z     vdW  Elec       q    Type
REMARK                         _______ _______ _______ _____ _____    ______ ____
ROOT
ATOM      1  S   UNL     1       3.268   6.839  17.387  0.00  0.00    +0.000 S 
ENDROOT
BRANCH   1   7
ATOM      2  C   UNL     1       5.489   5.404  18.628  0.00  0.00    +0.000 A 
ATOM      3  C   UNL     1       6.862   5.443  18.925  0.00  0.00    +0.000 A 
ATOM      4  C   UNL     1       7.713   6.426  18.411  0.00  0.00    +0.000 A 
ATOM      5  C   UNL     1       7.210   7.399  17.567  0.00  0.00    +0.000 A 
ATOM      6  C   UNL     1       5.852   7.398  17.272  0.00  0.00    +0.000 A 
ATOM      7  C   UNL     1       4.964   6.429  17.803  0.00  0.00    +0.000 A 
BRANCH   2  10
ATOM      8  O   UNL     1       4.052   3.120  17.340  0.00  0.00    +0.000 OA
ATOM      9  C   UNL     1       4.083   3.301  18.548  0.00  0.00    +0.000 C 
ATOM     10  N   UNL     1       4.663   4.394  19.208  0.00  0.00    +0.000 N 
ATOM     11  H   UNL     1       4.431   4.538  20.185  0.00  0.00    +0.000 HD
BRANCH   9  12
ATOM     12  C   UNL     1       3.445   2.273  19.503  0.00  0.00    +0.000 C 
ATOM     13  C   UNL     1       3.296   2.824  20.918  0.00  0.00    +0.000 C 
ATOM     14  C   UNL     1       2.189   3.866  20.991  0.00  0.00    +0.000 C 
ATOM     15  C   UNL     1       0.842   3.236  20.674  0.00  0.00    +0.000 C 
ATOM     16  C   UNL     1       0.827   2.468  19.355  0.00  0.00    +0.000 C 
ATOM     17  C   UNL     1       2.107   1.698  18.996  0.00  0.00    +0.000 C 
ENDBRANCH   9  12
ENDBRANCH   2  10
ENDBRANCH   1   7
BRANCH   1  18
ATOM     18  S   UNL     1       2.852   8.766  17.847  0.00  0.00    +0.000 S 
BRANCH  18  19
ATOM     19  C   UNL     1       1.790   8.823  19.287  0.00  0.00    +0.000 A 
ATOM     20  C   UNL     1       1.921   7.665  20.079  0.00  0.00    +0.000 A 
ATOM     21  C   UNL     1       1.059   7.407  21.139  0.00  0.00    +0.000 A 
ATOM     22  C   UNL     1       0.057   8.319  21.431  0.00  0.00    +0.000 A 
ATOM     23  C   UNL     1      -0.003   9.536  20.745  0.00  0.00    +0.000 A 
ATOM     24  C   UNL     1       0.894   9.827  19.705  0.00  0.00    +0.000 A 
BRANCH  24  25
ATOM     25  N   UNL     1       0.899  11.111  19.098  0.00  0.00    +0.000 N 
ATOM     26  C   UNL     1       1.281  12.302  19.713  0.00  0.00    +0.000 C 
ATOM     27  O   UNL     1       1.648  12.403  20.882  0.00  0.00    +0.000 OA
ATOM     28  H   UNL     1       0.900  11.102  18.084  0.00  0.00    +0.000 HD
BRANCH  26  29
ATOM     29  C   UNL     1       1.285  13.507  18.744  0.00  0.00    +0.000 C 
ATOM     30  C   UNL     1       0.818  14.829  19.397  0.00  0.00    +0.000 C 
ATOM     31  C   UNL     1       1.716  16.076  19.324  0.00  0.00    +0.000 C 
ATOM     32  C   UNL     1       3.130  15.917  18.786  0.00  0.00    +0.000 C 
ATOM     33  C   UNL     1       3.619  14.485  18.802  0.00  0.00    +0.000 C 
ATOM     34  C   UNL     1       2.641  13.610  18.035  0.00  0.00    +0.000 C 
ENDBRANCH  26  29
ENDBRANCH  24  25
ENDBRANCH  18  19
ENDBRANCH   1  18
TORSDOF 7
ENDMDL
MODEL 6
REMARK VINA RESULT:      -8.0      2.454      5.058
REMARK  Name = 
REMARK  7 active torsions:
REMARK  status: ('A' for Active; 'I' for Inactive)
REMARK    1  A    between atoms: C_2  and  C_27
REMARK    2  A    between atoms: N_3  and  C_4
REMARK    3  A    between atoms: C_9  and  S_10
REMARK    4  A    between atoms: S_10  and  S_11
REMARK    5  A    between atoms: S_11  and  C_12
REMARK    6  A    between atoms: C_17  and  N_18
REMARK    7  A    between atoms: C_19  and  C_21
REMARK                            x       y       z     vdW  Elec       q    Type
REMARK                         _______ _______ _______ _____ _____    ______ ____
ROOT
ATOM      1  S   UNL     1       2.309   6.563  20.955  0.00  0.00    +0.000 S 
ENDROOT
BRANCH   1   7
ATOM      2  C   UNL     1       2.546   4.801  18.637  0.00  0.00    +0.000 A 
ATOM      3  C   UNL     1       2.005   3.681  17.982  0.00  0.00    +0.000 A 
ATOM      4  C   UNL     1       1.023   2.874  18.564  0.00  0.00    +0.000 A 
ATOM      5  C   UNL     1       0.561   3.159  19.835  0.00  0.00    +0.000 A 
ATOM      6  C   UNL     1       1.063   4.272  20.500  0.00  0.00    +0.000 A 
ATOM      7  C   UNL     1       2.037   5.123  19.920  0.00  0.00    +0.000 A 
BRANCH   2  10
ATOM      8  O   UNL     1       5.394   5.346  19.364  0.00  0.00    +0.000 OA
ATOM      9  C   UNL     1       4.871   5.754  18.338  0.00  0.00    +0.000 C 
ATOM     10  N   UNL     1       3.524   5.608  17.980  0.00  0.00    +0.000 N 
ATOM     11  H   UNL     1       3.169   6.176  17.218  0.00  0.00    +0.000 HD
BRANCH   9  12
ATOM     12  C   UNL     1       5.709   6.510  17.289  0.00  0.00    +0.000 C 
ATOM     13  C   UNL     1       7.174   6.084  17.314  0.00  0.00    +0.000 C 
ATOM     14  C   UNL     1       7.354   4.688  16.733  0.00  0.00    +0.000 C 
ATOM     15  C   UNL     1       6.967   4.669  15.263  0.00  0.00    +0.000 C 
ATOM     16  C   UNL     1       5.574   5.231  14.994  0.00  0.00    +0.000 C 
ATOM     17  C   UNL     1       5.139   6.426  15.858  0.00  0.00    +0.000 C 
ENDBRANCH   9  12
ENDBRANCH   2  10
ENDBRANCH   1   7
BRANCH   1  18
ATOM     18  S   UNL     1       0.708   7.802  20.910  0.00  0.00    +0.000 S 
BRANCH  18  19
ATOM     19  C   UNL     1       1.031   9.158  19.788  0.00  0.00    +0.000 A 
ATOM     20  C   UNL     1       1.746   8.736  18.649  0.00  0.00    +0.000 A 
ATOM     21  C   UNL     1       2.270   9.648  17.740  0.00  0.00    +0.000 A 
ATOM     22  C   UNL     1       2.071  11.003  17.951  0.00  0.00    +0.000 A 
ATOM     23  C   UNL     1       1.249  11.434  18.998  0.00  0.00    +0.000 A 
ATOM     24  C   UNL     1       0.676  10.517  19.894  0.00  0.00    +0.000 A 
BRANCH  24  25
ATOM     25  N   UNL     1      -0.249  10.957  20.878  0.00  0.00    +0.000 N 
ATOM     26  C   UNL     1      -0.120  12.101  21.664  0.00  0.00    +0.000 C 
ATOM     27  O   UNL     1       0.833  12.877  21.624  0.00  0.00    +0.000 OA
ATOM     28  H   UNL     1      -1.182  10.571  20.788  0.00  0.00    +0.000 HD
BRANCH  26  29
ATOM     29  C   UNL     1      -1.356  12.364  22.555  0.00  0.00    +0.000 C 
ATOM     30  C   UNL     1      -1.226  13.627  23.439  0.00  0.00    +0.000 C 
ATOM     31  C   UNL     1      -2.312  14.714  23.382  0.00  0.00    +0.000 C 
ATOM     32  C   UNL     1      -3.382  14.610  22.305  0.00  0.00    +0.000 C 
ATOM     33  C   UNL     1      -2.994  13.698  21.161  0.00  0.00    +0.000 C 
ATOM     34  C   UNL     1      -2.634  12.327  21.710  0.00  0.00    +0.000 C 
ENDBRANCH  26  29
ENDBRANCH  24  25
ENDBRANCH  18  19
ENDBRANCH   1  18
TORSDOF 7
ENDMDL
MODEL 7
REMARK VINA RESULT:      -7.8      4.031      6.609
REMARK  Name = 
REMARK  7 active torsions:
REMARK  status: ('A' for Active; 'I' for Inactive)
REMARK    1  A    between atoms: C_2  and  C_27
REMARK    2  A    between atoms: N_3  and  C_4
REMARK    3  A    between atoms: C_9  and  S_10
REMARK    4  A    between atoms: S_10  and  S_11
REMARK    5  A    between atoms: S_11  and  C_12
REMARK    6  A    between atoms: C_17  and  N_18
REMARK    7  A    between atoms: C_19  and  C_21
REMARK                            x       y       z     vdW  Elec       q    Type
REMARK                         _______ _______ _______ _____ _____    ______ ____
ROOT
ATOM      1  S   UNL     1       1.103  11.579  18.910  0.00  0.00    +0.000 S 
ENDROOT
BRANCH   1   7
ATOM      2  C   UNL     1       1.057   9.132  20.504  0.00  0.00    +0.000 A 
ATOM      3  C   UNL     1       0.533   8.517  21.654  0.00  0.00    +0.000 A 
ATOM      4  C   UNL     1      -0.193   9.223  22.618  0.00  0.00    +0.000 A 
ATOM      5  C   UNL     1      -0.404  10.581  22.463  0.00  0.00    +0.000 A 
ATOM      6  C   UNL     1       0.085  11.213  21.326  0.00  0.00    +0.000 A 
ATOM      7  C   UNL     1       0.798  10.513  20.321  0.00  0.00    +0.000 A 
BRANCH   2  10
ATOM      8  O   UNL     1       1.826   6.244  20.555  0.00  0.00    +0.000 OA
ATOM      9  C   UNL     1       2.019   6.975  19.596  0.00  0.00    +0.000 C 
ATOM     10  N   UNL     1       1.763   8.352  19.538  0.00  0.00    +0.000 N 
ATOM     11  H   UNL     1       2.167   8.881  18.773  0.00  0.00    +0.000 HD
BRANCH   9  12
ATOM     12  C   UNL     1       2.597   6.402  18.287  0.00  0.00    +0.000 C 
ATOM     13  C   UNL     1       4.122   6.362  18.306  0.00  0.00    +0.000 C 
ATOM     14  C   UNL     1       4.635   5.271  19.237  0.00  0.00    +0.000 C 
ATOM     15  C   UNL     1       4.215   3.900  18.732  0.00  0.00    +0.000 C 
ATOM     16  C   UNL     1       2.716   3.781  18.473  0.00  0.00    +0.000 C 
ATOM     17  C   UNL     1       2.019   5.025  17.901  0.00  0.00    +0.000 C 
ENDBRANCH   9  12
ENDBRANCH   2  10
ENDBRANCH   1   7
BRANCH   1  18
ATOM     18  S   UNL     1      -0.512  12.734  18.510  0.00  0.00    +0.000 S 
BRANCH  18  19
ATOM     19  C   UNL     1      -1.913  11.691  18.122  0.00  0.00    +0.000 A 
ATOM     20  C   UNL     1      -1.577  10.692  17.186  0.00  0.00    +0.000 A 
ATOM     21  C   UNL     1      -2.549   9.891  16.597  0.00  0.00    +0.000 A 
ATOM     22  C   UNL     1      -3.877  10.069  16.951  0.00  0.00    +0.000 A 
ATOM     23  C   UNL     1      -4.214  10.959  17.977  0.00  0.00    +0.000 A 
ATOM     24  C   UNL     1      -3.233  11.738  18.611  0.00  0.00    +0.000 A 
BRANCH  24  25
ATOM     25  N   UNL     1      -3.571  12.547  19.728  0.00  0.00    +0.000 N 
ATOM     26  C   UNL     1      -4.822  12.613  20.338  0.00  0.00    +0.000 C 
ATOM     27  O   UNL     1      -5.816  11.988  19.973  0.00  0.00    +0.000 OA
ATOM     28  H   UNL     1      -2.780  12.866  20.277  0.00  0.00    +0.000 HD
BRANCH  26  29
ATOM     29  C   UNL     1      -4.830  13.501  21.605  0.00  0.00    +0.000 C 
ATOM     30  C   UNL     1      -6.021  13.218  22.552  0.00  0.00    +0.000 C 
ATOM     31  C   UNL     1      -5.759  12.887  24.031  0.00  0.00    +0.000 C 
ATOM     32  C   UNL     1      -4.322  12.648  24.473  0.00  0.00    +0.000 C 
ATOM     33  C   UNL     1      -3.387  12.334  23.326  0.00  0.00    +0.000 C 
ATOM     34  C   UNL     1      -3.463  13.449  22.295  0.00  0.00    +0.000 C 
ENDBRANCH  26  29
ENDBRANCH  24  25
ENDBRANCH  18  19
ENDBRANCH   1  18
TORSDOF 7
ENDMDL
MODEL 8
REMARK VINA RESULT:      -7.8      1.621      9.466
REMARK  Name = 
REMARK  7 active torsions:
REMARK  status: ('A' for Active; 'I' for Inactive)
REMARK    1  A    between atoms: C_2  and  C_27
REMARK    2  A    between atoms: N_3  and  C_4
REMARK    3  A    between atoms: C_9  and  S_10
REMARK    4  A    between atoms: S_10  and  S_11
REMARK    5  A    between atoms: S_11  and  C_12
REMARK    6  A    between atoms: C_17  and  N_18
REMARK    7  A    between atoms: C_19  and  C_21
REMARK                            x       y       z     vdW  Elec       q    Type
REMARK                         _______ _______ _______ _____ _____    ______ ____
ROOT
ATOM      1  S   UNL     1       3.024   8.573  17.659  0.00  0.00    +0.000 S 
ENDROOT
BRANCH   1   7
ATOM      2  C   UNL     1       1.124   9.391  19.722  0.00  0.00    +0.000 A 
ATOM      3  C   UNL     1       0.542   9.044  20.953  0.00  0.00    +0.000 A 
ATOM      4  C   UNL     1       0.730   7.791  21.546  0.00  0.00    +0.000 A 
ATOM      5  C   UNL     1       1.501   6.837  20.908  0.00  0.00    +0.000 A 
ATOM      6  C   UNL     1       2.106   7.158  19.698  0.00  0.00    +0.000 A 
ATOM      7  C   UNL     1       1.955   8.431  19.093  0.00  0.00    +0.000 A 
BRANCH   2  10
ATOM      8  O   UNL     1       1.478  12.072  20.995  0.00  0.00    +0.000 OA
ATOM      9  C   UNL     1       1.188  11.918  19.819  0.00  0.00    +0.000 C 
ATOM     10  N   UNL     1       0.924  10.697  19.182  0.00  0.00    +0.000 N 
ATOM     11  H   UNL     1       0.483  10.721  18.269  0.00  0.00    +0.000 HD
BRANCH   9  12
ATOM     12  C   UNL     1       1.084  13.137  18.880  0.00  0.00    +0.000 C 
ATOM     13  C   UNL     1       0.514  14.359  19.594  0.00  0.00    +0.000 C 
ATOM     14  C   UNL     1       1.524  14.952  20.567  0.00  0.00    +0.000 C 
ATOM     15  C   UNL     1       2.742  15.470  19.820  0.00  0.00    +0.000 C 
ATOM     16  C   UNL     1       3.372  14.433  18.894  0.00  0.00    +0.000 C 
ATOM     17  C   UNL     1       2.405  13.488  18.165  0.00  0.00    +0.000 C 
ENDBRANCH   9  12
ENDBRANCH   2  10
ENDBRANCH   1   7
BRANCH   1  18
ATOM     18  S   UNL     1       3.680   6.754  17.059  0.00  0.00    +0.000 S 
BRANCH  18  19
ATOM     19  C   UNL     1       5.281   6.424  17.787  0.00  0.00    +0.000 A 
ATOM     20  C   UNL     1       6.195   7.466  17.534  0.00  0.00    +0.000 A 
ATOM     21  C   UNL     1       7.545   7.339  17.840  0.00  0.00    +0.000 A 
ATOM     22  C   UNL     1       7.999   6.166  18.420  0.00  0.00    +0.000 A 
ATOM     23  C   UNL     1       7.087   5.177  18.803  0.00  0.00    +0.000 A 
ATOM     24  C   UNL     1       5.714   5.317  18.543  0.00  0.00    +0.000 A 
BRANCH  24  25
ATOM     25  N   UNL     1       4.787   4.363  19.042  0.00  0.00    +0.000 N 
ATOM     26  C   UNL     1       4.245   3.301  18.321  0.00  0.00    +0.000 C 
ATOM     27  O   UNL     1       4.483   3.058  17.139  0.00  0.00    +0.000 OA
ATOM     28  H   UNL     1       4.752   4.292  20.053  0.00  0.00    +0.000 HD
BRANCH  26  29
ATOM     29  C   UNL     1       3.358   2.375  19.187  0.00  0.00    +0.000 C 
ATOM     30  C   UNL     1       3.481   2.643  20.705  0.00  0.00    +0.000 C 
ATOM     31  C   UNL     1       2.217   2.924  21.535  0.00  0.00    +0.000 C 
ATOM     32  C   UNL     1       0.901   3.132  20.799  0.00  0.00    +0.000 C 
ATOM     33  C   UNL     1       1.081   3.469  19.335  0.00  0.00    +0.000 C 
ATOM     34  C   UNL     1       1.916   2.387  18.668  0.00  0.00    +0.000 C 
ENDBRANCH  26  29
ENDBRANCH  24  25
ENDBRANCH  18  19
ENDBRANCH   1  18
TORSDOF 7
ENDMDL
MODEL 9
REMARK VINA RESULT:      -7.8      3.864      9.498
REMARK  Name = 
REMARK  7 active torsions:
REMARK  status: ('A' for Active; 'I' for Inactive)
REMARK    1  A    between atoms: C_2  and  C_27
REMARK    2  A    between atoms: N_3  and  C_4
REMARK    3  A    between atoms: C_9  and  S_10
REMARK    4  A    between atoms: S_10  and  S_11
REMARK    5  A    between atoms: S_11  and  C_12
REMARK    6  A    between atoms: C_17  and  N_18
REMARK    7  A    between atoms: C_19  and  C_21
REMARK                            x       y       z     vdW  Elec       q    Type
REMARK                         _______ _______ _______ _____ _____    ______ ____
ROOT
ATOM      1  S   UNL     1      -0.508  12.392  18.653  0.00  0.00    +0.000 S 
ENDROOT
BRANCH   1   7
ATOM      2  C   UNL     1      -3.395  11.958  18.749  0.00  0.00    +0.000 A 
ATOM      3  C   UNL     1      -4.451  11.138  18.315  0.00  0.00    +0.000 A 
ATOM      4  C   UNL     1      -4.278  10.137  17.355  0.00  0.00    +0.000 A 
ATOM      5  C   UNL     1      -3.034   9.937  16.786  0.00  0.00    +0.000 A 
ATOM      6  C   UNL     1      -1.966  10.719  17.211  0.00  0.00    +0.000 A 
ATOM      7  C   UNL     1      -2.110  11.720  18.204  0.00  0.00    +0.000 A 
BRANCH   2  10
ATOM      8  O   UNL     1      -5.354  11.976  21.007  0.00  0.00    +0.000 OA
ATOM      9  C   UNL     1      -4.513  12.846  20.838  0.00  0.00    +0.000 C 
ATOM     10  N   UNL     1      -3.626  12.943  19.758  0.00  0.00    +0.000 N 
ATOM     11  H   UNL     1      -3.135  13.820  19.621  0.00  0.00    +0.000 HD
BRANCH   9  12
ATOM     12  C   UNL     1      -4.352  13.980  21.870  0.00  0.00    +0.000 C 
ATOM     13  C   UNL     1      -4.375  13.454  23.303  0.00  0.00    +0.000 C 
ATOM     14  C   UNL     1      -3.092  12.706  23.638  0.00  0.00    +0.000 C 
ATOM     15  C   UNL     1      -1.899  13.646  23.587  0.00  0.00    +0.000 C 
ATOM     16  C   UNL     1      -1.791  14.419  22.275  0.00  0.00    +0.000 C 
ATOM     17  C   UNL     1      -3.113  14.867  21.633  0.00  0.00    +0.000 C 
ENDBRANCH   9  12
ENDBRANCH   2  10
ENDBRANCH   1   7
BRANCH   1  18
ATOM     18  S   UNL     1       0.862  10.917  18.875  0.00  0.00    +0.000 S 
BRANCH  18  19
ATOM     19  C   UNL     1       0.622  10.109  20.454  0.00  0.00    +0.000 A 
ATOM     20  C   UNL     1      -0.381  10.740  21.217  0.00  0.00    +0.000 A 
ATOM     21  C   UNL     1      -0.603  10.402  22.547  0.00  0.00    +0.000 A 
ATOM     22  C   UNL     1       0.170   9.411  23.131  0.00  0.00    +0.000 A 
ATOM     23  C   UNL     1       1.075   8.681  22.353  0.00  0.00    +0.000 A 
ATOM     24  C   UNL     1       1.272   8.982  20.996  0.00  0.00    +0.000 A 
BRANCH  24  25
ATOM     25  N   UNL     1       2.103   8.159  20.190  0.00  0.00    +0.000 N 
ATOM     26  C   UNL     1       2.090   6.765  20.164  0.00  0.00    +0.000 C 
ATOM     27  O   UNL     1       1.363   6.056  20.857  0.00  0.00    +0.000 OA
ATOM     28  H   UNL     1       2.516   8.625  19.390  0.00  0.00    +0.000 HD
BRANCH  26  29
ATOM     29  C   UNL     1       3.034   6.173  19.092  0.00  0.00    +0.000 C 
ATOM     30  C   UNL     1       3.928   5.026  19.619  0.00  0.00    +0.000 C 
ATOM     31  C   UNL     1       3.929   3.667  18.899  0.00  0.00    +0.000 C 
ATOM     32  C   UNL     1       2.896   3.427  17.807  0.00  0.00    +0.000 C 
ATOM     33  C   UNL     1       1.725   4.385  17.870  0.00  0.00    +0.000 C 
ATOM     34  C   UNL     1       2.242   5.814  17.830  0.00  0.00    +0.000 C 
ENDBRANCH  26  29
ENDBRANCH  24  25
ENDBRANCH  18  19
ENDBRANCH   1  18
TORSDOF 7
ENDMDL
