MODEL 1
REMARK VINA RESULT:      -8.5      0.000      0.000
REMARK  Name = 
REMARK  6 active torsions:
REMARK  status: ('A' for Active; 'I' for Inactive)
REMARK    1  A    between atoms: C_1  and  O_2
REMARK    2  A    between atoms: O_2  and  C_3
REMARK    3  A    between atoms: C_6  and  C_7
REMARK    4  A    between atoms: C_10  and  C_11
REMARK    5  A    between atoms: C_13  and  N_14
REMARK    6  A    between atoms: N_17  and  C_18
REMARK                            x       y       z     vdW  Elec       q    Type
REMARK                         _______ _______ _______ _____ _____    ______ ____
ROOT
ATOM      1  C   UNL     1       2.420   6.835  18.761  0.00  0.00    +0.000 A 
ATOM      2  C   UNL     1       1.886   5.715  19.267  0.00  0.00    +0.000 A 
ATOM      3  C   UNL     1       2.432   4.395  18.956  0.00  0.00    +0.000 A 
ATOM      4  C   UNL     1       1.923   3.204  19.505  0.00  0.00    +0.000 A 
ATOM      5  C   UNL     1       0.756   3.133  20.451  0.00  0.00    +0.000 C 
ATOM      6  N   UNL     1       2.469   1.985  19.248  0.00  0.00    +0.000 NA
ATOM      7  C   UNL     1       3.542   1.920  18.457  0.00  0.00    +0.000 A 
ATOM      8  C   UNL     1       4.105   3.042  17.874  0.00  0.00    +0.000 A 
ATOM      9  C   UNL     1       3.549   4.307  18.099  0.00  0.00    +0.000 A 
ATOM     10  N   UNL     1       4.094   5.508  17.508  0.00  0.00    +0.000 N 
ATOM     11  C   UNL     1       3.565   6.764  17.817  0.00  0.00    +0.000 A 
ATOM     12  O   UNL     1       3.990   7.828  17.355  0.00  0.00    +0.000 OA
ENDROOT
BRANCH   1  16
ATOM     13  C   UNL     1       0.847  10.538  19.875  0.00  0.00    +0.000 A 
ATOM     14  N   UNL     1       0.998   9.621  20.840  0.00  0.00    +0.000 NA
ATOM     15  C   UNL     1       1.528   8.441  20.453  0.00  0.00    +0.000 A 
ATOM     16  C   UNL     1       1.874   8.138  19.150  0.00  0.00    +0.000 A 
ATOM     17  C   UNL     1       1.662   9.159  18.246  0.00  0.00    +0.000 A 
ATOM     18  N   UNL     1       1.143  10.359  18.575  0.00  0.00    +0.000 NA
BRANCH  13  20
ATOM     19  C   UNL     1      -0.169  11.660  21.622  0.00  0.00    +0.000 C 
ATOM     20  O   UNL     1       0.307  11.737  20.284  0.00  0.00    +0.000 OA
ENDBRANCH  13  20
ENDBRANCH   1  16
BRANCH  10  21
ATOM     21  C   UNL     1       5.235   5.457  16.579  0.00  0.00    +0.000 C 
ATOM     22  C   UNL     1       6.563   5.009  17.201  0.00  0.00    +0.000 C 
ATOM     23  C   UNL     1       7.413   4.621  15.997  0.00  0.00    +0.000 C 
ATOM     24  C   UNL     1       6.439   4.166  14.908  0.00  0.00    +0.000 C 
ATOM     25  C   UNL     1       5.035   4.510  15.390  0.00  0.00    +0.000 C 
ENDBRANCH  10  21
BRANCH   7  26
ATOM     26  N   UNL     1       4.153   0.678  18.317  0.00  0.00    +0.000 N 
ATOM     27  H   UNL     1       3.516   0.064  17.816  0.00  0.00    +0.000 HD
ATOM     28  H   UNL     1       5.072   0.723  17.894  0.00  0.00    +0.000 HD
ENDBRANCH   7  26
TORSDOF 4
ENDMDL
MODEL 2
REMARK VINA RESULT:      -8.5      0.460      1.033
REMARK  Name = 
REMARK  6 active torsions:
REMARK  status: ('A' for Active; 'I' for Inactive)
REMARK    1  A    between atoms: C_1  and  O_2
REMARK    2  A    between atoms: O_2  and  C_3
REMARK    3  A    between atoms: C_6  and  C_7
REMARK    4  A    between atoms: C_10  and  C_11
REMARK    5  A    between atoms: C_13  and  N_14
REMARK    6  A    between atoms: N_17  and  C_18
REMARK                            x       y       z     vdW  Elec       q    Type
REMARK                         _______ _______ _______ _____ _____    ______ ____
ROOT
ATOM      1  C   UNL     1       2.422   6.827  18.785  0.00  0.00    +0.000 A 
ATOM      2  C   UNL     1       1.891   5.705  19.291  0.00  0.00    +0.000 A 
ATOM      3  C   UNL     1       2.437   4.387  18.971  0.00  0.00    +0.000 A 
ATOM      4  C   UNL     1       1.932   3.193  19.519  0.00  0.00    +0.000 A 
ATOM      5  C   UNL     1       0.771   3.118  20.472  0.00  0.00    +0.000 C 
ATOM      6  N   UNL     1       2.477   1.976  19.255  0.00  0.00    +0.000 NA
ATOM      7  C   UNL     1       3.544   1.914  18.457  0.00  0.00    +0.000 A 
ATOM      8  C   UNL     1       4.104   3.038  17.874  0.00  0.00    +0.000 A 
ATOM      9  C   UNL     1       3.548   4.302  18.107  0.00  0.00    +0.000 A 
ATOM     10  N   UNL     1       4.088   5.505  17.517  0.00  0.00    +0.000 N 
ATOM     11  C   UNL     1       3.561   6.761  17.834  0.00  0.00    +0.000 A 
ATOM     12  O   UNL     1       3.982   7.826  17.373  0.00  0.00    +0.000 OA
ENDROOT
BRANCH   1  16
ATOM     13  C   UNL     1       0.891  10.544  19.913  0.00  0.00    +0.000 A 
ATOM     14  N   UNL     1       1.202  10.376  18.621  0.00  0.00    +0.000 NA
ATOM     15  C   UNL     1       1.676   9.158  18.283  0.00  0.00    +0.000 A 
ATOM     16  C   UNL     1       1.878   8.129  19.183  0.00  0.00    +0.000 A 
ATOM     17  C   UNL     1       1.530   8.426  20.485  0.00  0.00    +0.000 A 
ATOM     18  N   UNL     1       1.047   9.621  20.880  0.00  0.00    +0.000 NA
BRANCH  13  20
ATOM     19  C   UNL     1       1.458  12.745  20.332  0.00  0.00    +0.000 C 
ATOM     20  O   UNL     1       0.408  11.790  20.243  0.00  0.00    +0.000 OA
ENDBRANCH  13  20
ENDBRANCH   1  16
BRANCH  10  21
ATOM     21  C   UNL     1       5.224   5.459  16.581  0.00  0.00    +0.000 C 
ATOM     22  C   UNL     1       6.558   5.020  17.195  0.00  0.00    +0.000 C 
ATOM     23  C   UNL     1       7.402   4.633  15.987  0.00  0.00    +0.000 C 
ATOM     24  C   UNL     1       6.425   4.170  14.906  0.00  0.00    +0.000 C 
ATOM     25  C   UNL     1       5.021   4.508  15.396  0.00  0.00    +0.000 C 
ENDBRANCH  10  21
BRANCH   7  26
ATOM     26  N   UNL     1       4.156   0.673  18.308  0.00  0.00    +0.000 N 
ATOM     27  H   UNL     1       4.432   0.569  17.336  0.00  0.00    +0.000 HD
ATOM     28  H   UNL     1       4.919   0.516  18.954  0.00  0.00    +0.000 HD
ENDBRANCH   7  26
TORSDOF 4
ENDMDL
MODEL 3
REMARK VINA RESULT:      -8.1      1.061      1.443
REMARK  Name = 
REMARK  6 active torsions:
REMARK  status: ('A' for Active; 'I' for Inactive)
REMARK    1  A    between atoms: C_1  and  O_2
REMARK    2  A    between atoms: O_2  and  C_3
REMARK    3  A    between atoms: C_6  and  C_7
REMARK    4  A    between atoms: C_10  and  C_11
REMARK    5  A    between atoms: C_13  and  N_14
REMARK    6  A    between atoms: N_17  and  C_18
REMARK                            x       y       z     vdW  Elec       q    Type
REMARK                         _______ _______ _______ _____ _____    ______ ____
ROOT
ATOM      1  C   UNL     1       2.491   6.849  19.171  0.00  0.00    +0.000 A 
ATOM      2  C   UNL     1       2.153   5.802  19.935  0.00  0.00    +0.000 A 
ATOM      3  C   UNL     1       2.892   4.541  19.879  0.00  0.00    +0.000 A 
ATOM      4  C   UNL     1       2.592   3.438  20.700  0.00  0.00    +0.000 A 
ATOM      5  C   UNL     1       1.476   3.405  21.707  0.00  0.00    +0.000 C 
ATOM      6  N   UNL     1       3.315   2.287  20.676  0.00  0.00    +0.000 NA
ATOM      7  C   UNL     1       4.363   2.208  19.853  0.00  0.00    +0.000 A 
ATOM      8  C   UNL     1       4.727   3.245  19.012  0.00  0.00    +0.000 A 
ATOM      9  C   UNL     1       3.986   4.433  18.995  0.00  0.00    +0.000 A 
ATOM     10  N   UNL     1       4.319   5.541  18.131  0.00  0.00    +0.000 N 
ATOM     11  C   UNL     1       3.607   6.743  18.197  0.00  0.00    +0.000 A 
ATOM     12  O   UNL     1       3.847   7.729  17.493  0.00  0.00    +0.000 OA
ENDROOT
BRANCH   1  16
ATOM     13  C   UNL     1       0.421  10.455  19.551  0.00  0.00    +0.000 A 
ATOM     14  N   UNL     1       0.826  10.107  18.322  0.00  0.00    +0.000 NA
ATOM     15  C   UNL     1       1.474   8.927  18.228  0.00  0.00    +0.000 A 
ATOM     16  C   UNL     1       1.758   8.111  19.306  0.00  0.00    +0.000 A 
ATOM     17  C   UNL     1       1.300   8.582  20.520  0.00  0.00    +0.000 A 
ATOM     18  N   UNL     1       0.641   9.748  20.674  0.00  0.00    +0.000 NA
BRANCH  13  20
ATOM     19  C   UNL     1      -1.163  11.816  18.562  0.00  0.00    +0.000 C 
ATOM     20  O   UNL     1      -0.240  11.660  19.632  0.00  0.00    +0.000 OA
ENDBRANCH  13  20
ENDBRANCH   1  16
BRANCH  10  21
ATOM     21  C   UNL     1       5.428   5.456  17.166  0.00  0.00    +0.000 C 
ATOM     22  C   UNL     1       6.751   4.936  17.739  0.00  0.00    +0.000 C 
ATOM     23  C   UNL     1       7.546   4.533  16.503  0.00  0.00    +0.000 C 
ATOM     24  C   UNL     1       6.521   4.145  15.436  0.00  0.00    +0.000 C 
ATOM     25  C   UNL     1       5.149   4.544  15.967  0.00  0.00    +0.000 C 
ENDBRANCH  10  21
BRANCH   7  26
ATOM     26  N   UNL     1       5.158   1.070  19.944  0.00  0.00    +0.000 N 
ATOM     27  H   UNL     1       6.132   1.360  19.916  0.00  0.00    +0.000 HD
ATOM     28  H   UNL     1       4.942   0.486  20.741  0.00  0.00    +0.000 HD
ENDBRANCH   7  26
TORSDOF 4
ENDMDL
MODEL 4
REMARK VINA RESULT:      -8.1      2.719      7.054
REMARK  Name = 
REMARK  6 active torsions:
REMARK  status: ('A' for Active; 'I' for Inactive)
REMARK    1  A    between atoms: C_1  and  O_2
REMARK    2  A    between atoms: O_2  and  C_3
REMARK    3  A    between atoms: C_6  and  C_7
REMARK    4  A    between atoms: C_10  and  C_11
REMARK    5  A    between atoms: C_13  and  N_14
REMARK    6  A    between atoms: N_17  and  C_18
REMARK                            x       y       z     vdW  Elec       q    Type
REMARK                         _______ _______ _______ _____ _____    ______ ____
ROOT
ATOM      1  C   UNL     1       4.035   6.336  17.832  0.00  0.00    +0.000 A 
ATOM      2  C   UNL     1       3.442   7.537  17.801  0.00  0.00    +0.000 A 
ATOM      3  C   UNL     1       2.430   7.919  18.785  0.00  0.00    +0.000 A 
ATOM      4  C   UNL     1       1.820   9.188  18.808  0.00  0.00    +0.000 A 
ATOM      5  C   UNL     1       2.110  10.289  17.825  0.00  0.00    +0.000 C 
ATOM      6  N   UNL     1       0.917   9.551  19.757  0.00  0.00    +0.000 NA
ATOM      7  C   UNL     1       0.609   8.674  20.714  0.00  0.00    +0.000 A 
ATOM      8  C   UNL     1       1.160   7.405  20.766  0.00  0.00    +0.000 A 
ATOM      9  C   UNL     1       2.074   6.994  19.788  0.00  0.00    +0.000 A 
ATOM     10  N   UNL     1       2.671   5.679  19.792  0.00  0.00    +0.000 N 
ATOM     11  C   UNL     1       3.641   5.327  18.848  0.00  0.00    +0.000 A 
ATOM     12  O   UNL     1       4.196   4.225  18.803  0.00  0.00    +0.000 OA
ENDROOT
BRANCH   1  16
ATOM     13  C   UNL     1       7.031   5.463  15.060  0.00  0.00    +0.000 A 
ATOM     14  N   UNL     1       7.357   6.265  16.082  0.00  0.00    +0.000 NA
ATOM     15  C   UNL     1       6.374   6.513  16.973  0.00  0.00    +0.000 A 
ATOM     16  C   UNL     1       5.087   6.022  16.861  0.00  0.00    +0.000 A 
ATOM     17  C   UNL     1       4.871   5.217  15.761  0.00  0.00    +0.000 A 
ATOM     18  N   UNL     1       5.815   4.930  14.843  0.00  0.00    +0.000 NA
BRANCH  13  20
ATOM     19  C   UNL     1       7.543   5.108  12.834  0.00  0.00    +0.000 C 
ATOM     20  O   UNL     1       8.044   5.217  14.160  0.00  0.00    +0.000 OA
ENDBRANCH  13  20
ENDBRANCH   1  16
BRANCH  10  21
ATOM     21  C   UNL     1       2.299   4.669  20.798  0.00  0.00    +0.000 C 
ATOM     22  C   UNL     1       1.027   3.874  20.485  0.00  0.00    +0.000 C 
ATOM     23  C   UNL     1       1.127   2.658  21.397  0.00  0.00    +0.000 C 
ATOM     24  C   UNL     1       2.619   2.404  21.618  0.00  0.00    +0.000 C 
ATOM     25  C   UNL     1       3.368   3.597  21.035  0.00  0.00    +0.000 C 
ENDBRANCH  10  21
BRANCH   7  26
ATOM     26  N   UNL     1      -0.219   9.119  21.740  0.00  0.00    +0.000 N 
ATOM     27  H   UNL     1      -0.075   8.518  22.548  0.00  0.00    +0.000 HD
ATOM     28  H   UNL     1      -0.109  10.101  21.955  0.00  0.00    +0.000 HD
ENDBRANCH   7  26
TORSDOF 4
ENDMDL
MODEL 5
REMARK VINA RESULT:      -7.6      0.983      1.259
REMARK  Name = 
REMARK  6 active torsions:
REMARK  status: ('A' for Active; 'I' for Inactive)
REMARK    1  A    between atoms: C_1  and  O_2
REMARK    2  A    between atoms: O_2  and  C_3
REMARK    3  A    between atoms: C_6  and  C_7
REMARK    4  A    between atoms: C_10  and  C_11
REMARK    5  A    between atoms: C_13  and  N_14
REMARK    6  A    between atoms: N_17  and  C_18
REMARK                            x       y       z     vdW  Elec       q    Type
REMARK                         _______ _______ _______ _____ _____    ______ ____
ROOT
ATOM      1  C   UNL     1       2.700   6.593  18.341  0.00  0.00    +0.000 A 
ATOM      2  C   UNL     1       2.055   5.579  18.935  0.00  0.00    +0.000 A 
ATOM      3  C   UNL     1       2.529   4.200  18.824  0.00  0.00    +0.000 A 
ATOM      4  C   UNL     1       1.902   3.119  19.471  0.00  0.00    +0.000 A 
ATOM      5  C   UNL     1       0.670   3.236  20.326  0.00  0.00    +0.000 C 
ATOM      6  N   UNL     1       2.378   1.847  19.403  0.00  0.00    +0.000 NA
ATOM      7  C   UNL     1       3.495   1.619  18.709  0.00  0.00    +0.000 A 
ATOM      8  C   UNL     1       4.173   2.625  18.042  0.00  0.00    +0.000 A 
ATOM      9  C   UNL     1       3.693   3.939  18.072  0.00  0.00    +0.000 A 
ATOM     10  N   UNL     1       4.359   5.022  17.386  0.00  0.00    +0.000 N 
ATOM     11  C   UNL     1       3.899   6.338  17.503  0.00  0.00    +0.000 A 
ATOM     12  O   UNL     1       4.427   7.308  16.951  0.00  0.00    +0.000 OA
ENDROOT
BRANCH   1  16
ATOM     13  C   UNL     1       1.315  10.494  18.882  0.00  0.00    +0.000 A 
ATOM     14  N   UNL     1       1.178   9.647  19.911  0.00  0.00    +0.000 NA
ATOM     15  C   UNL     1       1.653   8.400  19.713  0.00  0.00    +0.000 A 
ATOM     16  C   UNL     1       2.220   7.966  18.531  0.00  0.00    +0.000 A 
ATOM     17  C   UNL     1       2.296   8.926  17.542  0.00  0.00    +0.000 A 
ATOM     18  N   UNL     1       1.845  10.188  17.684  0.00  0.00    +0.000 NA
BRANCH  13  20
ATOM     19  C   UNL     1       1.882  12.712  19.207  0.00  0.00    +0.000 C 
ATOM     20  O   UNL     1       0.827  11.764  19.098  0.00  0.00    +0.000 OA
ENDBRANCH  13  20
ENDBRANCH   1  16
BRANCH  10  21
ATOM     21  C   UNL     1       5.555   4.788  16.559  0.00  0.00    +0.000 C 
ATOM     22  C   UNL     1       5.307   4.769  15.047  0.00  0.00    +0.000 C 
ATOM     23  C   UNL     1       6.697   4.963  14.452  0.00  0.00    +0.000 C 
ATOM     24  C   UNL     1       7.500   5.764  15.477  0.00  0.00    +0.000 C 
ATOM     25  C   UNL     1       6.663   5.830  16.750  0.00  0.00    +0.000 C 
ENDBRANCH  10  21
BRANCH   7  26
ATOM     26  N   UNL     1       4.027   0.335  18.764  0.00  0.00    +0.000 N 
ATOM     27  H   UNL     1       4.637   0.278  19.575  0.00  0.00    +0.000 HD
ATOM     28  H   UNL     1       3.327  -0.396  18.745  0.00  0.00    +0.000 HD
ENDBRANCH   7  26
TORSDOF 4
ENDMDL
MODEL 6
REMARK VINA RESULT:      -7.6      1.657      1.932
REMARK  Name = 
REMARK  6 active torsions:
REMARK  status: ('A' for Active; 'I' for Inactive)
REMARK    1  A    between atoms: C_1  and  O_2
REMARK    2  A    between atoms: O_2  and  C_3
REMARK    3  A    between atoms: C_6  and  C_7
REMARK    4  A    between atoms: C_10  and  C_11
REMARK    5  A    between atoms: C_13  and  N_14
REMARK    6  A    between atoms: N_17  and  C_18
REMARK                            x       y       z     vdW  Elec       q    Type
REMARK                         _______ _______ _______ _____ _____    ______ ____
ROOT
ATOM      1  C   UNL     1       1.829   6.658  20.393  0.00  0.00    +0.000 A 
ATOM      2  C   UNL     1       1.636   5.409  20.836  0.00  0.00    +0.000 A 
ATOM      3  C   UNL     1       2.253   4.257  20.179  0.00  0.00    +0.000 A 
ATOM      4  C   UNL     1       2.107   2.937  20.645  0.00  0.00    +0.000 A 
ATOM      5  C   UNL     1       1.293   2.544  21.846  0.00  0.00    +0.000 C 
ATOM      6  N   UNL     1       2.725   1.879  20.056  0.00  0.00    +0.000 NA
ATOM      7  C   UNL     1       3.514   2.104  19.005  0.00  0.00    +0.000 A 
ATOM      8  C   UNL     1       3.712   3.370  18.481  0.00  0.00    +0.000 A 
ATOM      9  C   UNL     1       3.069   4.476  19.050  0.00  0.00    +0.000 A 
ATOM     10  N   UNL     1       3.235   5.816  18.536  0.00  0.00    +0.000 N 
ATOM     11  C   UNL     1       2.643   6.909  19.176  0.00  0.00    +0.000 A 
ATOM     12  O   UNL     1       2.754   8.079  18.795  0.00  0.00    +0.000 OA
ENDROOT
BRANCH   1  16
ATOM     13  C   UNL     1       0.144   9.877  22.449  0.00  0.00    +0.000 A 
ATOM     14  N   UNL     1      -0.666   9.169  21.650  0.00  0.00    +0.000 NA
ATOM     15  C   UNL     1      -0.097   8.122  21.015  0.00  0.00    +0.000 A 
ATOM     16  C   UNL     1       1.239   7.785  21.121  0.00  0.00    +0.000 A 
ATOM     17  C   UNL     1       1.971   8.595  21.965  0.00  0.00    +0.000 A 
ATOM     18  N   UNL     1       1.457   9.649  22.630  0.00  0.00    +0.000 NA
BRANCH  13  20
ATOM     19  C   UNL     1      -0.772  11.982  22.179  0.00  0.00    +0.000 C 
ATOM     20  O   UNL     1      -0.450  10.941  23.092  0.00  0.00    +0.000 OA
ENDBRANCH  13  20
ENDBRANCH   1  16
BRANCH  10  21
ATOM     21  C   UNL     1       4.047   6.084  17.337  0.00  0.00    +0.000 C 
ATOM     22  C   UNL     1       5.485   6.539  17.613  0.00  0.00    +0.000 C 
ATOM     23  C   UNL     1       6.196   6.310  16.285  0.00  0.00    +0.000 C 
ATOM     24  C   UNL     1       5.465   5.157  15.595  0.00  0.00    +0.000 C 
ATOM     25  C   UNL     1       4.202   4.880  16.403  0.00  0.00    +0.000 C 
ENDBRANCH  10  21
BRANCH   7  26
ATOM     26  N   UNL     1       4.231   1.022  18.505  0.00  0.00    +0.000 N 
ATOM     27  H   UNL     1       4.689   0.556  19.284  0.00  0.00    +0.000 HD
ATOM     28  H   UNL     1       3.676   0.392  17.940  0.00  0.00    +0.000 HD
ENDBRANCH   7  26
TORSDOF 4
ENDMDL
MODEL 7
REMARK VINA RESULT:      -7.5      1.266      1.534
REMARK  Name = 
REMARK  6 active torsions:
REMARK  status: ('A' for Active; 'I' for Inactive)
REMARK    1  A    between atoms: C_1  and  O_2
REMARK    2  A    between atoms: O_2  and  C_3
REMARK    3  A    between atoms: C_6  and  C_7
REMARK    4  A    between atoms: C_10  and  C_11
REMARK    5  A    between atoms: C_13  and  N_14
REMARK    6  A    between atoms: N_17  and  C_18
REMARK                            x       y       z     vdW  Elec       q    Type
REMARK                         _______ _______ _______ _____ _____    ______ ____
ROOT
ATOM      1  C   UNL     1       2.686   6.634  19.030  0.00  0.00    +0.000 A 
ATOM      2  C   UNL     1       2.307   5.647  19.853  0.00  0.00    +0.000 A 
ATOM      3  C   UNL     1       3.031   4.377  19.913  0.00  0.00    +0.000 A 
ATOM      4  C   UNL     1       2.687   3.338  20.797  0.00  0.00    +0.000 A 
ATOM      5  C   UNL     1       1.536   3.388  21.763  0.00  0.00    +0.000 C 
ATOM      6  N   UNL     1       3.397   2.181  20.881  0.00  0.00    +0.000 NA
ATOM      7  C   UNL     1       4.472   2.033  20.105  0.00  0.00    +0.000 A 
ATOM      8  C   UNL     1       4.879   3.005  19.206  0.00  0.00    +0.000 A 
ATOM      9  C   UNL     1       4.154   4.196  19.079  0.00  0.00    +0.000 A 
ATOM     10  N   UNL     1       4.532   5.237  18.152  0.00  0.00    +0.000 N 
ATOM     11  C   UNL     1       3.835   6.447  18.107  0.00  0.00    +0.000 A 
ATOM     12  O   UNL     1       4.112   7.379  17.346  0.00  0.00    +0.000 OA
ENDROOT
BRANCH   1  16
ATOM     13  C   UNL     1       0.614  10.258  19.093  0.00  0.00    +0.000 A 
ATOM     14  N   UNL     1       0.848   9.665  20.271  0.00  0.00    +0.000 NA
ATOM     15  C   UNL     1       1.538   8.506  20.221  0.00  0.00    +0.000 A 
ATOM     16  C   UNL     1       1.965   7.910  19.049  0.00  0.00    +0.000 A 
ATOM     17  C   UNL     1       1.655   8.610  17.901  0.00  0.00    +0.000 A 
ATOM     18  N   UNL     1       0.976   9.774  17.890  0.00  0.00    +0.000 NA
BRANCH  13  20
ATOM     19  C   UNL     1      -1.237  11.407  18.322  0.00  0.00    +0.000 C 
ATOM     20  O   UNL     1      -0.088  11.441  19.159  0.00  0.00    +0.000 OA
ENDBRANCH  13  20
ENDBRANCH   1  16
BRANCH  10  21
ATOM     21  C   UNL     1       5.675   5.073  17.237  0.00  0.00    +0.000 C 
ATOM     22  C   UNL     1       5.305   4.865  15.764  0.00  0.00    +0.000 C 
ATOM     23  C   UNL     1       6.600   5.172  15.021  0.00  0.00    +0.000 C 
ATOM     24  C   UNL     1       7.370   6.171  15.885  0.00  0.00    +0.000 C 
ATOM     25  C   UNL     1       6.642   6.261  17.222  0.00  0.00    +0.000 C 
ENDBRANCH  10  21
BRANCH   7  26
ATOM     26  N   UNL     1       5.248   0.896  20.304  0.00  0.00    +0.000 N 
ATOM     27  H   UNL     1       5.309   0.724  21.304  0.00  0.00    +0.000 HD
ATOM     28  H   UNL     1       4.929   0.090  19.783  0.00  0.00    +0.000 HD
ENDBRANCH   7  26
TORSDOF 4
ENDMDL
MODEL 8
REMARK VINA RESULT:      -7.4      2.761      7.159
REMARK  Name = 
REMARK  6 active torsions:
REMARK  status: ('A' for Active; 'I' for Inactive)
REMARK    1  A    between atoms: C_1  and  O_2
REMARK    2  A    between atoms: O_2  and  C_3
REMARK    3  A    between atoms: C_6  and  C_7
REMARK    4  A    between atoms: C_10  and  C_11
REMARK    5  A    between atoms: C_13  and  N_14
REMARK    6  A    between atoms: N_17  and  C_18
REMARK                            x       y       z     vdW  Elec       q    Type
REMARK                         _______ _______ _______ _____ _____    ______ ____
ROOT
ATOM      1  C   UNL     1       4.308   5.661  17.132  0.00  0.00    +0.000 A 
ATOM      2  C   UNL     1       3.749   6.871  17.270  0.00  0.00    +0.000 A 
ATOM      3  C   UNL     1       2.839   7.175  18.374  0.00  0.00    +0.000 A 
ATOM      4  C   UNL     1       2.270   8.446  18.573  0.00  0.00    +0.000 A 
ATOM      5  C   UNL     1       2.502   9.632  17.678  0.00  0.00    +0.000 C 
ATOM      6  N   UNL     1       1.465   8.732  19.631  0.00  0.00    +0.000 NA
ATOM      7  C   UNL     1       1.219   7.773  20.524  0.00  0.00    +0.000 A 
ATOM      8  C   UNL     1       1.737   6.495  20.404  0.00  0.00    +0.000 A 
ATOM      9  C   UNL     1       2.548   6.163  19.313  0.00  0.00    +0.000 A 
ATOM     10  N   UNL     1       3.106   4.842  19.136  0.00  0.00    +0.000 N 
ATOM     11  C   UNL     1       3.978   4.566  18.079  0.00  0.00    +0.000 A 
ATOM     12  O   UNL     1       4.496   3.462  17.878  0.00  0.00    +0.000 OA
ENDROOT
BRANCH   1  16
ATOM     13  C   UNL     1       7.020   4.962  14.036  0.00  0.00    +0.000 A 
ATOM     14  N   UNL     1       5.781   4.475  13.887  0.00  0.00    +0.000 NA
ATOM     15  C   UNL     1       4.921   4.734  14.895  0.00  0.00    +0.000 A 
ATOM     16  C   UNL     1       5.261   5.423  16.044  0.00  0.00    +0.000 A 
ATOM     17  C   UNL     1       6.567   5.865  16.085  0.00  0.00    +0.000 A 
ATOM     18  N   UNL     1       7.468   5.642  15.107  0.00  0.00    +0.000 NA
BRANCH  13  20
ATOM     19  C   UNL     1       7.227   4.010  11.940  0.00  0.00    +0.000 C 
ATOM     20  O   UNL     1       7.886   4.692  13.000  0.00  0.00    +0.000 OA
ENDBRANCH  13  20
ENDBRANCH   1  16
BRANCH  10  21
ATOM     21  C   UNL     1       2.797   3.747  20.071  0.00  0.00    +0.000 C 
ATOM     22  C   UNL     1       2.602   4.171  21.531  0.00  0.00    +0.000 C 
ATOM     23  C   UNL     1       1.879   2.985  22.158  0.00  0.00    +0.000 C 
ATOM     24  C   UNL     1       1.081   2.321  21.035  0.00  0.00    +0.000 C 
ATOM     25  C   UNL     1       1.521   2.970  19.728  0.00  0.00    +0.000 C 
ENDBRANCH  10  21
BRANCH   7  26
ATOM     26  N   UNL     1       0.498   8.131  21.659  0.00  0.00    +0.000 N 
ATOM     27  H   UNL     1       0.888   7.631  22.454  0.00  0.00    +0.000 HD
ATOM     28  H   UNL     1       0.446   9.130  21.809  0.00  0.00    +0.000 HD
ENDBRANCH   7  26
TORSDOF 4
ENDMDL
MODEL 9
REMARK VINA RESULT:      -7.2      2.398      6.493
REMARK  Name = 
REMARK  6 active torsions:
REMARK  status: ('A' for Active; 'I' for Inactive)
REMARK    1  A    between atoms: C_1  and  O_2
REMARK    2  A    between atoms: O_2  and  C_3
REMARK    3  A    between atoms: C_6  and  C_7
REMARK    4  A    between atoms: C_10  and  C_11
REMARK    5  A    between atoms: C_13  and  N_14
REMARK    6  A    between atoms: N_17  and  C_18
REMARK                            x       y       z     vdW  Elec       q    Type
REMARK                         _______ _______ _______ _____ _____    ______ ____
ROOT
ATOM      1  C   UNL     1       4.717   4.841  17.637  0.00  0.00    +0.000 A 
ATOM      2  C   UNL     1       4.777   3.743  18.403  0.00  0.00    +0.000 A 
ATOM      3  C   UNL     1       3.854   3.536  19.519  0.00  0.00    +0.000 A 
ATOM      4  C   UNL     1       3.861   2.375  20.315  0.00  0.00    +0.000 A 
ATOM      5  C   UNL     1       4.815   1.227  20.138  0.00  0.00    +0.000 C 
ATOM      6  N   UNL     1       2.967   2.169  21.319  0.00  0.00    +0.000 NA
ATOM      7  C   UNL     1       2.037   3.098  21.547  0.00  0.00    +0.000 A 
ATOM      8  C   UNL     1       1.960   4.269  20.813  0.00  0.00    +0.000 A 
ATOM      9  C   UNL     1       2.882   4.521  19.790  0.00  0.00    +0.000 A 
ATOM     10  N   UNL     1       2.851   5.730  19.000  0.00  0.00    +0.000 N 
ATOM     11  C   UNL     1       3.735   5.915  17.933  0.00  0.00    +0.000 A 
ATOM     12  O   UNL     1       3.754   6.919  17.215  0.00  0.00    +0.000 OA
ENDROOT
BRANCH   1  16
ATOM     13  C   UNL     1       7.294   5.246  14.378  0.00  0.00    +0.000 A 
ATOM     14  N   UNL     1       7.636   5.874  15.511  0.00  0.00    +0.000 NA
ATOM     15  C   UNL     1       6.794   5.708  16.553  0.00  0.00    +0.000 A 
ATOM     16  C   UNL     1       5.624   4.976  16.493  0.00  0.00    +0.000 A 
ATOM     17  C   UNL     1       5.375   4.386  15.271  0.00  0.00    +0.000 A 
ATOM     18  N   UNL     1       6.182   4.511  14.198  0.00  0.00    +0.000 NA
BRANCH  13  20
ATOM     19  C   UNL     1       7.591   4.972  12.102  0.00  0.00    +0.000 C 
ATOM     20  O   UNL     1       8.163   5.422  13.324  0.00  0.00    +0.000 OA
ENDBRANCH  13  20
ENDBRANCH   1  16
BRANCH  10  21
ATOM     21  C   UNL     1       1.877   6.801  19.274  0.00  0.00    +0.000 C 
ATOM     22  C   UNL     1       1.965   7.420  20.673  0.00  0.00    +0.000 C 
ATOM     23  C   UNL     1       1.205   8.734  20.534  0.00  0.00    +0.000 C 
ATOM     24  C   UNL     1       1.346   9.164  19.074  0.00  0.00    +0.000 C 
ATOM     25  C   UNL     1       1.977   7.998  18.322  0.00  0.00    +0.000 C 
ENDBRANCH  10  21
BRANCH   7  26
ATOM     26  N   UNL     1       1.061   2.801  22.493  0.00  0.00    +0.000 N 
ATOM     27  H   UNL     1       1.183   1.835  22.784  0.00  0.00    +0.000 HD
ATOM     28  H   UNL     1       1.039   3.448  23.271  0.00  0.00    +0.000 HD
ENDBRANCH   7  26
TORSDOF 4
ENDMDL
