MODEL 1
REMARK VINA RESULT:      -8.6      0.000      0.000
REMARK  Name = 
REMARK  8 active torsions:
REMARK  status: ('A' for Active; 'I' for Inactive)
REMARK    1  A    between atoms: C_1  and  C_2
REMARK    2  A    between atoms: C_10  and  C_11
REMARK    3  A    between atoms: C_11  and  C_13
REMARK    4  A    between atoms: C_13  and  C_14
REMARK    5  A    between atoms: C_13  and  O_15
REMARK    6  A    between atoms: O_15  and  C_16
REMARK    7  A    between atoms: C_16  and  C_18
REMARK    8  A    between atoms: C_18  and  C_19
REMARK                            x       y       z     vdW  Elec       q    Type
REMARK                         _______ _______ _______ _____ _____    ______ ____
ROOT
ATOM      1  C   UNL     1       1.982   8.548  19.242  0.00  0.00    +0.000 C 
ATOM      2  C   UNL     1       1.149   8.441  20.512  0.00  0.00    +0.000 C 
ENDROOT
BRANCH   1   3
ATOM      3  C   UNL     1       1.501   9.726  18.379  0.00  0.00    +0.000 C 
ATOM      4  O   UNL     1       2.064   9.942  17.303  0.00  0.00    +0.000 OA
BRANCH   3  14
ATOM      5  C   UNL     1       1.342  12.234  20.677  0.00  0.00    +0.000 C 
ATOM      6  C   UNL     1       0.328  11.600  19.785  0.00  0.00    +0.000 A 
ATOM      7  N   UNL     1      -0.959  12.077  19.848  0.00  0.00    +0.000 N 
ATOM      8  C   UNL     1      -1.767  11.446  18.941  0.00  0.00    +0.000 A 
ATOM      9  C   UNL     1      -3.125  11.651  18.659  0.00  0.00    +0.000 A 
ATOM     10  C   UNL     1      -3.703  10.862  17.661  0.00  0.00    +0.000 A 
ATOM     11  C   UNL     1      -2.955   9.908  16.986  0.00  0.00    +0.000 A 
ATOM     12  C   UNL     1      -1.599   9.714  17.289  0.00  0.00    +0.000 A 
ATOM     13  C   UNL     1      -0.980  10.503  18.288  0.00  0.00    +0.000 A 
ATOM     14  C   UNL     1       0.364  10.581  18.828  0.00  0.00    +0.000 A 
ATOM     15  H   UNL     1      -1.275  12.820  20.457  0.00  0.00    +0.000 HD
ENDBRANCH   3  14
ENDBRANCH   1   3
BRANCH   1  16
ATOM     16  O   UNL     1       1.915   7.272  18.560  0.00  0.00    +0.000 OA
BRANCH  16  17
ATOM     17  C   UNL     1       3.120   6.779  18.164  0.00  0.00    +0.000 C 
ATOM     18  O   UNL     1       4.008   7.484  17.672  0.00  0.00    +0.000 OA
BRANCH  17  19
ATOM     19  C   UNL     1       3.271   5.254  18.269  0.00  0.00    +0.000 C 
ATOM     20  C   UNL     1       3.049   4.943  19.774  0.00  0.00    +0.000 C 
ATOM     21  C   UNL     1       2.777   3.453  19.870  0.00  0.00    +0.000 C 
ATOM     22  C   UNL     1       2.205   3.071  18.510  0.00  0.00    +0.000 C 
ATOM     23  C   UNL     1       2.148   4.372  17.685  0.00  0.00    +0.000 C 
BRANCH  19  24
ATOM     24  C   UNL     1       4.632   4.871  17.673  0.00  0.00    +0.000 A 
ATOM     25  C   UNL     1       4.700   4.472  16.320  0.00  0.00    +0.000 A 
ATOM     26  C   UNL     1       5.924   4.214  15.698  0.00  0.00    +0.000 A 
ATOM     27  C   UNL     1       7.104   4.328  16.421  0.00  0.00    +0.000 A 
ATOM     28  C   UNL     1       7.048   4.690  17.761  0.00  0.00    +0.000 A 
ATOM     29  F   UNL     1       8.185   4.800  18.461  0.00  0.00    +0.000 F 
ATOM     30  C   UNL     1       5.835   4.963  18.387  0.00  0.00    +0.000 A 
ENDBRANCH  19  24
ENDBRANCH  17  19
ENDBRANCH  16  17
ENDBRANCH   1  16
TORSDOF 6
ENDMDL
MODEL 2
REMARK VINA RESULT:      -8.5      1.341      1.717
REMARK  Name = 
REMARK  8 active torsions:
REMARK  status: ('A' for Active; 'I' for Inactive)
REMARK    1  A    between atoms: C_1  and  C_2
REMARK    2  A    between atoms: C_10  and  C_11
REMARK    3  A    between atoms: C_11  and  C_13
REMARK    4  A    between atoms: C_13  and  C_14
REMARK    5  A    between atoms: C_13  and  O_15
REMARK    6  A    between atoms: O_15  and  C_16
REMARK    7  A    between atoms: C_16  and  C_18
REMARK    8  A    between atoms: C_18  and  C_19
REMARK                            x       y       z     vdW  Elec       q    Type
REMARK                         _______ _______ _______ _____ _____    ______ ____
ROOT
ATOM      1  C   UNL     1       1.175   9.376  18.559  0.00  0.00    +0.000 C 
ATOM      2  C   UNL     1       1.916  10.658  18.205  0.00  0.00    +0.000 C 
ENDROOT
BRANCH   1   3
ATOM      3  C   UNL     1       0.040   9.668  19.555  0.00  0.00    +0.000 C 
ATOM      4  O   UNL     1       0.080   9.143  20.671  0.00  0.00    +0.000 OA
BRANCH   3  14
ATOM      5  C   UNL     1      -1.190  12.454  21.079  0.00  0.00    +0.000 C 
ATOM      6  C   UNL     1      -1.568  11.717  19.838  0.00  0.00    +0.000 A 
ATOM      7  N   UNL     1      -2.622  12.208  19.105  0.00  0.00    +0.000 N 
ATOM      8  C   UNL     1      -2.823  11.470  17.970  0.00  0.00    +0.000 A 
ATOM      9  C   UNL     1      -3.762  11.647  16.943  0.00  0.00    +0.000 A 
ATOM     10  C   UNL     1      -3.734  10.739  15.880  0.00  0.00    +0.000 A 
ATOM     11  C   UNL     1      -2.815   9.699  15.857  0.00  0.00    +0.000 A 
ATOM     12  C   UNL     1      -1.888   9.537  16.897  0.00  0.00    +0.000 A 
ATOM     13  C   UNL     1      -1.883  10.444  17.984  0.00  0.00    +0.000 A 
ATOM     14  C   UNL     1      -1.079  10.583  19.183  0.00  0.00    +0.000 A 
ATOM     15  H   UNL     1      -3.167  13.025  19.344  0.00  0.00    +0.000 HD
ENDBRANCH   3  14
ENDBRANCH   1   3
BRANCH   1  16
ATOM     16  O   UNL     1       2.147   8.426  19.060  0.00  0.00    +0.000 OA
BRANCH  16  17
ATOM     17  C   UNL     1       2.631   7.566  18.124  0.00  0.00    +0.000 C 
ATOM     18  O   UNL     1       2.949   7.920  16.983  0.00  0.00    +0.000 OA
BRANCH  17  19
ATOM     19  C   UNL     1       2.658   6.088  18.543  0.00  0.00    +0.000 C 
ATOM     20  C   UNL     1       2.102   6.085  19.993  0.00  0.00    +0.000 C 
ATOM     21  C   UNL     1       1.721   4.649  20.304  0.00  0.00    +0.000 C 
ATOM     22  C   UNL     1       1.428   4.018  18.947  0.00  0.00    +0.000 C 
ATOM     23  C   UNL     1       1.631   5.133  17.901  0.00  0.00    +0.000 C 
BRANCH  19  24
ATOM     24  C   UNL     1       4.087   5.566  18.345  0.00  0.00    +0.000 A 
ATOM     25  C   UNL     1       4.419   4.916  17.136  0.00  0.00    +0.000 A 
ATOM     26  C   UNL     1       5.728   4.516  16.860  0.00  0.00    +0.000 A 
ATOM     27  C   UNL     1       6.730   4.736  17.796  0.00  0.00    +0.000 A 
ATOM     28  C   UNL     1       6.411   5.348  19.002  0.00  0.00    +0.000 A 
ATOM     29  F   UNL     1       7.376   5.562  19.907  0.00  0.00    +0.000 F 
ATOM     30  C   UNL     1       5.113   5.764  19.281  0.00  0.00    +0.000 A 
ENDBRANCH  19  24
ENDBRANCH  17  19
ENDBRANCH  16  17
ENDBRANCH   1  16
TORSDOF 6
ENDMDL
MODEL 3
REMARK VINA RESULT:      -8.5      0.829      1.213
REMARK  Name = 
REMARK  8 active torsions:
REMARK  status: ('A' for Active; 'I' for Inactive)
REMARK    1  A    between atoms: C_1  and  C_2
REMARK    2  A    between atoms: C_10  and  C_11
REMARK    3  A    between atoms: C_11  and  C_13
REMARK    4  A    between atoms: C_13  and  C_14
REMARK    5  A    between atoms: C_13  and  O_15
REMARK    6  A    between atoms: O_15  and  C_16
REMARK    7  A    between atoms: C_16  and  C_18
REMARK    8  A    between atoms: C_18  and  C_19
REMARK                            x       y       z     vdW  Elec       q    Type
REMARK                         _______ _______ _______ _____ _____    ______ ____
ROOT
ATOM      1  C   UNL     1       1.857   8.722  19.265  0.00  0.00    +0.000 C 
ATOM      2  C   UNL     1       1.016   8.572  20.526  0.00  0.00    +0.000 C 
ENDROOT
BRANCH   1   3
ATOM      3  C   UNL     1       1.377   9.927  18.438  0.00  0.00    +0.000 C 
ATOM      4  O   UNL     1       2.000  10.231  17.418  0.00  0.00    +0.000 OA
BRANCH   3  14
ATOM      5  C   UNL     1       0.960  12.345  20.800  0.00  0.00    +0.000 C 
ATOM      6  C   UNL     1       0.030  11.684  19.838  0.00  0.00    +0.000 A 
ATOM      7  N   UNL     1      -1.285  12.086  19.849  0.00  0.00    +0.000 N 
ATOM      8  C   UNL     1      -2.009  11.440  18.884  0.00  0.00    +0.000 A 
ATOM      9  C   UNL     1      -3.361  11.578  18.540  0.00  0.00    +0.000 A 
ATOM     10  C   UNL     1      -3.843  10.791  17.489  0.00  0.00    +0.000 A 
ATOM     11  C   UNL     1      -3.008   9.903  16.826  0.00  0.00    +0.000 A 
ATOM     12  C   UNL     1      -1.659   9.776  17.191  0.00  0.00    +0.000 A 
ATOM     13  C   UNL     1      -1.138  10.565  18.244  0.00  0.00    +0.000 A 
ATOM     14  C   UNL     1       0.172  10.701  18.854  0.00  0.00    +0.000 A 
ATOM     15  H   UNL     1      -1.673  12.789  20.464  0.00  0.00    +0.000 HD
ENDBRANCH   3  14
ENDBRANCH   1   3
BRANCH   1  16
ATOM     16  O   UNL     1       1.797   7.469  18.541  0.00  0.00    +0.000 OA
BRANCH  16  17
ATOM     17  C   UNL     1       3.001   7.013  18.101  0.00  0.00    +0.000 C 
ATOM     18  O   UNL     1       3.805   7.720  17.484  0.00  0.00    +0.000 OA
BRANCH  17  19
ATOM     19  C   UNL     1       3.257   5.516  18.328  0.00  0.00    +0.000 C 
ATOM     20  C   UNL     1       3.007   5.303  19.846  0.00  0.00    +0.000 C 
ATOM     21  C   UNL     1       2.839   3.809  20.049  0.00  0.00    +0.000 C 
ATOM     22  C   UNL     1       2.344   3.284  18.707  0.00  0.00    +0.000 C 
ATOM     23  C   UNL     1       2.221   4.511  17.782  0.00  0.00    +0.000 C 
BRANCH  19  24
ATOM     24  C   UNL     1       4.662   5.191  17.804  0.00  0.00    +0.000 A 
ATOM     25  C   UNL     1       5.777   5.428  18.638  0.00  0.00    +0.000 A 
ATOM     26  C   UNL     1       7.066   5.053  18.253  0.00  0.00    +0.000 A 
ATOM     27  C   UNL     1       7.272   4.456  17.017  0.00  0.00    +0.000 A 
ATOM     28  C   UNL     1       6.189   4.245  16.174  0.00  0.00    +0.000 A 
ATOM     29  F   UNL     1       6.384   3.668  14.981  0.00  0.00    +0.000 F 
ATOM     30  C   UNL     1       4.897   4.600  16.554  0.00  0.00    +0.000 A 
ENDBRANCH  19  24
ENDBRANCH  17  19
ENDBRANCH  16  17
ENDBRANCH   1  16
TORSDOF 6
ENDMDL
MODEL 4
REMARK VINA RESULT:      -8.4      1.652      2.610
REMARK  Name = 
REMARK  8 active torsions:
REMARK  status: ('A' for Active; 'I' for Inactive)
REMARK    1  A    between atoms: C_1  and  C_2
REMARK    2  A    between atoms: C_10  and  C_11
REMARK    3  A    between atoms: C_11  and  C_13
REMARK    4  A    between atoms: C_13  and  C_14
REMARK    5  A    between atoms: C_13  and  O_15
REMARK    6  A    between atoms: O_15  and  C_16
REMARK    7  A    between atoms: C_16  and  C_18
REMARK    8  A    between atoms: C_18  and  C_19
REMARK                            x       y       z     vdW  Elec       q    Type
REMARK                         _______ _______ _______ _____ _____    ______ ____
ROOT
ATOM      1  C   UNL     1       1.427   9.436  17.776  0.00  0.00    +0.000 C 
ATOM      2  C   UNL     1       2.407  10.567  18.056  0.00  0.00    +0.000 C 
ENDROOT
BRANCH   1   3
ATOM      3  C   UNL     1      -0.016   9.895  18.051  0.00  0.00    +0.000 C 
ATOM      4  O   UNL     1      -0.913   9.514  17.293  0.00  0.00    +0.000 OA
BRANCH   3  14
ATOM      5  C   UNL     1      -0.739  13.216  18.249  0.00  0.00    +0.000 C 
ATOM      6  C   UNL     1      -0.609  12.136  19.270  0.00  0.00    +0.000 A 
ATOM      7  N   UNL     1      -0.812  12.478  20.585  0.00  0.00    +0.000 N 
ATOM      8  C   UNL     1      -0.716  11.386  21.403  0.00  0.00    +0.000 A 
ATOM      9  C   UNL     1      -0.884  11.291  22.792  0.00  0.00    +0.000 A 
ATOM     10  C   UNL     1      -0.739  10.028  23.375  0.00  0.00    +0.000 A 
ATOM     11  C   UNL     1      -0.431   8.919  22.601  0.00  0.00    +0.000 A 
ATOM     12  C   UNL     1      -0.261   9.037  21.213  0.00  0.00    +0.000 A 
ATOM     13  C   UNL     1      -0.410  10.299  20.590  0.00  0.00    +0.000 A 
ATOM     14  C   UNL     1      -0.325  10.768  19.219  0.00  0.00    +0.000 A 
ATOM     15  H   UNL     1      -1.035  13.408  20.917  0.00  0.00    +0.000 HD
ENDBRANCH   3  14
ENDBRANCH   1   3
BRANCH   1  16
ATOM     16  O   UNL     1       1.828   8.294  18.573  0.00  0.00    +0.000 OA
BRANCH  16  17
ATOM     17  C   UNL     1       2.738   7.479  17.974  0.00  0.00    +0.000 C 
ATOM     18  O   UNL     1       3.437   7.836  17.020  0.00  0.00    +0.000 OA
BRANCH  17  19
ATOM     19  C   UNL     1       2.767   6.035  18.496  0.00  0.00    +0.000 C 
ATOM     20  C   UNL     1       2.225   6.134  19.948  0.00  0.00    +0.000 C 
ATOM     21  C   UNL     1       1.844   4.724  20.362  0.00  0.00    +0.000 C 
ATOM     22  C   UNL     1       1.538   4.001  19.055  0.00  0.00    +0.000 C 
ATOM     23  C   UNL     1       1.733   5.039  17.932  0.00  0.00    +0.000 C 
BRANCH  19  24
ATOM     24  C   UNL     1       4.194   5.498  18.322  0.00  0.00    +0.000 A 
ATOM     25  C   UNL     1       4.528   4.812  17.133  0.00  0.00    +0.000 A 
ATOM     26  C   UNL     1       5.837   4.396  16.877  0.00  0.00    +0.000 A 
ATOM     27  C   UNL     1       6.834   4.635  17.814  0.00  0.00    +0.000 A 
ATOM     28  C   UNL     1       6.512   5.281  19.000  0.00  0.00    +0.000 A 
ATOM     29  F   UNL     1       7.472   5.513  19.905  0.00  0.00    +0.000 F 
ATOM     30  C   UNL     1       5.214   5.714  19.259  0.00  0.00    +0.000 A 
ENDBRANCH  19  24
ENDBRANCH  17  19
ENDBRANCH  16  17
ENDBRANCH   1  16
TORSDOF 6
ENDMDL
MODEL 5
REMARK VINA RESULT:      -8.4      1.582      3.012
REMARK  Name = 
REMARK  8 active torsions:
REMARK  status: ('A' for Active; 'I' for Inactive)
REMARK    1  A    between atoms: C_1  and  C_2
REMARK    2  A    between atoms: C_10  and  C_11
REMARK    3  A    between atoms: C_11  and  C_13
REMARK    4  A    between atoms: C_13  and  C_14
REMARK    5  A    between atoms: C_13  and  O_15
REMARK    6  A    between atoms: O_15  and  C_16
REMARK    7  A    between atoms: C_16  and  C_18
REMARK    8  A    between atoms: C_18  and  C_19
REMARK                            x       y       z     vdW  Elec       q    Type
REMARK                         _______ _______ _______ _____ _____    ______ ____
ROOT
ATOM      1  C   UNL     1       1.599   8.330  18.849  0.00  0.00    +0.000 C 
ATOM      2  C   UNL     1       2.256   8.956  17.627  0.00  0.00    +0.000 C 
ENDROOT
BRANCH   1   3
ATOM      3  C   UNL     1       0.977   9.417  19.742  0.00  0.00    +0.000 C 
ATOM      4  O   UNL     1       1.021   9.275  20.967  0.00  0.00    +0.000 OA
BRANCH   3  14
ATOM      5  C   UNL     1      -1.659   9.756  17.613  0.00  0.00    +0.000 C 
ATOM      6  C   UNL     1      -0.733  10.733  18.256  0.00  0.00    +0.000 A 
ATOM      7  N   UNL     1      -0.924  12.065  17.979  0.00  0.00    +0.000 N 
ATOM      8  C   UNL     1      -0.043  12.848  18.675  0.00  0.00    +0.000 A 
ATOM      9  C   UNL     1       0.081  14.245  18.705  0.00  0.00    +0.000 A 
ATOM     10  C   UNL     1       1.075  14.786  19.525  0.00  0.00    +0.000 A 
ATOM     11  C   UNL     1       1.909  13.964  20.270  0.00  0.00    +0.000 A 
ATOM     12  C   UNL     1       1.772  12.569  20.220  0.00  0.00    +0.000 A 
ATOM     13  C   UNL     1       0.770  11.988  19.407  0.00  0.00    +0.000 A 
ATOM     14  C   UNL     1       0.347  10.626  19.139  0.00  0.00    +0.000 A 
ATOM     15  H   UNL     1      -1.638  12.436  17.367  0.00  0.00    +0.000 HD
ENDBRANCH   3  14
ENDBRANCH   1   3
BRANCH   1  16
ATOM     16  O   UNL     1       2.599   7.531  19.529  0.00  0.00    +0.000 OA
BRANCH  16  17
ATOM     17  C   UNL     1       2.186   6.280  19.870  0.00  0.00    +0.000 C 
ATOM     18  O   UNL     1       1.523   6.042  20.886  0.00  0.00    +0.000 OA
BRANCH  17  19
ATOM     19  C   UNL     1       2.692   5.153  18.958  0.00  0.00    +0.000 C 
ATOM     20  C   UNL     1       2.503   3.859  19.797  0.00  0.00    +0.000 C 
ATOM     21  C   UNL     1       2.590   2.699  18.823  0.00  0.00    +0.000 C 
ATOM     22  C   UNL     1       2.170   3.283  17.479  0.00  0.00    +0.000 C 
ATOM     23  C   UNL     1       1.831   4.764  17.739  0.00  0.00    +0.000 C 
BRANCH  19  24
ATOM     24  C   UNL     1       4.124   5.499  18.528  0.00  0.00    +0.000 A 
ATOM     25  C   UNL     1       4.334   6.106  17.270  0.00  0.00    +0.000 A 
ATOM     26  C   UNL     1       5.602   6.537  16.873  0.00  0.00    +0.000 A 
ATOM     27  C   UNL     1       6.690   6.350  17.715  0.00  0.00    +0.000 A 
ATOM     28  C   UNL     1       6.502   5.727  18.942  0.00  0.00    +0.000 A 
ATOM     29  F   UNL     1       7.550   5.546  19.756  0.00  0.00    +0.000 F 
ATOM     30  C   UNL     1       5.240   5.307  19.354  0.00  0.00    +0.000 A 
ENDBRANCH  19  24
ENDBRANCH  17  19
ENDBRANCH  16  17
ENDBRANCH   1  16
TORSDOF 6
ENDMDL
MODEL 6
REMARK VINA RESULT:      -8.3      3.303      8.090
REMARK  Name = 
REMARK  8 active torsions:
REMARK  status: ('A' for Active; 'I' for Inactive)
REMARK    1  A    between atoms: C_1  and  C_2
REMARK    2  A    between atoms: C_10  and  C_11
REMARK    3  A    between atoms: C_11  and  C_13
REMARK    4  A    between atoms: C_13  and  C_14
REMARK    5  A    between atoms: C_13  and  O_15
REMARK    6  A    between atoms: O_15  and  C_16
REMARK    7  A    between atoms: C_16  and  C_18
REMARK    8  A    between atoms: C_18  and  C_19
REMARK                            x       y       z     vdW  Elec       q    Type
REMARK                         _______ _______ _______ _____ _____    ______ ____
ROOT
ATOM      1  C   UNL     1       1.775   5.758  19.752  0.00  0.00    +0.000 C 
ATOM      2  C   UNL     1       1.835   4.920  21.021  0.00  0.00    +0.000 C 
ENDROOT
BRANCH   1   3
ATOM      3  C   UNL     1       2.431   5.008  18.580  0.00  0.00    +0.000 C 
ATOM      4  O   UNL     1       1.738   4.713  17.603  0.00  0.00    +0.000 OA
BRANCH   3  14
ATOM      5  C   UNL     1       4.046   2.214  19.667  0.00  0.00    +0.000 C 
ATOM      6  C   UNL     1       4.516   3.504  19.081  0.00  0.00    +0.000 A 
ATOM      7  N   UNL     1       5.871   3.669  18.915  0.00  0.00    +0.000 N 
ATOM      8  C   UNL     1       6.155   4.868  18.321  0.00  0.00    +0.000 A 
ATOM      9  C   UNL     1       7.393   5.410  17.948  0.00  0.00    +0.000 A 
ATOM     10  C   UNL     1       7.390   6.668  17.338  0.00  0.00    +0.000 A 
ATOM     11  C   UNL     1       6.202   7.352  17.125  0.00  0.00    +0.000 A 
ATOM     12  C   UNL     1       4.974   6.794  17.512  0.00  0.00    +0.000 A 
ATOM     13  C   UNL     1       4.941   5.518  18.123  0.00  0.00    +0.000 A 
ATOM     14  C   UNL     1       3.881   4.660  18.618  0.00  0.00    +0.000 A 
ATOM     15  H   UNL     1       6.575   2.987  19.165  0.00  0.00    +0.000 HD
ENDBRANCH   3  14
ENDBRANCH   1   3
BRANCH   1  16
ATOM     16  O   UNL     1       2.396   7.036  20.034  0.00  0.00    +0.000 OA
BRANCH  16  17
ATOM     17  C   UNL     1       1.754   8.108  19.495  0.00  0.00    +0.000 C 
ATOM     18  O   UNL     1       1.846   8.419  18.303  0.00  0.00    +0.000 OA
BRANCH  17  19
ATOM     19  C   UNL     1       0.982   8.980  20.496  0.00  0.00    +0.000 C 
ATOM     20  C   UNL     1      -0.109   8.037  21.074  0.00  0.00    +0.000 C 
ATOM     21  C   UNL     1      -0.623   8.700  22.340  0.00  0.00    +0.000 C 
ATOM     22  C   UNL     1       0.530   9.574  22.820  0.00  0.00    +0.000 C 
ATOM     23  C   UNL     1       1.681   9.360  21.818  0.00  0.00    +0.000 C 
BRANCH  19  24
ATOM     24  C   UNL     1       0.496  10.233  19.755  0.00  0.00    +0.000 A 
ATOM     25  C   UNL     1      -0.774  10.214  19.137  0.00  0.00    +0.000 A 
ATOM     26  C   UNL     1      -1.310  11.358  18.541  0.00  0.00    +0.000 A 
ATOM     27  C   UNL     1      -0.580  12.538  18.531  0.00  0.00    +0.000 A 
ATOM     28  C   UNL     1       0.683  12.562  19.109  0.00  0.00    +0.000 A 
ATOM     29  F   UNL     1       1.390  13.700  19.100  0.00  0.00    +0.000 F 
ATOM     30  C   UNL     1       1.220  11.432  19.719  0.00  0.00    +0.000 A 
ENDBRANCH  19  24
ENDBRANCH  17  19
ENDBRANCH  16  17
ENDBRANCH   1  16
TORSDOF 6
ENDMDL
MODEL 7
REMARK VINA RESULT:      -8.3      1.708      3.204
REMARK  Name = 
REMARK  8 active torsions:
REMARK  status: ('A' for Active; 'I' for Inactive)
REMARK    1  A    between atoms: C_1  and  C_2
REMARK    2  A    between atoms: C_10  and  C_11
REMARK    3  A    between atoms: C_11  and  C_13
REMARK    4  A    between atoms: C_13  and  C_14
REMARK    5  A    between atoms: C_13  and  O_15
REMARK    6  A    between atoms: O_15  and  C_16
REMARK    7  A    between atoms: C_16  and  C_18
REMARK    8  A    between atoms: C_18  and  C_19
REMARK                            x       y       z     vdW  Elec       q    Type
REMARK                         _______ _______ _______ _____ _____    ______ ____
ROOT
ATOM      1  C   UNL     1       1.546   8.305  18.914  0.00  0.00    +0.000 C 
ATOM      2  C   UNL     1       2.209   8.896  17.678  0.00  0.00    +0.000 C 
ENDROOT
BRANCH   1   3
ATOM      3  C   UNL     1       0.950   9.420  19.791  0.00  0.00    +0.000 C 
ATOM      4  O   UNL     1       1.000   9.300  21.018  0.00  0.00    +0.000 OA
BRANCH   3  14
ATOM      5  C   UNL     1      -1.662   9.765  17.634  0.00  0.00    +0.000 C 
ATOM      6  C   UNL     1      -0.730  10.739  18.275  0.00  0.00    +0.000 A 
ATOM      7  N   UNL     1      -0.904  12.071  17.982  0.00  0.00    +0.000 N 
ATOM      8  C   UNL     1      -0.021  12.851  18.677  0.00  0.00    +0.000 A 
ATOM      9  C   UNL     1       0.119  14.246  18.694  0.00  0.00    +0.000 A 
ATOM     10  C   UNL     1       1.111  14.786  19.517  0.00  0.00    +0.000 A 
ATOM     11  C   UNL     1       1.929  13.963  20.279  0.00  0.00    +0.000 A 
ATOM     12  C   UNL     1       1.776  12.568  20.242  0.00  0.00    +0.000 A 
ATOM     13  C   UNL     1       0.775  11.990  19.426  0.00  0.00    +0.000 A 
ATOM     14  C   UNL     1       0.340  10.630  19.168  0.00  0.00    +0.000 A 
ATOM     15  H   UNL     1      -1.609  12.442  17.359  0.00  0.00    +0.000 HD
ENDBRANCH   3  14
ENDBRANCH   1   3
BRANCH   1  16
ATOM     16  O   UNL     1       2.532   7.499  19.604  0.00  0.00    +0.000 OA
BRANCH  16  17
ATOM     17  C   UNL     1       2.104   6.254  19.948  0.00  0.00    +0.000 C 
ATOM     18  O   UNL     1       1.439   6.027  20.965  0.00  0.00    +0.000 OA
BRANCH  17  19
ATOM     19  C   UNL     1       2.594   5.118  19.038  0.00  0.00    +0.000 C 
ATOM     20  C   UNL     1       2.498   3.843  19.921  0.00  0.00    +0.000 C 
ATOM     21  C   UNL     1       2.568   2.659  18.974  0.00  0.00    +0.000 C 
ATOM     22  C   UNL     1       2.051   3.190  17.642  0.00  0.00    +0.000 C 
ATOM     23  C   UNL     1       1.677   4.666  17.883  0.00  0.00    +0.000 C 
BRANCH  19  24
ATOM     24  C   UNL     1       3.986   5.498  18.515  0.00  0.00    +0.000 A 
ATOM     25  C   UNL     1       5.110   5.290  19.345  0.00  0.00    +0.000 A 
ATOM     26  C   UNL     1       6.408   5.518  18.881  0.00  0.00    +0.000 A 
ATOM     27  C   UNL     1       6.609   5.981  17.588  0.00  0.00    +0.000 A 
ATOM     28  C   UNL     1       5.510   6.218  16.772  0.00  0.00    +0.000 A 
ATOM     29  F   UNL     1       5.700   6.664  15.523  0.00  0.00    +0.000 F 
ATOM     30  C   UNL     1       4.213   5.979  17.218  0.00  0.00    +0.000 A 
ENDBRANCH  19  24
ENDBRANCH  17  19
ENDBRANCH  16  17
ENDBRANCH   1  16
TORSDOF 6
ENDMDL
MODEL 8
REMARK VINA RESULT:      -8.3      1.741      2.803
REMARK  Name = 
REMARK  8 active torsions:
REMARK  status: ('A' for Active; 'I' for Inactive)
REMARK    1  A    between atoms: C_1  and  C_2
REMARK    2  A    between atoms: C_10  and  C_11
REMARK    3  A    between atoms: C_11  and  C_13
REMARK    4  A    between atoms: C_13  and  C_14
REMARK    5  A    between atoms: C_13  and  O_15
REMARK    6  A    between atoms: O_15  and  C_16
REMARK    7  A    between atoms: C_16  and  C_18
REMARK    8  A    between atoms: C_18  and  C_19
REMARK                            x       y       z     vdW  Elec       q    Type
REMARK                         _______ _______ _______ _____ _____    ______ ____
ROOT
ATOM      1  C   UNL     1       1.481   9.512  17.757  0.00  0.00    +0.000 C 
ATOM      2  C   UNL     1       2.443  10.640  18.100  0.00  0.00    +0.000 C 
ENDROOT
BRANCH   1   3
ATOM      3  C   UNL     1       0.030   9.934  18.048  0.00  0.00    +0.000 C 
ATOM      4  O   UNL     1      -0.867   9.521  17.308  0.00  0.00    +0.000 OA
BRANCH   3  14
ATOM      5  C   UNL     1      -0.696  13.256  18.228  0.00  0.00    +0.000 C 
ATOM      6  C   UNL     1      -0.571  12.180  19.255  0.00  0.00    +0.000 A 
ATOM      7  N   UNL     1      -0.781  12.528  20.568  0.00  0.00    +0.000 N 
ATOM      8  C   UNL     1      -0.689  11.439  21.390  0.00  0.00    +0.000 A 
ATOM      9  C   UNL     1      -0.864  11.350  22.779  0.00  0.00    +0.000 A 
ATOM     10  C   UNL     1      -0.721  10.090  23.368  0.00  0.00    +0.000 A 
ATOM     11  C   UNL     1      -0.408   8.977  22.600  0.00  0.00    +0.000 A 
ATOM     12  C   UNL     1      -0.231   9.090  21.213  0.00  0.00    +0.000 A 
ATOM     13  C   UNL     1      -0.377  10.349  20.584  0.00  0.00    +0.000 A 
ATOM     14  C   UNL     1      -0.286  10.812  19.211  0.00  0.00    +0.000 A 
ATOM     15  H   UNL     1      -1.006  13.459  20.894  0.00  0.00    +0.000 HD
ENDBRANCH   3  14
ENDBRANCH   1   3
BRANCH   1  16
ATOM     16  O   UNL     1       1.895   8.336  18.496  0.00  0.00    +0.000 OA
BRANCH  16  17
ATOM     17  C   UNL     1       2.773   7.535  17.835  0.00  0.00    +0.000 C 
ATOM     18  O   UNL     1       3.396   7.900  16.832  0.00  0.00    +0.000 OA
BRANCH  17  19
ATOM     19  C   UNL     1       2.865   6.093  18.357  0.00  0.00    +0.000 C 
ATOM     20  C   UNL     1       2.462   6.194  19.853  0.00  0.00    +0.000 C 
ATOM     21  C   UNL     1       2.136   4.783  20.307  0.00  0.00    +0.000 C 
ATOM     22  C   UNL     1       1.714   4.051  19.038  0.00  0.00    +0.000 C 
ATOM     23  C   UNL     1       1.791   5.085  17.898  0.00  0.00    +0.000 C 
BRANCH  19  24
ATOM     24  C   UNL     1       4.274   5.568  18.050  0.00  0.00    +0.000 A 
ATOM     25  C   UNL     1       5.312   5.808  18.978  0.00  0.00    +0.000 A 
ATOM     26  C   UNL     1       6.586   5.263  18.801  0.00  0.00    +0.000 A 
ATOM     27  C   UNL     1       6.856   4.486  17.682  0.00  0.00    +0.000 A 
ATOM     28  C   UNL     1       5.852   4.267  16.747  0.00  0.00    +0.000 A 
ATOM     29  F   UNL     1       6.110   3.518  15.667  0.00  0.00    +0.000 F 
ATOM     30  C   UNL     1       4.575   4.793  16.921  0.00  0.00    +0.000 A 
ENDBRANCH  19  24
ENDBRANCH  17  19
ENDBRANCH  16  17
ENDBRANCH   1  16
TORSDOF 6
ENDMDL
MODEL 9
REMARK VINA RESULT:      -8.2      3.477      8.189
REMARK  Name = 
REMARK  8 active torsions:
REMARK  status: ('A' for Active; 'I' for Inactive)
REMARK    1  A    between atoms: C_1  and  C_2
REMARK    2  A    between atoms: C_10  and  C_11
REMARK    3  A    between atoms: C_11  and  C_13
REMARK    4  A    between atoms: C_13  and  C_14
REMARK    5  A    between atoms: C_13  and  O_15
REMARK    6  A    between atoms: O_15  and  C_16
REMARK    7  A    between atoms: C_16  and  C_18
REMARK    8  A    between atoms: C_18  and  C_19
REMARK                            x       y       z     vdW  Elec       q    Type
REMARK                         _______ _______ _______ _____ _____    ______ ____
ROOT
ATOM      1  C   UNL     1       1.801   5.839  19.793  0.00  0.00    +0.000 C 
ATOM      2  C   UNL     1       1.928   5.020  21.069  0.00  0.00    +0.000 C 
ENDROOT
BRANCH   1   3
ATOM      3  C   UNL     1       2.443   5.094  18.609  0.00  0.00    +0.000 C 
ATOM      4  O   UNL     1       1.746   4.830  17.627  0.00  0.00    +0.000 OA
BRANCH   3  14
ATOM      5  C   UNL     1       4.000   2.269  19.701  0.00  0.00    +0.000 C 
ATOM      6  C   UNL     1       4.497   3.546  19.110  0.00  0.00    +0.000 A 
ATOM      7  N   UNL     1       5.854   3.681  18.938  0.00  0.00    +0.000 N 
ATOM      8  C   UNL     1       6.162   4.872  18.339  0.00  0.00    +0.000 A 
ATOM      9  C   UNL     1       7.411   5.384  17.959  0.00  0.00    +0.000 A 
ATOM     10  C   UNL     1       7.434   6.640  17.346  0.00  0.00    +0.000 A 
ATOM     11  C   UNL     1       6.260   7.349  17.133  0.00  0.00    +0.000 A 
ATOM     12  C   UNL     1       5.021   6.820  17.527  0.00  0.00    +0.000 A 
ATOM     13  C   UNL     1       4.962   5.548  18.143  0.00  0.00    +0.000 A 
ATOM     14  C   UNL     1       3.885   4.714  18.644  0.00  0.00    +0.000 A 
ATOM     15  H   UNL     1       6.544   2.985  19.189  0.00  0.00    +0.000 HD
ENDBRANCH   3  14
ENDBRANCH   1   3
BRANCH   1  16
ATOM     16  O   UNL     1       2.391   7.139  20.040  0.00  0.00    +0.000 OA
BRANCH  16  17
ATOM     17  C   UNL     1       1.683   8.185  19.534  0.00  0.00    +0.000 C 
ATOM     18  O   UNL     1       1.707   8.501  18.340  0.00  0.00    +0.000 OA
BRANCH  17  19
ATOM     19  C   UNL     1       0.925   9.026  20.573  0.00  0.00    +0.000 C 
ATOM     20  C   UNL     1      -0.169   8.071  21.124  0.00  0.00    +0.000 C 
ATOM     21  C   UNL     1      -0.668   8.691  22.417  0.00  0.00    +0.000 C 
ATOM     22  C   UNL     1       0.495   9.538  22.921  0.00  0.00    +0.000 C 
ATOM     23  C   UNL     1       1.637   9.351  21.902  0.00  0.00    +0.000 C 
BRANCH  19  24
ATOM     24  C   UNL     1       0.444  10.309  19.882  0.00  0.00    +0.000 A 
ATOM     25  C   UNL     1       1.267  11.457  19.918  0.00  0.00    +0.000 A 
ATOM     26  C   UNL     1       0.928  12.617  19.219  0.00  0.00    +0.000 A 
ATOM     27  C   UNL     1      -0.252  12.664  18.488  0.00  0.00    +0.000 A 
ATOM     28  C   UNL     1      -1.085  11.552  18.469  0.00  0.00    +0.000 A 
ATOM     29  F   UNL     1      -2.223  11.594  17.764  0.00  0.00    +0.000 F 
ATOM     30  C   UNL     1      -0.749  10.385  19.150  0.00  0.00    +0.000 A 
ENDBRANCH  19  24
ENDBRANCH  17  19
ENDBRANCH  16  17
ENDBRANCH   1  16
TORSDOF 6
ENDMDL
