MODEL 1
REMARK VINA RESULT:      -8.5      0.000      0.000
REMARK  Name = 
REMARK  5 active torsions:
REMARK  status: ('A' for Active; 'I' for Inactive)
REMARK    1  A    between atoms: C_1  and  C_2
REMARK    2  A    between atoms: C_5  and  N_6
REMARK    3  A    between atoms: C_7  and  C_9
REMARK    4  A    between atoms: C_9  and  N_10
REMARK    5  A    between atoms: C_15  and  N_16
REMARK                            x       y       z     vdW  Elec       q    Type
REMARK                         _______ _______ _______ _____ _____    ______ ____
ROOT
ATOM      1  N   UNL     1       4.663   4.193  18.756  0.00  0.00    +0.000 N 
ATOM      2  C   UNL     1       5.887   4.793  18.948  0.00  0.00    +0.000 A 
ATOM      3  N   UNL     1       6.757   5.017  18.020  0.00  0.00    +0.000 NA
ATOM      4  C   UNL     1       6.396   4.706  16.701  0.00  0.00    +0.000 A 
ATOM      5  C   UNL     1       7.274   5.046  15.662  0.00  0.00    +0.000 A 
ATOM      6  C   UNL     1       6.891   4.826  14.327  0.00  0.00    +0.000 A 
ATOM      7  C   UNL     1       5.643   4.268  14.023  0.00  0.00    +0.000 A 
ATOM      8  C   UNL     1       4.785   3.898  15.060  0.00  0.00    +0.000 A 
ATOM      9  C   UNL     1       5.171   4.117  16.387  0.00  0.00    +0.000 A 
ATOM     10  C   UNL     1       4.275   3.755  17.503  0.00  0.00    +0.000 A 
ATOM     11  O   UNL     1       3.264   3.092  17.292  0.00  0.00    +0.000 OA
ENDROOT
BRANCH   6  12
ATOM     12  N   UNL     1       7.805   5.193  13.237  0.00  0.00    +0.000 N 
ATOM     13  O   UNL     1       8.739   5.964  13.501  0.00  0.00    +0.000 OA
ATOM     14  O   UNL     1       7.587   4.708  12.117  0.00  0.00    +0.000 OA
ENDBRANCH   6  12
BRANCH   1  15
ATOM     15  C   UNL     1       3.730   4.041  19.871  0.00  0.00    +0.000 C 
BRANCH  15  17
ATOM     16  N   UNL     1       3.032   6.389  19.725  0.00  0.00    +0.000 N 
ATOM     17  C   UNL     1       2.596   5.068  19.739  0.00  0.00    +0.000 C 
ATOM     18  O   UNL     1       1.436   4.698  19.569  0.00  0.00    +0.000 OA
ATOM     19  H   UNL     1       4.031   6.560  19.742  0.00  0.00    +0.000 HD
BRANCH  16  24
ATOM     20  C   UNL     1      -0.301  11.019  19.048  0.00  0.00    +0.000 C 
ATOM     21  C   UNL     1       0.577   9.818  19.242  0.00  0.00    +0.000 A 
ATOM     22  C   UNL     1       0.676   9.204  20.491  0.00  0.00    +0.000 A 
ATOM     23  C   UNL     1       1.483   8.074  20.670  0.00  0.00    +0.000 A 
ATOM     24  C   UNL     1       2.211   7.538  19.607  0.00  0.00    +0.000 A 
ATOM     25  C   UNL     1       2.135   8.171  18.359  0.00  0.00    +0.000 A 
ATOM     26  C   UNL     1       1.317   9.294  18.177  0.00  0.00    +0.000 A 
ENDBRANCH  16  24
ENDBRANCH  15  17
ENDBRANCH   1  15
TORSDOF 4
ENDMDL
MODEL 2
REMARK VINA RESULT:      -8.2      1.337      1.865
REMARK  Name = 
REMARK  5 active torsions:
REMARK  status: ('A' for Active; 'I' for Inactive)
REMARK    1  A    between atoms: C_1  and  C_2
REMARK    2  A    between atoms: C_5  and  N_6
REMARK    3  A    between atoms: C_7  and  C_9
REMARK    4  A    between atoms: C_9  and  N_10
REMARK    5  A    between atoms: C_15  and  N_16
REMARK                            x       y       z     vdW  Elec       q    Type
REMARK                         _______ _______ _______ _____ _____    ______ ____
ROOT
ATOM      1  N   UNL     1       3.823   4.338  18.807  0.00  0.00    +0.000 N 
ATOM      2  C   UNL     1       3.109   3.870  17.727  0.00  0.00    +0.000 A 
ATOM      3  N   UNL     1       3.510   3.907  16.500  0.00  0.00    +0.000 NA
ATOM      4  C   UNL     1       4.808   4.378  16.253  0.00  0.00    +0.000 A 
ATOM      5  C   UNL     1       5.310   4.321  14.946  0.00  0.00    +0.000 A 
ATOM      6  C   UNL     1       6.639   4.703  14.694  0.00  0.00    +0.000 A 
ATOM      7  C   UNL     1       7.467   5.145  15.734  0.00  0.00    +0.000 A 
ATOM      8  C   UNL     1       6.953   5.235  17.029  0.00  0.00    +0.000 A 
ATOM      9  C   UNL     1       5.629   4.855  17.275  0.00  0.00    +0.000 A 
ATOM     10  C   UNL     1       5.067   4.919  18.638  0.00  0.00    +0.000 A 
ATOM     11  O   UNL     1       5.689   5.478  19.536  0.00  0.00    +0.000 OA
ENDROOT
BRANCH   6  12
ATOM     12  N   UNL     1       7.172   4.631  13.326  0.00  0.00    +0.000 N 
ATOM     13  O   UNL     1       8.036   5.457  12.999  0.00  0.00    +0.000 OA
ATOM     14  O   UNL     1       6.725   3.747  12.581  0.00  0.00    +0.000 OA
ENDBRANCH   6  12
BRANCH   1  15
ATOM     15  C   UNL     1       3.297   4.193  20.162  0.00  0.00    +0.000 C 
BRANCH  15  17
ATOM     16  N   UNL     1       2.595   6.544  20.150  0.00  0.00    +0.000 N 
ATOM     17  C   UNL     1       2.196   5.236  20.404  0.00  0.00    +0.000 C 
ATOM     18  O   UNL     1       1.057   4.884  20.702  0.00  0.00    +0.000 OA
ATOM     19  H   UNL     1       3.528   6.693  19.782  0.00  0.00    +0.000 HD
BRANCH  16  24
ATOM     20  C   UNL     1      -0.684  11.251  20.476  0.00  0.00    +0.000 C 
ATOM     21  C   UNL     1       0.182  10.026  20.409  0.00  0.00    +0.000 A 
ATOM     22  C   UNL     1       0.329   9.197  21.522  0.00  0.00    +0.000 A 
ATOM     23  C   UNL     1       1.123   8.047  21.456  0.00  0.00    +0.000 A 
ATOM     24  C   UNL     1       1.790   7.703  20.280  0.00  0.00    +0.000 A 
ATOM     25  C   UNL     1       1.667   8.551  19.170  0.00  0.00    +0.000 A 
ATOM     26  C   UNL     1       0.861   9.695  19.232  0.00  0.00    +0.000 A 
ENDBRANCH  16  24
ENDBRANCH  15  17
ENDBRANCH   1  15
TORSDOF 4
ENDMDL
MODEL 3
REMARK VINA RESULT:      -8.1      0.628      1.311
REMARK  Name = 
REMARK  5 active torsions:
REMARK  status: ('A' for Active; 'I' for Inactive)
REMARK    1  A    between atoms: C_1  and  C_2
REMARK    2  A    between atoms: C_5  and  N_6
REMARK    3  A    between atoms: C_7  and  C_9
REMARK    4  A    between atoms: C_9  and  N_10
REMARK    5  A    between atoms: C_15  and  N_16
REMARK                            x       y       z     vdW  Elec       q    Type
REMARK                         _______ _______ _______ _____ _____    ______ ____
ROOT
ATOM      1  N   UNL     1       4.756   4.593  18.606  0.00  0.00    +0.000 N 
ATOM      2  C   UNL     1       5.783   5.507  18.674  0.00  0.00    +0.000 A 
ATOM      3  N   UNL     1       6.627   5.746  17.725  0.00  0.00    +0.000 NA
ATOM      4  C   UNL     1       6.432   5.091  16.501  0.00  0.00    +0.000 A 
ATOM      5  C   UNL     1       7.263   5.418  15.420  0.00  0.00    +0.000 A 
ATOM      6  C   UNL     1       7.027   4.841  14.161  0.00  0.00    +0.000 A 
ATOM      7  C   UNL     1       5.973   3.937  13.974  0.00  0.00    +0.000 A 
ATOM      8  C   UNL     1       5.169   3.585  15.060  0.00  0.00    +0.000 A 
ATOM      9  C   UNL     1       5.409   4.162  16.312  0.00  0.00    +0.000 A 
ATOM     10  C   UNL     1       4.562   3.824  17.472  0.00  0.00    +0.000 A 
ATOM     11  O   UNL     1       3.757   2.901  17.401  0.00  0.00    +0.000 OA
ENDROOT
BRANCH   6  12
ATOM     12  N   UNL     1       7.888   5.193  13.023  0.00  0.00    +0.000 N 
ATOM     13  O   UNL     1       7.596   4.728  11.912  0.00  0.00    +0.000 OA
ATOM     14  O   UNL     1       8.855   5.936  13.244  0.00  0.00    +0.000 OA
ENDBRANCH   6  12
BRANCH   1  15
ATOM     15  C   UNL     1       3.822   4.445  19.720  0.00  0.00    +0.000 C 
BRANCH  15  17
ATOM     16  N   UNL     1       2.818   6.648  20.119  0.00  0.00    +0.000 N 
ATOM     17  C   UNL     1       2.635   5.401  19.531  0.00  0.00    +0.000 C 
ATOM     18  O   UNL     1       1.677   5.076  18.834  0.00  0.00    +0.000 OA
ATOM     19  H   UNL     1       3.711   6.840  20.559  0.00  0.00    +0.000 HD
BRANCH  16  24
ATOM     20  C   UNL     1      -0.926  11.005  20.232  0.00  0.00    +0.000 C 
ATOM     21  C   UNL     1       0.045   9.862  20.184  0.00  0.00    +0.000 A 
ATOM     22  C   UNL     1       0.837   9.649  19.054  0.00  0.00    +0.000 A 
ATOM     23  C   UNL     1       1.754   8.592  19.014  0.00  0.00    +0.000 A 
ATOM     24  C   UNL     1       1.897   7.725  20.098  0.00  0.00    +0.000 A 
ATOM     25  C   UNL     1       1.081   7.920  21.220  0.00  0.00    +0.000 A 
ATOM     26  C   UNL     1       0.172   8.986  21.266  0.00  0.00    +0.000 A 
ENDBRANCH  16  24
ENDBRANCH  15  17
ENDBRANCH   1  15
TORSDOF 4
ENDMDL
MODEL 4
REMARK VINA RESULT:      -7.6      4.678      7.117
REMARK  Name = 
REMARK  5 active torsions:
REMARK  status: ('A' for Active; 'I' for Inactive)
REMARK    1  A    between atoms: C_1  and  C_2
REMARK    2  A    between atoms: C_5  and  N_6
REMARK    3  A    between atoms: C_7  and  C_9
REMARK    4  A    between atoms: C_9  and  N_10
REMARK    5  A    between atoms: C_15  and  N_16
REMARK                            x       y       z     vdW  Elec       q    Type
REMARK                         _______ _______ _______ _____ _____    ______ ____
ROOT
ATOM      1  N   UNL     1       6.153   6.103  17.744  0.00  0.00    +0.000 N 
ATOM      2  C   UNL     1       6.545   5.093  18.593  0.00  0.00    +0.000 A 
ATOM      3  N   UNL     1       5.744   4.326  19.254  0.00  0.00    +0.000 NA
ATOM      4  C   UNL     1       4.368   4.471  19.025  0.00  0.00    +0.000 A 
ATOM      5  C   UNL     1       3.482   3.576  19.640  0.00  0.00    +0.000 A 
ATOM      6  C   UNL     1       2.108   3.646  19.353  0.00  0.00    +0.000 A 
ATOM      7  C   UNL     1       1.613   4.605  18.460  0.00  0.00    +0.000 A 
ATOM      8  C   UNL     1       2.492   5.520  17.876  0.00  0.00    +0.000 A 
ATOM      9  C   UNL     1       3.858   5.445  18.167  0.00  0.00    +0.000 A 
ATOM     10  C   UNL     1       4.813   6.385  17.547  0.00  0.00    +0.000 A 
ATOM     11  O   UNL     1       4.403   7.355  16.916  0.00  0.00    +0.000 OA
ENDROOT
BRANCH   6  12
ATOM     12  N   UNL     1       1.180   2.700  19.987  0.00  0.00    +0.000 N 
ATOM     13  O   UNL     1       0.264   2.237  19.292  0.00  0.00    +0.000 OA
ATOM     14  O   UNL     1       1.370   2.421  21.179  0.00  0.00    +0.000 OA
ENDBRANCH   6  12
BRANCH   1  15
ATOM     15  C   UNL     1       7.147   6.874  17.000  0.00  0.00    +0.000 C 
BRANCH  15  17
ATOM     16  N   UNL     1       8.102   9.030  17.679  0.00  0.00    +0.000 N 
ATOM     17  C   UNL     1       8.019   7.674  17.979  0.00  0.00    +0.000 C 
ATOM     18  O   UNL     1       8.498   7.133  18.973  0.00  0.00    +0.000 OA
ATOM     19  H   UNL     1       7.554   9.379  16.902  0.00  0.00    +0.000 HD
BRANCH  16  24
ATOM     20  C   UNL     1      11.035  13.097  20.484  0.00  0.00    +0.000 C 
ATOM     21  C   UNL     1      10.278  12.020  19.764  0.00  0.00    +0.000 A 
ATOM     22  C   UNL     1       9.623  11.013  20.475  0.00  0.00    +0.000 A 
ATOM     23  C   UNL     1       8.904  10.017  19.804  0.00  0.00    +0.000 A 
ATOM     24  C   UNL     1       8.827  10.003  18.411  0.00  0.00    +0.000 A 
ATOM     25  C   UNL     1       9.508  10.997  17.695  0.00  0.00    +0.000 A 
ATOM     26  C   UNL     1      10.217  12.002  18.367  0.00  0.00    +0.000 A 
ENDBRANCH  16  24
ENDBRANCH  15  17
ENDBRANCH   1  15
TORSDOF 4
ENDMDL
MODEL 5
REMARK VINA RESULT:      -7.5      3.590      6.416
REMARK  Name = 
REMARK  5 active torsions:
REMARK  status: ('A' for Active; 'I' for Inactive)
REMARK    1  A    between atoms: C_1  and  C_2
REMARK    2  A    between atoms: C_5  and  N_6
REMARK    3  A    between atoms: C_7  and  C_9
REMARK    4  A    between atoms: C_9  and  N_10
REMARK    5  A    between atoms: C_15  and  N_16
REMARK                            x       y       z     vdW  Elec       q    Type
REMARK                         _______ _______ _______ _____ _____    ______ ____
ROOT
ATOM      1  N   UNL     1       1.430   9.166  19.440  0.00  0.00    +0.000 N 
ATOM      2  C   UNL     1       1.200   8.493  20.619  0.00  0.00    +0.000 A 
ATOM      3  N   UNL     1       1.535   7.267  20.850  0.00  0.00    +0.000 NA
ATOM      4  C   UNL     1       2.266   6.594  19.860  0.00  0.00    +0.000 A 
ATOM      5  C   UNL     1       2.742   5.304  20.131  0.00  0.00    +0.000 A 
ATOM      6  C   UNL     1       3.554   4.649  19.189  0.00  0.00    +0.000 A 
ATOM      7  C   UNL     1       3.889   5.269  17.979  0.00  0.00    +0.000 A 
ATOM      8  C   UNL     1       3.385   6.540  17.696  0.00  0.00    +0.000 A 
ATOM      9  C   UNL     1       2.576   7.187  18.637  0.00  0.00    +0.000 A 
ATOM     10  C   UNL     1       2.048   8.540  18.373  0.00  0.00    +0.000 A 
ATOM     11  O   UNL     1       2.155   9.037  17.256  0.00  0.00    +0.000 OA
ENDROOT
BRANCH   6  12
ATOM     12  N   UNL     1       4.064   3.301  19.477  0.00  0.00    +0.000 N 
ATOM     13  O   UNL     1       3.243   2.375  19.542  0.00  0.00    +0.000 OA
ATOM     14  O   UNL     1       5.286   3.172  19.636  0.00  0.00    +0.000 OA
ENDBRANCH   6  12
BRANCH   1  15
ATOM     15  C   UNL     1       1.060  10.573  19.307  0.00  0.00    +0.000 C 
BRANCH  15  17
ATOM     16  N   UNL     1      -0.497  11.677  20.851  0.00  0.00    +0.000 N 
ATOM     17  C   UNL     1      -0.382  10.777  19.796  0.00  0.00    +0.000 C 
ATOM     18  O   UNL     1      -1.321  10.241  19.211  0.00  0.00    +0.000 OA
ATOM     19  H   UNL     1       0.342  12.154  21.162  0.00  0.00    +0.000 HD
BRANCH  16  24
ATOM     20  C   UNL     1      -5.280  13.221  23.633  0.00  0.00    +0.000 C 
ATOM     21  C   UNL     1      -4.042  12.810  22.891  0.00  0.00    +0.000 A 
ATOM     22  C   UNL     1      -3.911  13.073  21.527  0.00  0.00    +0.000 A 
ATOM     23  C   UNL     1      -2.750  12.704  20.837  0.00  0.00    +0.000 A 
ATOM     24  C   UNL     1      -1.700  12.061  21.493  0.00  0.00    +0.000 A 
ATOM     25  C   UNL     1      -1.844  11.770  22.857  0.00  0.00    +0.000 A 
ATOM     26  C   UNL     1      -3.000  12.152  23.551  0.00  0.00    +0.000 A 
ENDBRANCH  16  24
ENDBRANCH  15  17
ENDBRANCH   1  15
TORSDOF 4
ENDMDL
MODEL 6
REMARK VINA RESULT:      -7.5      4.496      6.784
REMARK  Name = 
REMARK  5 active torsions:
REMARK  status: ('A' for Active; 'I' for Inactive)
REMARK    1  A    between atoms: C_1  and  C_2
REMARK    2  A    between atoms: C_5  and  N_6
REMARK    3  A    between atoms: C_7  and  C_9
REMARK    4  A    between atoms: C_9  and  N_10
REMARK    5  A    between atoms: C_15  and  N_16
REMARK                            x       y       z     vdW  Elec       q    Type
REMARK                         _______ _______ _______ _____ _____    ______ ____
ROOT
ATOM      1  N   UNL     1       5.944   6.207  16.871  0.00  0.00    +0.000 N 
ATOM      2  C   UNL     1       4.961   7.043  17.348  0.00  0.00    +0.000 A 
ATOM      3  N   UNL     1       3.806   6.659  17.781  0.00  0.00    +0.000 NA
ATOM      4  C   UNL     1       3.565   5.279  17.855  0.00  0.00    +0.000 A 
ATOM      5  C   UNL     1       2.367   4.832  18.429  0.00  0.00    +0.000 A 
ATOM      6  C   UNL     1       2.146   3.454  18.596  0.00  0.00    +0.000 A 
ATOM      7  C   UNL     1       3.109   2.521  18.190  0.00  0.00    +0.000 A 
ATOM      8  C   UNL     1       4.286   2.967  17.586  0.00  0.00    +0.000 A 
ATOM      9  C   UNL     1       4.500   4.340  17.421  0.00  0.00    +0.000 A 
ATOM     10  C   UNL     1       5.746   4.840  16.806  0.00  0.00    +0.000 A 
ATOM     11  O   UNL     1       6.523   4.059  16.265  0.00  0.00    +0.000 OA
ENDROOT
BRANCH   6  12
ATOM     12  N   UNL     1       0.897   2.984  19.209  0.00  0.00    +0.000 N 
ATOM     13  O   UNL     1       0.158   2.256  18.530  0.00  0.00    +0.000 OA
ATOM     14  O   UNL     1       0.656   3.343  20.371  0.00  0.00    +0.000 OA
ENDBRANCH   6  12
BRANCH   1  15
ATOM     15  C   UNL     1       7.239   6.746  16.458  0.00  0.00    +0.000 C 
BRANCH  15  17
ATOM     16  N   UNL     1       8.015   8.911  17.313  0.00  0.00    +0.000 N 
ATOM     17  C   UNL     1       7.849   7.562  17.608  0.00  0.00    +0.000 C 
ATOM     18  O   UNL     1       8.063   7.039  18.699  0.00  0.00    +0.000 OA
ATOM     19  H   UNL     1       7.678   9.248  16.419  0.00  0.00    +0.000 HD
BRANCH  16  24
ATOM     20  C   UNL     1      10.068  13.046  20.733  0.00  0.00    +0.000 C 
ATOM     21  C   UNL     1       9.548  11.954  19.845  0.00  0.00    +0.000 A 
ATOM     22  C   UNL     1       9.529  10.629  20.283  0.00  0.00    +0.000 A 
ATOM     23  C   UNL     1       9.030   9.613  19.461  0.00  0.00    +0.000 A 
ATOM     24  C   UNL     1       8.545   9.896  18.183  0.00  0.00    +0.000 A 
ATOM     25  C   UNL     1       8.592  11.222  17.731  0.00  0.00    +0.000 A 
ATOM     26  C   UNL     1       9.079  12.242  18.560  0.00  0.00    +0.000 A 
ENDBRANCH  16  24
ENDBRANCH  15  17
ENDBRANCH   1  15
TORSDOF 4
ENDMDL
MODEL 7
REMARK VINA RESULT:      -7.5      3.649      6.415
REMARK  Name = 
REMARK  5 active torsions:
REMARK  status: ('A' for Active; 'I' for Inactive)
REMARK    1  A    between atoms: C_1  and  C_2
REMARK    2  A    between atoms: C_5  and  N_6
REMARK    3  A    between atoms: C_7  and  C_9
REMARK    4  A    between atoms: C_9  and  N_10
REMARK    5  A    between atoms: C_15  and  N_16
REMARK                            x       y       z     vdW  Elec       q    Type
REMARK                         _______ _______ _______ _____ _____    ______ ____
ROOT
ATOM      1  N   UNL     1       1.381   9.292  19.485  0.00  0.00    +0.000 N 
ATOM      2  C   UNL     1       1.166   8.602  20.656  0.00  0.00    +0.000 A 
ATOM      3  N   UNL     1       1.502   7.372  20.865  0.00  0.00    +0.000 NA
ATOM      4  C   UNL     1       2.219   6.713  19.856  0.00  0.00    +0.000 A 
ATOM      5  C   UNL     1       2.696   5.418  20.102  0.00  0.00    +0.000 A 
ATOM      6  C   UNL     1       3.494   4.776  19.139  0.00  0.00    +0.000 A 
ATOM      7  C   UNL     1       3.814   5.414  17.934  0.00  0.00    +0.000 A 
ATOM      8  C   UNL     1       3.308   6.689  17.676  0.00  0.00    +0.000 A 
ATOM      9  C   UNL     1       2.513   7.323  18.637  0.00  0.00    +0.000 A 
ATOM     10  C   UNL     1       1.983   8.681  18.400  0.00  0.00    +0.000 A 
ATOM     11  O   UNL     1       2.076   9.194  17.289  0.00  0.00    +0.000 OA
ENDROOT
BRANCH   6  12
ATOM     12  N   UNL     1       4.006   3.424  19.400  0.00  0.00    +0.000 N 
ATOM     13  O   UNL     1       5.229   3.288  19.547  0.00  0.00    +0.000 OA
ATOM     14  O   UNL     1       3.183   2.499  19.460  0.00  0.00    +0.000 OA
ENDBRANCH   6  12
BRANCH   1  15
ATOM     15  C   UNL     1       1.011  10.702  19.377  0.00  0.00    +0.000 C 
BRANCH  15  17
ATOM     16  N   UNL     1      -0.528  11.759  20.969  0.00  0.00    +0.000 N 
ATOM     17  C   UNL     1      -0.427  10.899  19.881  0.00  0.00    +0.000 C 
ATOM     18  O   UNL     1      -1.373  10.393  19.281  0.00  0.00    +0.000 OA
ATOM     19  H   UNL     1       0.316  12.217  21.294  0.00  0.00    +0.000 HD
BRANCH  16  24
ATOM     20  C   UNL     1      -5.468  13.280  23.479  0.00  0.00    +0.000 C 
ATOM     21  C   UNL     1      -4.167  12.890  22.840  0.00  0.00    +0.000 A 
ATOM     22  C   UNL     1      -3.195  12.202  23.568  0.00  0.00    +0.000 A 
ATOM     23  C   UNL     1      -1.988  11.824  22.968  0.00  0.00    +0.000 A 
ATOM     24  C   UNL     1      -1.725  12.129  21.632  0.00  0.00    +0.000 A 
ATOM     25  C   UNL     1      -2.688  12.845  20.909  0.00  0.00    +0.000 A 
ATOM     26  C   UNL     1      -3.902  13.212  21.505  0.00  0.00    +0.000 A 
ENDBRANCH  16  24
ENDBRANCH  15  17
ENDBRANCH   1  15
TORSDOF 4
ENDMDL
MODEL 8
REMARK VINA RESULT:      -7.3      4.599      7.140
REMARK  Name = 
REMARK  5 active torsions:
REMARK  status: ('A' for Active; 'I' for Inactive)
REMARK    1  A    between atoms: C_1  and  C_2
REMARK    2  A    between atoms: C_5  and  N_6
REMARK    3  A    between atoms: C_7  and  C_9
REMARK    4  A    between atoms: C_9  and  N_10
REMARK    5  A    between atoms: C_15  and  N_16
REMARK                            x       y       z     vdW  Elec       q    Type
REMARK                         _______ _______ _______ _____ _____    ______ ____
ROOT
ATOM      1  N   UNL     1       5.950   6.284  17.339  0.00  0.00    +0.000 N 
ATOM      2  C   UNL     1       4.798   7.019  17.509  0.00  0.00    +0.000 A 
ATOM      3  N   UNL     1       3.729   6.597  18.098  0.00  0.00    +0.000 NA
ATOM      4  C   UNL     1       3.770   5.325  18.688  0.00  0.00    +0.000 A 
ATOM      5  C   UNL     1       2.665   4.890  19.432  0.00  0.00    +0.000 A 
ATOM      6  C   UNL     1       2.722   3.658  20.107  0.00  0.00    +0.000 A 
ATOM      7  C   UNL     1       3.870   2.858  20.041  0.00  0.00    +0.000 A 
ATOM      8  C   UNL     1       4.956   3.277  19.270  0.00  0.00    +0.000 A 
ATOM      9  C   UNL     1       4.893   4.503  18.599  0.00  0.00    +0.000 A 
ATOM     10  C   UNL     1       6.035   4.981  17.795  0.00  0.00    +0.000 A 
ATOM     11  O   UNL     1       6.977   4.231  17.554  0.00  0.00    +0.000 OA
ENDROOT
BRANCH   6  12
ATOM     12  N   UNL     1       1.569   3.206  20.898  0.00  0.00    +0.000 N 
ATOM     13  O   UNL     1       1.762   2.925  22.090  0.00  0.00    +0.000 OA
ATOM     14  O   UNL     1       0.472   3.134  20.326  0.00  0.00    +0.000 OA
ENDBRANCH   6  12
BRANCH   1  15
ATOM     15  C   UNL     1       7.124   6.883  16.707  0.00  0.00    +0.000 C 
BRANCH  15  17
ATOM     16  N   UNL     1       7.911   9.101  17.400  0.00  0.00    +0.000 N 
ATOM     17  C   UNL     1       7.875   7.750  17.728  0.00  0.00    +0.000 C 
ATOM     18  O   UNL     1       8.303   7.258  18.770  0.00  0.00    +0.000 OA
ATOM     19  H   UNL     1       7.408   9.404  16.574  0.00  0.00    +0.000 HD
BRANCH  16  24
ATOM     20  C   UNL     1      10.507  13.124  20.576  0.00  0.00    +0.000 C 
ATOM     21  C   UNL     1       9.813  12.086  19.744  0.00  0.00    +0.000 A 
ATOM     22  C   UNL     1       9.214  12.431  18.531  0.00  0.00    +0.000 A 
ATOM     23  C   UNL     1       8.580  11.460  17.746  0.00  0.00    +0.000 A 
ATOM     24  C   UNL     1       8.526  10.128  18.159  0.00  0.00    +0.000 A 
ATOM     25  C   UNL     1       9.101   9.787  19.390  0.00  0.00    +0.000 A 
ATOM     26  C   UNL     1       9.748  10.756  20.169  0.00  0.00    +0.000 A 
ENDBRANCH  16  24
ENDBRANCH  15  17
ENDBRANCH   1  15
TORSDOF 4
ENDMDL
MODEL 9
REMARK VINA RESULT:      -7.3      4.177      6.926
REMARK  Name = 
REMARK  5 active torsions:
REMARK  status: ('A' for Active; 'I' for Inactive)
REMARK    1  A    between atoms: C_1  and  C_2
REMARK    2  A    between atoms: C_5  and  N_6
REMARK    3  A    between atoms: C_7  and  C_9
REMARK    4  A    between atoms: C_9  and  N_10
REMARK    5  A    between atoms: C_15  and  N_16
REMARK                            x       y       z     vdW  Elec       q    Type
REMARK                         _______ _______ _______ _____ _____    ______ ____
ROOT
ATOM      1  N   UNL     1       1.564   9.544  19.163  0.00  0.00    +0.000 N 
ATOM      2  C   UNL     1       1.082   9.248  20.418  0.00  0.00    +0.000 A 
ATOM      3  N   UNL     1       1.083   8.073  20.955  0.00  0.00    +0.000 NA
ATOM      4  C   UNL     1       1.701   7.034  20.245  0.00  0.00    +0.000 A 
ATOM      5  C   UNL     1       1.819   5.777  20.854  0.00  0.00    +0.000 A 
ATOM      6  C   UNL     1       2.515   4.747  20.197  0.00  0.00    +0.000 A 
ATOM      7  C   UNL     1       3.089   4.962  18.937  0.00  0.00    +0.000 A 
ATOM      8  C   UNL     1       2.940   6.204  18.317  0.00  0.00    +0.000 A 
ATOM      9  C   UNL     1       2.244   7.225  18.975  0.00  0.00    +0.000 A 
ATOM     10  C   UNL     1       2.090   8.554  18.352  0.00  0.00    +0.000 A 
ATOM     11  O   UNL     1       2.406   8.726  17.179  0.00  0.00    +0.000 OA
ENDROOT
BRANCH   6  12
ATOM     12  N   UNL     1       2.651   3.433  20.839  0.00  0.00    +0.000 N 
ATOM     13  O   UNL     1       3.156   2.516  20.176  0.00  0.00    +0.000 OA
ATOM     14  O   UNL     1       2.252   3.320  22.007  0.00  0.00    +0.000 OA
ENDBRANCH   6  12
BRANCH   1  15
ATOM     15  C   UNL     1       1.566  10.922  18.676  0.00  0.00    +0.000 C 
BRANCH  15  17
ATOM     16  N   UNL     1      -0.748  10.802  17.868  0.00  0.00    +0.000 N 
ATOM     17  C   UNL     1       0.135  11.481  18.701  0.00  0.00    +0.000 C 
ATOM     18  O   UNL     1      -0.167  12.385  19.476  0.00  0.00    +0.000 OA
ATOM     19  H   UNL     1      -0.405   9.987  17.374  0.00  0.00    +0.000 HD
BRANCH  16  24
ATOM     20  C   UNL     1      -6.323  12.088  17.345  0.00  0.00    +0.000 C 
ATOM     21  C   UNL     1      -4.870  11.735  17.471  0.00  0.00    +0.000 A 
ATOM     22  C   UNL     1      -4.146  11.296  16.361  0.00  0.00    +0.000 A 
ATOM     23  C   UNL     1      -2.787  10.981  16.474  0.00  0.00    +0.000 A 
ATOM     24  C   UNL     1      -2.125  11.093  17.697  0.00  0.00    +0.000 A 
ATOM     25  C   UNL     1      -2.858  11.505  18.818  0.00  0.00    +0.000 A 
ATOM     26  C   UNL     1      -4.215  11.834  18.702  0.00  0.00    +0.000 A 
ENDBRANCH  16  24
ENDBRANCH  15  17
ENDBRANCH   1  15
TORSDOF 4
ENDMDL
