MODEL 1
REMARK VINA RESULT:      -7.9      0.000      0.000
REMARK  Name = 
REMARK  3 active torsions:
REMARK  status: ('A' for Active; 'I' for Inactive)
REMARK    1  A    between atoms: C_1  and  C_2
REMARK    2  A    between atoms: C_3  and  C_4
REMARK    3  A    between atoms: C_4  and  O_6
REMARK                            x       y       z     vdW  Elec       q    Type
REMARK                         _______ _______ _______ _____ _____    ______ ____
ROOT
ATOM      1  C   UNL     1       4.369   4.431  15.115  0.00  0.00    +0.000 C 
ATOM      2  C   UNL     1       5.664   4.498  15.835  0.00  0.00    +0.000 A 
ATOM      3  C   UNL     1       6.965   4.691  15.400  0.00  0.00    +0.000 A 
ATOM      4  N   UNL     1       7.820   4.590  16.469  0.00  0.00    +0.000 NA
ATOM      5  N   UNL     1       7.105   4.330  17.549  0.00  0.00    +0.000 NA
ATOM      6  N   UNL     1       5.790   4.280  17.200  0.00  0.00    +0.000 N 
ATOM      7  C   UNL     1       4.811   4.019  18.181  0.00  0.00    +0.000 A 
ATOM      8  N   UNL     1       3.537   4.200  17.997  0.00  0.00    +0.000 NA
ATOM      9  N   UNL     1       2.794   3.785  19.052  0.00  0.00    +0.000 N 
ATOM     10  C   UNL     1       1.469   4.043  19.276  0.00  0.00    +0.000 A 
ATOM     11  C   UNL     1       1.082   3.342  20.402  0.00  0.00    +0.000 A 
ATOM     12  C   UNL     1       2.217   2.635  20.872  0.00  0.00    +0.000 A 
ATOM     13  C   UNL     1       3.270   2.997  20.062  0.00  0.00    +0.000 A 
ATOM     14  C   UNL     1       4.656   2.674  20.080  0.00  0.00    +0.000 A 
ATOM     15  O   UNL     1       5.151   1.706  20.643  0.00  0.00    +0.000 OA
ATOM     16  N   UNL     1       5.397   3.558  19.340  0.00  0.00    +0.000 N 
ATOM     17  H   UNL     1       5.569   4.368  19.930  0.00  0.00    +0.000 HD
ENDROOT
BRANCH   3  18
ATOM     18  C   UNL     1       7.473   4.948  14.060  0.00  0.00    +0.000 C 
ATOM     19  O   UNL     1       8.348   5.752  13.787  0.00  0.00    +0.000 OA
BRANCH  18  20
ATOM     20  O   UNL     1       6.881   4.162  13.109  0.00  0.00    +0.000 OA
ATOM     21  H   UNL     1       6.531   3.344  13.523  0.00  0.00    +0.000 HD
ENDBRANCH  18  20
ENDBRANCH   3  18
TORSDOF 2
ENDMDL
MODEL 2
REMARK VINA RESULT:      -7.8      2.144      6.260
REMARK  Name = 
REMARK  3 active torsions:
REMARK  status: ('A' for Active; 'I' for Inactive)
REMARK    1  A    between atoms: C_1  and  C_2
REMARK    2  A    between atoms: C_3  and  C_4
REMARK    3  A    between atoms: C_4  and  O_6
REMARK                            x       y       z     vdW  Elec       q    Type
REMARK                         _______ _______ _______ _____ _____    ______ ____
ROOT
ATOM      1  C   UNL     1       1.900   3.721  17.784  0.00  0.00    +0.000 C 
ATOM      2  C   UNL     1       2.829   3.361  18.883  0.00  0.00    +0.000 A 
ATOM      3  C   UNL     1       2.618   3.018  20.209  0.00  0.00    +0.000 A 
ATOM      4  N   UNL     1       3.830   2.848  20.831  0.00  0.00    +0.000 NA
ATOM      5  N   UNL     1       4.786   3.085  19.950  0.00  0.00    +0.000 NA
ATOM      6  N   UNL     1       4.210   3.386  18.754  0.00  0.00    +0.000 N 
ATOM      7  C   UNL     1       5.021   3.679  17.637  0.00  0.00    +0.000 A 
ATOM      8  N   UNL     1       4.578   3.727  16.416  0.00  0.00    +0.000 NA
ATOM      9  N   UNL     1       5.528   4.123  15.533  0.00  0.00    +0.000 N 
ATOM     10  C   UNL     1       5.461   4.054  14.167  0.00  0.00    +0.000 A 
ATOM     11  C   UNL     1       6.588   4.664  13.653  0.00  0.00    +0.000 A 
ATOM     12  C   UNL     1       7.363   5.118  14.751  0.00  0.00    +0.000 A 
ATOM     13  C   UNL     1       6.716   4.694  15.890  0.00  0.00    +0.000 A 
ATOM     14  C   UNL     1       7.040   4.788  17.274  0.00  0.00    +0.000 A 
ATOM     15  O   UNL     1       7.825   5.587  17.765  0.00  0.00    +0.000 OA
ATOM     16  N   UNL     1       6.324   3.894  18.027  0.00  0.00    +0.000 N 
ATOM     17  H   UNL     1       6.806   3.001  17.966  0.00  0.00    +0.000 HD
ENDROOT
BRANCH   3  18
ATOM     18  C   UNL     1       1.373   2.848  20.943  0.00  0.00    +0.000 C 
ATOM     19  O   UNL     1       1.289   2.483  22.103  0.00  0.00    +0.000 OA
BRANCH  18  20
ATOM     20  O   UNL     1       0.271   3.173  20.199  0.00  0.00    +0.000 OA
ATOM     21  H   UNL     1       0.526   3.783  19.474  0.00  0.00    +0.000 HD
ENDBRANCH  18  20
ENDBRANCH   3  18
TORSDOF 2
ENDMDL
MODEL 3
REMARK VINA RESULT:      -7.8      3.347      6.016
REMARK  Name = 
REMARK  3 active torsions:
REMARK  status: ('A' for Active; 'I' for Inactive)
REMARK    1  A    between atoms: C_1  and  C_2
REMARK    2  A    between atoms: C_3  and  C_4
REMARK    3  A    between atoms: C_4  and  O_6
REMARK                            x       y       z     vdW  Elec       q    Type
REMARK                         _______ _______ _______ _____ _____    ______ ____
ROOT
ATOM      1  C   UNL     1       2.227   5.541  18.258  0.00  0.00    +0.000 C 
ATOM      2  C   UNL     1       2.826   4.257  18.697  0.00  0.00    +0.000 A 
ATOM      3  C   UNL     1       2.266   3.063  19.121  0.00  0.00    +0.000 A 
ATOM      4  N   UNL     1       3.267   2.200  19.491  0.00  0.00    +0.000 NA
ATOM      5  N   UNL     1       4.426   2.813  19.327  0.00  0.00    +0.000 NA
ATOM      6  N   UNL     1       4.192   4.060  18.833  0.00  0.00    +0.000 N 
ATOM      7  C   UNL     1       5.275   4.924  18.564  0.00  0.00    +0.000 A 
ATOM      8  N   UNL     1       5.172   6.016  17.868  0.00  0.00    +0.000 NA
ATOM      9  N   UNL     1       6.328   6.723  17.832  0.00  0.00    +0.000 N 
ATOM     10  C   UNL     1       6.622   7.776  17.009  0.00  0.00    +0.000 A 
ATOM     11  C   UNL     1       7.857   8.274  17.379  0.00  0.00    +0.000 A 
ATOM     12  C   UNL     1       8.322   7.490  18.464  0.00  0.00    +0.000 A 
ATOM     13  C   UNL     1       7.390   6.496  18.661  0.00  0.00    +0.000 A 
ATOM     14  C   UNL     1       7.338   5.384  19.548  0.00  0.00    +0.000 A 
ATOM     15  O   UNL     1       7.981   5.273  20.584  0.00  0.00    +0.000 OA
ATOM     16  N   UNL     1       6.432   4.442  19.135  0.00  0.00    +0.000 N 
ATOM     17  H   UNL     1       6.897   3.872  18.433  0.00  0.00    +0.000 HD
ENDROOT
BRANCH   3  18
ATOM     18  C   UNL     1       0.868   2.670  19.220  0.00  0.00    +0.000 C 
ATOM     19  O   UNL     1       0.253   2.050  18.369  0.00  0.00    +0.000 OA
BRANCH  18  20
ATOM     20  O   UNL     1       0.295   3.047  20.404  0.00  0.00    +0.000 OA
ATOM     21  H   UNL     1       0.665   2.512  21.140  0.00  0.00    +0.000 HD
ENDBRANCH  18  20
ENDBRANCH   3  18
TORSDOF 2
ENDMDL
MODEL 4
REMARK VINA RESULT:      -7.2      1.982      6.297
REMARK  Name = 
REMARK  3 active torsions:
REMARK  status: ('A' for Active; 'I' for Inactive)
REMARK    1  A    between atoms: C_1  and  C_2
REMARK    2  A    between atoms: C_3  and  C_4
REMARK    3  A    between atoms: C_4  and  O_6
REMARK                            x       y       z     vdW  Elec       q    Type
REMARK                         _______ _______ _______ _____ _____    ______ ____
ROOT
ATOM      1  C   UNL     1       2.223   3.548  17.324  0.00  0.00    +0.000 C 
ATOM      2  C   UNL     1       3.209   3.585  18.432  0.00  0.00    +0.000 A 
ATOM      3  C   UNL     1       3.071   3.506  19.808  0.00  0.00    +0.000 A 
ATOM      4  N   UNL     1       4.300   3.669  20.397  0.00  0.00    +0.000 NA
ATOM      5  N   UNL     1       5.195   3.858  19.444  0.00  0.00    +0.000 NA
ATOM      6  N   UNL     1       4.566   3.800  18.238  0.00  0.00    +0.000 N 
ATOM      7  C   UNL     1       5.307   3.969  17.050  0.00  0.00    +0.000 A 
ATOM      8  N   UNL     1       4.851   3.682  15.867  0.00  0.00    +0.000 NA
ATOM      9  N   UNL     1       5.714   4.023  14.879  0.00  0.00    +0.000 N 
ATOM     10  C   UNL     1       5.646   3.652  13.563  0.00  0.00    +0.000 A 
ATOM     11  C   UNL     1       6.653   4.307  12.881  0.00  0.00    +0.000 A 
ATOM     12  C   UNL     1       7.353   5.103  13.823  0.00  0.00    +0.000 A 
ATOM     13  C   UNL     1       6.796   4.839  15.054  0.00  0.00    +0.000 A 
ATOM     14  C   UNL     1       7.113   5.279  16.370  0.00  0.00    +0.000 A 
ATOM     15  O   UNL     1       7.762   6.279  16.647  0.00  0.00    +0.000 OA
ATOM     16  N   UNL     1       6.561   4.466  17.327  0.00  0.00    +0.000 N 
ATOM     17  H   UNL     1       7.183   3.669  17.434  0.00  0.00    +0.000 HD
ENDROOT
BRANCH   3  18
ATOM     18  C   UNL     1       1.877   3.304  20.616  0.00  0.00    +0.000 C 
ATOM     19  O   UNL     1       0.738   3.551  20.257  0.00  0.00    +0.000 OA
BRANCH  18  20
ATOM     20  O   UNL     1       2.155   2.770  21.846  0.00  0.00    +0.000 OA
ATOM     21  H   UNL     1       1.628   1.953  21.982  0.00  0.00    +0.000 HD
ENDBRANCH  18  20
ENDBRANCH   3  18
TORSDOF 2
ENDMDL
MODEL 5
REMARK VINA RESULT:      -7.1      1.061      1.306
REMARK  Name = 
REMARK  3 active torsions:
REMARK  status: ('A' for Active; 'I' for Inactive)
REMARK    1  A    between atoms: C_1  and  C_2
REMARK    2  A    between atoms: C_3  and  C_4
REMARK    3  A    between atoms: C_4  and  O_6
REMARK                            x       y       z     vdW  Elec       q    Type
REMARK                         _______ _______ _______ _____ _____    ______ ____
ROOT
ATOM      1  C   UNL     1       4.698   3.869  14.050  0.00  0.00    +0.000 C 
ATOM      2  C   UNL     1       5.793   4.412  14.891  0.00  0.00    +0.000 A 
ATOM      3  C   UNL     1       7.057   4.889  14.585  0.00  0.00    +0.000 A 
ATOM      4  N   UNL     1       7.715   5.207  15.746  0.00  0.00    +0.000 NA
ATOM      5  N   UNL     1       6.917   4.936  16.764  0.00  0.00    +0.000 NA
ATOM      6  N   UNL     1       5.736   4.463  16.277  0.00  0.00    +0.000 N 
ATOM      7  C   UNL     1       4.704   4.100  17.166  0.00  0.00    +0.000 A 
ATOM      8  N   UNL     1       3.476   3.885  16.798  0.00  0.00    +0.000 NA
ATOM      9  N   UNL     1       2.694   3.455  17.819  0.00  0.00    +0.000 N 
ATOM     10  C   UNL     1       1.328   3.365  17.826  0.00  0.00    +0.000 A 
ATOM     11  C   UNL     1       0.946   2.775  19.016  0.00  0.00    +0.000 A 
ATOM     12  C   UNL     1       2.126   2.501  19.752  0.00  0.00    +0.000 A 
ATOM     13  C   UNL     1       3.175   3.007  19.016  0.00  0.00    +0.000 A 
ATOM     14  C   UNL     1       4.574   3.092  19.265  0.00  0.00    +0.000 A 
ATOM     15  O   UNL     1       5.194   2.408  20.068  0.00  0.00    +0.000 OA
ATOM     16  N   UNL     1       5.181   4.017  18.456  0.00  0.00    +0.000 N 
ATOM     17  H   UNL     1       5.040   4.927  18.886  0.00  0.00    +0.000 HD
ENDROOT
BRANCH   3  18
ATOM     18  C   UNL     1       7.703   5.058  13.291  0.00  0.00    +0.000 C 
ATOM     19  O   UNL     1       7.388   4.473  12.270  0.00  0.00    +0.000 OA
BRANCH  18  20
ATOM     20  O   UNL     1       8.712   5.983  13.321  0.00  0.00    +0.000 OA
ATOM     21  H   UNL     1       9.577   5.531  13.425  0.00  0.00    +0.000 HD
ENDBRANCH  18  20
ENDBRANCH   3  18
TORSDOF 2
ENDMDL
MODEL 6
REMARK VINA RESULT:      -7.1      2.619      2.881
REMARK  Name = 
REMARK  3 active torsions:
REMARK  status: ('A' for Active; 'I' for Inactive)
REMARK    1  A    between atoms: C_1  and  C_2
REMARK    2  A    between atoms: C_3  and  C_4
REMARK    3  A    between atoms: C_4  and  O_6
REMARK                            x       y       z     vdW  Elec       q    Type
REMARK                         _______ _______ _______ _____ _____    ______ ____
ROOT
ATOM      1  C   UNL     1       4.761   6.876  17.466  0.00  0.00    +0.000 C 
ATOM      2  C   UNL     1       5.830   6.174  18.218  0.00  0.00    +0.000 A 
ATOM      3  C   UNL     1       7.176   6.448  18.401  0.00  0.00    +0.000 A 
ATOM      4  N   UNL     1       7.749   5.435  19.130  0.00  0.00    +0.000 NA
ATOM      5  N   UNL     1       6.817   4.537  19.396  0.00  0.00    +0.000 NA
ATOM      6  N   UNL     1       5.638   4.963  18.867  0.00  0.00    +0.000 N 
ATOM      7  C   UNL     1       4.475   4.178  19.017  0.00  0.00    +0.000 A 
ATOM      8  N   UNL     1       3.274   4.612  18.774  0.00  0.00    +0.000 NA
ATOM      9  N   UNL     1       2.335   3.642  18.898  0.00  0.00    +0.000 N 
ATOM     10  C   UNL     1       0.978   3.813  18.941  0.00  0.00    +0.000 A 
ATOM     11  C   UNL     1       0.390   2.562  18.959  0.00  0.00    +0.000 A 
ATOM     12  C   UNL     1       1.434   1.603  18.926  0.00  0.00    +0.000 A 
ATOM     13  C   UNL     1       2.617   2.307  18.969  0.00  0.00    +0.000 A 
ATOM     14  C   UNL     1       3.980   1.899  19.028  0.00  0.00    +0.000 A 
ATOM     15  O   UNL     1       4.405   0.798  18.705  0.00  0.00    +0.000 OA
ATOM     16  N   UNL     1       4.798   2.913  19.455  0.00  0.00    +0.000 N 
ATOM     17  H   UNL     1       4.749   2.927  20.470  0.00  0.00    +0.000 HD
ENDROOT
BRANCH   3  18
ATOM     18  C   UNL     1       7.972   7.575  17.938  0.00  0.00    +0.000 C 
ATOM     19  O   UNL     1       7.955   8.024  16.805  0.00  0.00    +0.000 OA
BRANCH  18  20
ATOM     20  O   UNL     1       8.744   8.121  18.928  0.00  0.00    +0.000 OA
ATOM     21  H   UNL     1       8.625   9.095  18.946  0.00  0.00    +0.000 HD
ENDBRANCH  18  20
ENDBRANCH   3  18
TORSDOF 2
ENDMDL
MODEL 7
REMARK VINA RESULT:      -7.0      1.453      1.509
REMARK  Name = 
REMARK  3 active torsions:
REMARK  status: ('A' for Active; 'I' for Inactive)
REMARK    1  A    between atoms: C_1  and  C_2
REMARK    2  A    between atoms: C_3  and  C_4
REMARK    3  A    between atoms: C_4  and  O_6
REMARK                            x       y       z     vdW  Elec       q    Type
REMARK                         _______ _______ _______ _____ _____    ______ ____
ROOT
ATOM      1  C   UNL     1       4.834   6.275  15.249  0.00  0.00    +0.000 C 
ATOM      2  C   UNL     1       5.956   5.470  15.791  0.00  0.00    +0.000 A 
ATOM      3  C   UNL     1       7.125   4.996  15.219  0.00  0.00    +0.000 A 
ATOM      4  N   UNL     1       7.800   4.228  16.135  0.00  0.00    +0.000 NA
ATOM      5  N   UNL     1       7.091   4.196  17.250  0.00  0.00    +0.000 NA
ATOM      6  N   UNL     1       5.972   4.951  17.077  0.00  0.00    +0.000 N 
ATOM      7  C   UNL     1       5.043   5.083  18.130  0.00  0.00    +0.000 A 
ATOM      8  N   UNL     1       4.092   5.969  18.149  0.00  0.00    +0.000 NA
ATOM      9  N   UNL     1       3.272   5.832  19.219  0.00  0.00    +0.000 N 
ATOM     10  C   UNL     1       2.334   6.727  19.656  0.00  0.00    +0.000 A 
ATOM     11  C   UNL     1       1.646   6.148  20.705  0.00  0.00    +0.000 A 
ATOM     12  C   UNL     1       2.192   4.855  20.907  0.00  0.00    +0.000 A 
ATOM     13  C   UNL     1       3.243   4.729  20.026  0.00  0.00    +0.000 A 
ATOM     14  C   UNL     1       4.201   3.699  19.808  0.00  0.00    +0.000 A 
ATOM     15  O   UNL     1       4.074   2.530  20.148  0.00  0.00    +0.000 OA
ATOM     16  N   UNL     1       5.294   4.155  19.117  0.00  0.00    +0.000 N 
ATOM     17  H   UNL     1       5.910   4.597  19.794  0.00  0.00    +0.000 HD
ENDROOT
BRANCH   3  18
ATOM     18  C   UNL     1       7.655   5.192  13.877  0.00  0.00    +0.000 C 
ATOM     19  O   UNL     1       8.615   5.891  13.599  0.00  0.00    +0.000 OA
BRANCH  18  20
ATOM     20  O   UNL     1       6.974   4.477  12.929  0.00  0.00    +0.000 OA
ATOM     21  H   UNL     1       6.375   3.832  13.363  0.00  0.00    +0.000 HD
ENDBRANCH  18  20
ENDBRANCH   3  18
TORSDOF 2
ENDMDL
MODEL 8
REMARK VINA RESULT:      -7.0      5.152      6.382
REMARK  Name = 
REMARK  3 active torsions:
REMARK  status: ('A' for Active; 'I' for Inactive)
REMARK    1  A    between atoms: C_1  and  C_2
REMARK    2  A    between atoms: C_3  and  C_4
REMARK    3  A    between atoms: C_4  and  O_6
REMARK                            x       y       z     vdW  Elec       q    Type
REMARK                         _______ _______ _______ _____ _____    ______ ____
ROOT
ATOM      1  C   UNL     1       0.832   8.746  21.002  0.00  0.00    +0.000 C 
ATOM      2  C   UNL     1       1.415   8.894  19.646  0.00  0.00    +0.000 A 
ATOM      3  C   UNL     1       1.522   9.978  18.789  0.00  0.00    +0.000 A 
ATOM      4  N   UNL     1       2.084   9.566  17.607  0.00  0.00    +0.000 NA
ATOM      5  N   UNL     1       2.320   8.269  17.688  0.00  0.00    +0.000 NA
ATOM      6  N   UNL     1       1.936   7.833  18.920  0.00  0.00    +0.000 N 
ATOM      7  C   UNL     1       2.088   6.474  19.264  0.00  0.00    +0.000 A 
ATOM      8  N   UNL     1       1.991   6.020  20.478  0.00  0.00    +0.000 NA
ATOM      9  N   UNL     1       2.078   4.669  20.538  0.00  0.00    +0.000 N 
ATOM     10  C   UNL     1       2.247   3.905  21.661  0.00  0.00    +0.000 A 
ATOM     11  C   UNL     1       2.171   2.576  21.290  0.00  0.00    +0.000 A 
ATOM     12  C   UNL     1       1.947   2.540  19.890  0.00  0.00    +0.000 A 
ATOM     13  C   UNL     1       1.977   3.845  19.452  0.00  0.00    +0.000 A 
ATOM     14  C   UNL     1       1.883   4.431  18.158  0.00  0.00    +0.000 A 
ATOM     15  O   UNL     1       1.405   3.891  17.169  0.00  0.00    +0.000 OA
ATOM     16  N   UNL     1       2.355   5.717  18.144  0.00  0.00    +0.000 N 
ATOM     17  H   UNL     1       3.366   5.661  18.054  0.00  0.00    +0.000 HD
ENDROOT
BRANCH   3  18
ATOM     18  C   UNL     1       1.127  11.365  18.984  0.00  0.00    +0.000 C 
ATOM     19  O   UNL     1       1.571  12.105  19.845  0.00  0.00    +0.000 OA
BRANCH  18  20
ATOM     20  O   UNL     1       0.201  11.786  18.067  0.00  0.00    +0.000 OA
ATOM     21  H   UNL     1       0.150  12.766  18.070  0.00  0.00    +0.000 HD
ENDBRANCH  18  20
ENDBRANCH   3  18
TORSDOF 2
ENDMDL
MODEL 9
REMARK VINA RESULT:      -6.8      4.405      6.480
REMARK  Name = 
REMARK  3 active torsions:
REMARK  status: ('A' for Active; 'I' for Inactive)
REMARK    1  A    between atoms: C_1  and  C_2
REMARK    2  A    between atoms: C_3  and  C_4
REMARK    3  A    between atoms: C_4  and  O_6
REMARK                            x       y       z     vdW  Elec       q    Type
REMARK                         _______ _______ _______ _____ _____    ______ ____
ROOT
ATOM      1  C   UNL     1       2.295   4.870  17.541  0.00  0.00    +0.000 C 
ATOM      2  C   UNL     1       2.414   4.559  18.987  0.00  0.00    +0.000 A 
ATOM      3  C   UNL     1       2.616   3.373  19.672  0.00  0.00    +0.000 A 
ATOM      4  N   UNL     1       2.572   3.617  21.023  0.00  0.00    +0.000 NA
ATOM      5  N   UNL     1       2.339   4.904  21.204  0.00  0.00    +0.000 NA
ATOM      6  N   UNL     1       2.250   5.507  19.987  0.00  0.00    +0.000 N 
ATOM      7  C   UNL     1       2.006   6.894  19.905  0.00  0.00    +0.000 A 
ATOM      8  N   UNL     1       2.155   7.590  18.818  0.00  0.00    +0.000 NA
ATOM      9  N   UNL     1       1.766   8.880  18.967  0.00  0.00    +0.000 N 
ATOM     10  C   UNL     1       2.006   9.917  18.107  0.00  0.00    +0.000 A 
ATOM     11  C   UNL     1       1.340  11.030  18.583  0.00  0.00    +0.000 A 
ATOM     12  C   UNL     1       0.674  10.648  19.774  0.00  0.00    +0.000 A 
ATOM     13  C   UNL     1       1.026   9.340  20.020  0.00  0.00    +0.000 A 
ATOM     14  C   UNL     1       0.731   8.446  21.088  0.00  0.00    +0.000 A 
ATOM     15  O   UNL     1      -0.205   8.560  21.869  0.00  0.00    +0.000 OA
ATOM     16  N   UNL     1       1.601   7.388  21.125  0.00  0.00    +0.000 N 
ATOM     17  H   UNL     1       2.435   7.707  21.610  0.00  0.00    +0.000 HD
ENDROOT
BRANCH   3  18
ATOM     18  C   UNL     1       2.833   2.025  19.165  0.00  0.00    +0.000 C 
ATOM     19  O   UNL     1       3.922   1.491  19.043  0.00  0.00    +0.000 OA
BRANCH  18  20
ATOM     20  O   UNL     1       1.665   1.383  18.854  0.00  0.00    +0.000 OA
ATOM     21  H   UNL     1       1.617   0.527  19.332  0.00  0.00    +0.000 HD
ENDBRANCH  18  20
ENDBRANCH   3  18
TORSDOF 2
ENDMDL
