MODEL 1
REMARK VINA RESULT:      -6.8      0.000      0.000
REMARK  Name = 
REMARK  5 active torsions:
REMARK  status: ('A' for Active; 'I' for Inactive)
REMARK    1  A    between atoms: C_1  and  N_2
REMARK    2  A    between atoms: N_2  and  C_3
REMARK    3  A    between atoms: N_2  and  S_17
REMARK    4  A    between atoms: C_6  and  C_7
REMARK    5  A    between atoms: S_17  and  C_18
REMARK                            x       y       z     vdW  Elec       q    Type
REMARK                         _______ _______ _______ _____ _____    ______ ____
ROOT
ATOM      1  C   UNL     1       1.079   9.453  19.118  0.00  0.00    +0.000 A 
ATOM      2  C   UNL     1       1.691   9.093  17.918  0.00  0.00    +0.000 A 
ATOM      3  C   UNL     1       2.433   7.910  17.848  0.00  0.00    +0.000 A 
ATOM      4  C   UNL     1       2.591   7.098  18.981  0.00  0.00    +0.000 A 
ATOM      5  C   UNL     1       2.028   7.513  20.195  0.00  0.00    +0.000 A 
ATOM      6  C   UNL     1       1.241   8.664  20.253  0.00  0.00    +0.000 A 
ENDROOT
BRANCH   4   7
ATOM      7  C   UNL     1       3.452   5.887  18.877  0.00  0.00    +0.000 C 
ATOM      8  O   UNL     1       4.621   6.069  18.531  0.00  0.00    +0.000 OA
ATOM      9  N   UNL     1       2.949   4.616  19.172  0.00  0.00    +0.000 N 
ATOM     10  C   UNL     1       3.901   3.520  19.361  0.00  0.00    +0.000 C 
ATOM     11  C   UNL     1       3.517   2.291  18.542  0.00  0.00    +0.000 C 
ATOM     12  C   UNL     1       2.076   1.873  18.820  0.00  0.00    +0.000 C 
ATOM     13  C   UNL     1       1.131   3.040  18.576  0.00  0.00    +0.000 C 
ATOM     14  C   UNL     1       1.541   4.269  19.379  0.00  0.00    +0.000 C 
ENDBRANCH   4   7
BRANCH   1  16
ATOM     15  C   UNL     1      -1.072  10.698  18.988  0.00  0.00    +0.000 C 
ATOM     16  N   UNL     1       0.369  10.677  19.237  0.00  0.00    +0.000 N 
BRANCH  16  17
ATOM     17  S   UNL     1       1.158  12.070  19.750  0.00  0.00    +0.000 S 
ATOM     18  C   UNL     1      -0.113  13.299  19.539  0.00  0.00    +0.000 C 
ATOM     19  O   UNL     1       1.447  11.973  21.164  0.00  0.00    +0.000 OA
ATOM     20  O   UNL     1       2.200  12.365  18.793  0.00  0.00    +0.000 OA
ENDBRANCH  16  17
ENDBRANCH   1  16
TORSDOF 3
ENDMDL
MODEL 2
REMARK VINA RESULT:      -6.8      4.808      6.902
REMARK  Name = 
REMARK  5 active torsions:
REMARK  status: ('A' for Active; 'I' for Inactive)
REMARK    1  A    between atoms: C_1  and  N_2
REMARK    2  A    between atoms: N_2  and  C_3
REMARK    3  A    between atoms: N_2  and  S_17
REMARK    4  A    between atoms: C_6  and  C_7
REMARK    5  A    between atoms: S_17  and  C_18
REMARK                            x       y       z     vdW  Elec       q    Type
REMARK                         _______ _______ _______ _____ _____    ______ ____
ROOT
ATOM      1  C   UNL     1       3.561   4.685  19.120  0.00  0.00    +0.000 A 
ATOM      2  C   UNL     1       3.225   5.496  18.037  0.00  0.00    +0.000 A 
ATOM      3  C   UNL     1       4.181   5.771  17.055  0.00  0.00    +0.000 A 
ATOM      4  C   UNL     1       5.484   5.261  17.166  0.00  0.00    +0.000 A 
ATOM      5  C   UNL     1       5.823   4.507  18.297  0.00  0.00    +0.000 A 
ATOM      6  C   UNL     1       4.855   4.186  19.249  0.00  0.00    +0.000 A 
ENDROOT
BRANCH   4   7
ATOM      7  C   UNL     1       6.489   5.643  16.134  0.00  0.00    +0.000 C 
ATOM      8  O   UNL     1       7.101   6.696  16.323  0.00  0.00    +0.000 OA
ATOM      9  N   UNL     1       6.723   4.830  15.020  0.00  0.00    +0.000 N 
ATOM     10  C   UNL     1       7.922   5.082  14.218  0.00  0.00    +0.000 C 
ATOM     11  C   UNL     1       7.599   5.167  12.729  0.00  0.00    +0.000 C 
ATOM     12  C   UNL     1       6.827   3.936  12.263  0.00  0.00    +0.000 C 
ATOM     13  C   UNL     1       5.577   3.744  13.110  0.00  0.00    +0.000 C 
ATOM     14  C   UNL     1       5.911   3.687  14.596  0.00  0.00    +0.000 C 
ENDBRANCH   4   7
BRANCH   1  16
ATOM     15  C   UNL     1       1.831   5.542  20.690  0.00  0.00    +0.000 C 
ATOM     16  N   UNL     1       2.631   4.436  20.164  0.00  0.00    +0.000 N 
BRANCH  16  17
ATOM     17  S   UNL     1       2.381   2.871  20.726  0.00  0.00    +0.000 S 
ATOM     18  C   UNL     1       2.067   1.994  19.209  0.00  0.00    +0.000 C 
ATOM     19  O   UNL     1       3.610   2.355  21.288  0.00  0.00    +0.000 OA
ATOM     20  O   UNL     1       1.151   2.866  21.484  0.00  0.00    +0.000 OA
ENDBRANCH  16  17
ENDBRANCH   1  16
TORSDOF 3
ENDMDL
MODEL 3
REMARK VINA RESULT:      -6.7      1.534      1.729
REMARK  Name = 
REMARK  5 active torsions:
REMARK  status: ('A' for Active; 'I' for Inactive)
REMARK    1  A    between atoms: C_1  and  N_2
REMARK    2  A    between atoms: N_2  and  C_3
REMARK    3  A    between atoms: N_2  and  S_17
REMARK    4  A    between atoms: C_6  and  C_7
REMARK    5  A    between atoms: S_17  and  C_18
REMARK                            x       y       z     vdW  Elec       q    Type
REMARK                         _______ _______ _______ _____ _____    ______ ____
ROOT
ATOM      1  C   UNL     1       1.387   9.452  18.917  0.00  0.00    +0.000 A 
ATOM      2  C   UNL     1       2.098   8.958  17.824  0.00  0.00    +0.000 A 
ATOM      3  C   UNL     1       2.729   7.714  17.915  0.00  0.00    +0.000 A 
ATOM      4  C   UNL     1       2.677   6.973  19.105  0.00  0.00    +0.000 A 
ATOM      5  C   UNL     1       2.018   7.517  20.214  0.00  0.00    +0.000 A 
ATOM      6  C   UNL     1       1.341   8.732  20.108  0.00  0.00    +0.000 A 
ENDROOT
BRANCH   4   7
ATOM      7  C   UNL     1       3.429   5.688  19.177  0.00  0.00    +0.000 C 
ATOM      8  O   UNL     1       4.649   5.752  19.019  0.00  0.00    +0.000 OA
ATOM      9  N   UNL     1       2.769   4.480  19.427  0.00  0.00    +0.000 N 
ATOM     10  C   UNL     1       3.574   3.315  19.801  0.00  0.00    +0.000 C 
ATOM     11  C   UNL     1       3.211   2.088  18.969  0.00  0.00    +0.000 C 
ATOM     12  C   UNL     1       1.712   1.809  19.024  0.00  0.00    +0.000 C 
ATOM     13  C   UNL     1       0.930   3.043  18.596  0.00  0.00    +0.000 C 
ATOM     14  C   UNL     1       1.320   4.266  19.416  0.00  0.00    +0.000 C 
ENDBRANCH   4   7
BRANCH   1  16
ATOM     15  C   UNL     1       1.630  11.920  18.708  0.00  0.00    +0.000 C 
ATOM     16  N   UNL     1       0.785  10.738  18.876  0.00  0.00    +0.000 N 
BRANCH  16  17
ATOM     17  S   UNL     1      -0.888  10.895  18.926  0.00  0.00    +0.000 S 
ATOM     18  C   UNL     1      -1.118  12.493  18.175  0.00  0.00    +0.000 C 
ATOM     19  O   UNL     1      -1.495   9.909  18.059  0.00  0.00    +0.000 OA
ATOM     20  O   UNL     1      -1.278  11.015  20.312  0.00  0.00    +0.000 OA
ENDBRANCH  16  17
ENDBRANCH   1  16
TORSDOF 3
ENDMDL
MODEL 4
REMARK VINA RESULT:      -6.7      1.036      1.589
REMARK  Name = 
REMARK  5 active torsions:
REMARK  status: ('A' for Active; 'I' for Inactive)
REMARK    1  A    between atoms: C_1  and  N_2
REMARK    2  A    between atoms: N_2  and  C_3
REMARK    3  A    between atoms: N_2  and  S_17
REMARK    4  A    between atoms: C_6  and  C_7
REMARK    5  A    between atoms: S_17  and  C_18
REMARK                            x       y       z     vdW  Elec       q    Type
REMARK                         _______ _______ _______ _____ _____    ______ ____
ROOT
ATOM      1  C   UNL     1       0.813   9.542  19.471  0.00  0.00    +0.000 A 
ATOM      2  C   UNL     1       1.227   8.577  20.388  0.00  0.00    +0.000 A 
ATOM      3  C   UNL     1       2.116   7.576  19.985  0.00  0.00    +0.000 A 
ATOM      4  C   UNL     1       2.571   7.518  18.659  0.00  0.00    +0.000 A 
ATOM      5  C   UNL     1       2.089   8.454  17.735  0.00  0.00    +0.000 A 
ATOM      6  C   UNL     1       1.246   9.486  18.149  0.00  0.00    +0.000 A 
ENDROOT
BRANCH   4   7
ATOM      7  C   UNL     1       3.458   6.389  18.259  0.00  0.00    +0.000 C 
ATOM      8  O   UNL     1       4.504   6.688  17.680  0.00  0.00    +0.000 OA
ATOM      9  N   UNL     1       3.113   5.065  18.545  0.00  0.00    +0.000 N 
ATOM     10  C   UNL     1       4.148   4.036  18.420  0.00  0.00    +0.000 C 
ATOM     11  C   UNL     1       3.663   2.843  17.601  0.00  0.00    +0.000 C 
ATOM     12  C   UNL     1       2.351   2.294  18.154  0.00  0.00    +0.000 C 
ATOM     13  C   UNL     1       1.307   3.398  18.231  0.00  0.00    +0.000 C 
ATOM     14  C   UNL     1       1.813   4.594  19.028  0.00  0.00    +0.000 C 
ENDBRANCH   4   7
BRANCH   1  16
ATOM     15  C   UNL     1      -1.344  10.702  19.027  0.00  0.00    +0.000 C 
ATOM     16  N   UNL     1      -0.135  10.535  19.833  0.00  0.00    +0.000 N 
BRANCH  16  17
ATOM     17  S   UNL     1       0.082  11.448  21.229  0.00  0.00    +0.000 S 
ATOM     18  C   UNL     1      -1.002  12.827  20.925  0.00  0.00    +0.000 C 
ATOM     19  O   UNL     1      -0.435  10.724  22.369  0.00  0.00    +0.000 OA
ATOM     20  O   UNL     1       1.434  11.957  21.216  0.00  0.00    +0.000 OA
ENDBRANCH  16  17
ENDBRANCH   1  16
TORSDOF 3
ENDMDL
MODEL 5
REMARK VINA RESULT:      -6.7      1.640      1.789
REMARK  Name = 
REMARK  5 active torsions:
REMARK  status: ('A' for Active; 'I' for Inactive)
REMARK    1  A    between atoms: C_1  and  N_2
REMARK    2  A    between atoms: N_2  and  C_3
REMARK    3  A    between atoms: N_2  and  S_17
REMARK    4  A    between atoms: C_6  and  C_7
REMARK    5  A    between atoms: S_17  and  C_18
REMARK                            x       y       z     vdW  Elec       q    Type
REMARK                         _______ _______ _______ _____ _____    ______ ____
ROOT
ATOM      1  C   UNL     1       1.000   9.718  19.341  0.00  0.00    +0.000 A 
ATOM      2  C   UNL     1       1.548   9.635  18.062  0.00  0.00    +0.000 A 
ATOM      3  C   UNL     1       2.306   8.515  17.707  0.00  0.00    +0.000 A 
ATOM      4  C   UNL     1       2.544   7.490  18.635  0.00  0.00    +0.000 A 
ATOM      5  C   UNL     1       2.044   7.626  19.937  0.00  0.00    +0.000 A 
ATOM      6  C   UNL     1       1.242   8.716  20.276  0.00  0.00    +0.000 A 
ENDROOT
BRANCH   4   7
ATOM      7  C   UNL     1       3.420   6.354  18.234  0.00  0.00    +0.000 C 
ATOM      8  O   UNL     1       4.454   6.641  17.629  0.00  0.00    +0.000 OA
ATOM      9  N   UNL     1       3.078   5.034  18.548  0.00  0.00    +0.000 N 
ATOM     10  C   UNL     1       4.109   4.001  18.417  0.00  0.00    +0.000 C 
ATOM     11  C   UNL     1       3.605   2.797  17.627  0.00  0.00    +0.000 C 
ATOM     12  C   UNL     1       2.303   2.259  18.214  0.00  0.00    +0.000 C 
ATOM     13  C   UNL     1       1.262   3.367  18.296  0.00  0.00    +0.000 C 
ATOM     14  C   UNL     1       1.788   4.573  19.064  0.00  0.00    +0.000 C 
ENDBRANCH   4   7
BRANCH   1  16
ATOM     15  C   UNL     1       0.800  11.697  20.837  0.00  0.00    +0.000 C 
ATOM     16  N   UNL     1       0.276  10.870  19.751  0.00  0.00    +0.000 N 
BRANCH  16  17
ATOM     17  S   UNL     1      -1.121  11.330  18.936  0.00  0.00    +0.000 S 
ATOM     18  C   UNL     1      -2.053  12.110  20.237  0.00  0.00    +0.000 C 
ATOM     19  O   UNL     1      -0.799  12.344  17.955  0.00  0.00    +0.000 OA
ATOM     20  O   UNL     1      -1.831  10.128  18.564  0.00  0.00    +0.000 OA
ENDBRANCH  16  17
ENDBRANCH   1  16
TORSDOF 3
ENDMDL
MODEL 6
REMARK VINA RESULT:      -6.7      0.248      1.108
REMARK  Name = 
REMARK  5 active torsions:
REMARK  status: ('A' for Active; 'I' for Inactive)
REMARK    1  A    between atoms: C_1  and  N_2
REMARK    2  A    between atoms: N_2  and  C_3
REMARK    3  A    between atoms: N_2  and  S_17
REMARK    4  A    between atoms: C_6  and  C_7
REMARK    5  A    between atoms: S_17  and  C_18
REMARK                            x       y       z     vdW  Elec       q    Type
REMARK                         _______ _______ _______ _____ _____    ______ ____
ROOT
ATOM      1  C   UNL     1       1.163   9.338  19.182  0.00  0.00    +0.000 A 
ATOM      2  C   UNL     1       1.332   8.514  20.294  0.00  0.00    +0.000 A 
ATOM      3  C   UNL     1       2.128   7.369  20.192  0.00  0.00    +0.000 A 
ATOM      4  C   UNL     1       2.732   7.027  18.973  0.00  0.00    +0.000 A 
ATOM      5  C   UNL     1       2.492   7.828  17.849  0.00  0.00    +0.000 A 
ATOM      6  C   UNL     1       1.745   9.000  17.963  0.00  0.00    +0.000 A 
ENDROOT
BRANCH   4   7
ATOM      7  C   UNL     1       3.508   5.757  18.894  0.00  0.00    +0.000 C 
ATOM      8  O   UNL     1       4.687   5.852  18.547  0.00  0.00    +0.000 OA
ATOM      9  N   UNL     1       2.918   4.530  19.213  0.00  0.00    +0.000 N 
ATOM     10  C   UNL     1       3.793   3.375  19.425  0.00  0.00    +0.000 C 
ATOM     11  C   UNL     1       3.326   2.159  18.630  0.00  0.00    +0.000 C 
ATOM     12  C   UNL     1       1.860   1.847  18.912  0.00  0.00    +0.000 C 
ATOM     13  C   UNL     1       0.997   3.072  18.644  0.00  0.00    +0.000 C 
ATOM     14  C   UNL     1       1.490   4.285  19.424  0.00  0.00    +0.000 C 
ENDBRANCH   4   7
BRANCH   1  16
ATOM     15  C   UNL     1      -1.089  10.342  18.843  0.00  0.00    +0.000 C 
ATOM     16  N   UNL     1       0.313  10.475  19.238  0.00  0.00    +0.000 N 
BRANCH  16  17
ATOM     17  S   UNL     1       0.887  11.936  19.841  0.00  0.00    +0.000 S 
ATOM     18  C   UNL     1      -0.445  13.041  19.424  0.00  0.00    +0.000 C 
ATOM     19  O   UNL     1       0.969  11.868  21.283  0.00  0.00    +0.000 OA
ATOM     20  O   UNL     1       2.029  12.323  19.043  0.00  0.00    +0.000 OA
ENDBRANCH  16  17
ENDBRANCH   1  16
TORSDOF 3
ENDMDL
MODEL 7
REMARK VINA RESULT:      -6.7      4.867      6.880
REMARK  Name = 
REMARK  5 active torsions:
REMARK  status: ('A' for Active; 'I' for Inactive)
REMARK    1  A    between atoms: C_1  and  N_2
REMARK    2  A    between atoms: N_2  and  C_3
REMARK    3  A    between atoms: N_2  and  S_17
REMARK    4  A    between atoms: C_6  and  C_7
REMARK    5  A    between atoms: S_17  and  C_18
REMARK                            x       y       z     vdW  Elec       q    Type
REMARK                         _______ _______ _______ _____ _____    ______ ____
ROOT
ATOM      1  C   UNL     1       3.782   4.947  19.210  0.00  0.00    +0.000 A 
ATOM      2  C   UNL     1       5.140   5.020  19.518  0.00  0.00    +0.000 A 
ATOM      3  C   UNL     1       6.064   5.298  18.506  0.00  0.00    +0.000 A 
ATOM      4  C   UNL     1       5.640   5.475  17.181  0.00  0.00    +0.000 A 
ATOM      5  C   UNL     1       4.280   5.327  16.879  0.00  0.00    +0.000 A 
ATOM      6  C   UNL     1       3.350   5.106  17.895  0.00  0.00    +0.000 A 
ENDROOT
BRANCH   4   7
ATOM      7  C   UNL     1       6.669   5.694  16.126  0.00  0.00    +0.000 C 
ATOM      8  O   UNL     1       7.432   6.648  16.289  0.00  0.00    +0.000 OA
ATOM      9  N   UNL     1       6.761   4.843  15.020  0.00  0.00    +0.000 N 
ATOM     10  C   UNL     1       7.968   4.908  14.193  0.00  0.00    +0.000 C 
ATOM     11  C   UNL     1       7.631   5.022  12.709  0.00  0.00    +0.000 C 
ATOM     12  C   UNL     1       6.679   3.913  12.274  0.00  0.00    +0.000 C 
ATOM     13  C   UNL     1       5.431   3.915  13.145  0.00  0.00    +0.000 C 
ATOM     14  C   UNL     1       5.782   3.827  14.626  0.00  0.00    +0.000 C 
ENDBRANCH   4   7
BRANCH   1  16
ATOM     15  C   UNL     1       1.911   5.637  20.699  0.00  0.00    +0.000 C 
ATOM     16  N   UNL     1       2.825   4.608  20.203  0.00  0.00    +0.000 N 
BRANCH  16  17
ATOM     17  S   UNL     1       2.680   3.020  20.736  0.00  0.00    +0.000 S 
ATOM     18  C   UNL     1       1.274   2.457  19.800  0.00  0.00    +0.000 C 
ATOM     19  O   UNL     1       3.830   2.256  20.307  0.00  0.00    +0.000 OA
ATOM     20  O   UNL     1       2.281   3.057  22.125  0.00  0.00    +0.000 OA
ENDBRANCH  16  17
ENDBRANCH   1  16
TORSDOF 3
ENDMDL
MODEL 8
REMARK VINA RESULT:      -6.6      3.005      7.204
REMARK  Name = 
REMARK  5 active torsions:
REMARK  status: ('A' for Active; 'I' for Inactive)
REMARK    1  A    between atoms: C_1  and  N_2
REMARK    2  A    between atoms: N_2  and  C_3
REMARK    3  A    between atoms: N_2  and  S_17
REMARK    4  A    between atoms: C_6  and  C_7
REMARK    5  A    between atoms: S_17  and  C_18
REMARK                            x       y       z     vdW  Elec       q    Type
REMARK                         _______ _______ _______ _____ _____    ______ ____
ROOT
ATOM      1  C   UNL     1       2.835   5.644  19.017  0.00  0.00    +0.000 A 
ATOM      2  C   UNL     1       2.868   6.608  18.011  0.00  0.00    +0.000 A 
ATOM      3  C   UNL     1       2.328   7.875  18.250  0.00  0.00    +0.000 A 
ATOM      4  C   UNL     1       1.729   8.175  19.482  0.00  0.00    +0.000 A 
ATOM      5  C   UNL     1       1.643   7.171  20.456  0.00  0.00    +0.000 A 
ATOM      6  C   UNL     1       2.230   5.924  20.239  0.00  0.00    +0.000 A 
ENDROOT
BRANCH   4   7
ATOM      7  C   UNL     1       1.101   9.514  19.663  0.00  0.00    +0.000 C 
ATOM      8  O   UNL     1       1.452  10.398  18.880  0.00  0.00    +0.000 OA
ATOM      9  N   UNL     1       0.152   9.736  20.666  0.00  0.00    +0.000 N 
ATOM     10  C   UNL     1      -0.655  10.956  20.599  0.00  0.00    +0.000 C 
ATOM     11  C   UNL     1      -0.667  11.699  21.932  0.00  0.00    +0.000 C 
ATOM     12  C   UNL     1      -1.088  10.777  23.072  0.00  0.00    +0.000 C 
ATOM     13  C   UNL     1      -0.196   9.545  23.112  0.00  0.00    +0.000 C 
ATOM     14  C   UNL     1      -0.172   8.827  21.768  0.00  0.00    +0.000 C 
ENDBRANCH   4   7
BRANCH   1  16
ATOM     15  C   UNL     1       4.712   4.011  19.109  0.00  0.00    +0.000 C 
ATOM     16  N   UNL     1       3.321   4.329  18.786  0.00  0.00    +0.000 N 
BRANCH  16  17
ATOM     17  S   UNL     1       2.285   3.125  18.234  0.00  0.00    +0.000 S 
ATOM     18  C   UNL     1       1.663   2.463  19.765  0.00  0.00    +0.000 C 
ATOM     19  O   UNL     1       1.175   3.725  17.529  0.00  0.00    +0.000 OA
ATOM     20  O   UNL     1       3.093   2.096  17.621  0.00  0.00    +0.000 OA
ENDBRANCH  16  17
ENDBRANCH   1  16
TORSDOF 3
ENDMDL
MODEL 9
REMARK VINA RESULT:      -6.6      2.584      7.198
REMARK  Name = 
REMARK  5 active torsions:
REMARK  status: ('A' for Active; 'I' for Inactive)
REMARK    1  A    between atoms: C_1  and  N_2
REMARK    2  A    between atoms: N_2  and  C_3
REMARK    3  A    between atoms: N_2  and  S_17
REMARK    4  A    between atoms: C_6  and  C_7
REMARK    5  A    between atoms: S_17  and  C_18
REMARK                            x       y       z     vdW  Elec       q    Type
REMARK                         _______ _______ _______ _____ _____    ______ ____
ROOT
ATOM      1  C   UNL     1       2.539   6.270  19.174  0.00  0.00    +0.000 A 
ATOM      2  C   UNL     1       2.586   7.250  18.185  0.00  0.00    +0.000 A 
ATOM      3  C   UNL     1       2.045   8.514  18.438  0.00  0.00    +0.000 A 
ATOM      4  C   UNL     1       1.429   8.794  19.667  0.00  0.00    +0.000 A 
ATOM      5  C   UNL     1       1.329   7.774  20.622  0.00  0.00    +0.000 A 
ATOM      6  C   UNL     1       1.918   6.530  20.393  0.00  0.00    +0.000 A 
ENDROOT
BRANCH   4   7
ATOM      7  C   UNL     1       0.800  10.131  19.862  0.00  0.00    +0.000 C 
ATOM      8  O   UNL     1       1.166  10.775  20.846  0.00  0.00    +0.000 OA
ATOM      9  N   UNL     1      -0.146  10.621  18.956  0.00  0.00    +0.000 N 
ATOM     10  C   UNL     1      -0.490  12.044  19.015  0.00  0.00    +0.000 C 
ATOM     11  C   UNL     1      -2.000  12.260  19.039  0.00  0.00    +0.000 C 
ATOM     12  C   UNL     1      -2.678  11.538  17.878  0.00  0.00    +0.000 C 
ATOM     13  C   UNL     1      -2.311  10.061  17.888  0.00  0.00    +0.000 C 
ATOM     14  C   UNL     1      -0.800   9.859  17.890  0.00  0.00    +0.000 C 
ENDBRANCH   4   7
BRANCH   1  16
ATOM     15  C   UNL     1       4.446   4.670  19.134  0.00  0.00    +0.000 C 
ATOM     16  N   UNL     1       3.027   4.958  18.927  0.00  0.00    +0.000 N 
BRANCH  16  17
ATOM     17  S   UNL     1       1.968   3.726  18.492  0.00  0.00    +0.000 S 
ATOM     18  C   UNL     1       3.095   2.483  17.897  0.00  0.00    +0.000 C 
ATOM     19  O   UNL     1       1.319   3.203  19.674  0.00  0.00    +0.000 OA
ATOM     20  O   UNL     1       1.200   4.185  17.357  0.00  0.00    +0.000 OA
ENDBRANCH  16  17
ENDBRANCH   1  16
TORSDOF 3
ENDMDL
