MODEL 1
REMARK VINA RESULT:      -7.1      0.000      0.000
REMARK  Name = 
REMARK  11 active torsions:
REMARK  status: ('A' for Active; 'I' for Inactive)
REMARK    1  A    between atoms: C_1  and  O_2
REMARK    2  A    between atoms: O_2  and  C_3
REMARK    3  A    between atoms: C_9  and  C_10
REMARK    4  A    between atoms: C_10  and  C_12
REMARK    5  A    between atoms: C_13  and  O_14
REMARK    6  A    between atoms: N_17  and  C_18
REMARK    7  A    between atoms: C_18  and  C_19
REMARK    8  A    between atoms: C_19  and  N_20
REMARK    9  A    between atoms: N_20  and  C_21
REMARK   10  A    between atoms: N_20  and  C_22
REMARK   11  A    between atoms: C_23  and  C_24
REMARK                            x       y       z     vdW  Elec       q    Type
REMARK                         _______ _______ _______ _____ _____    ______ ____
ROOT
ATOM      1  C   UNL     1       0.173  10.315  21.359  0.00  0.00    +0.000 C 
ATOM      2  C   UNL     1      -0.861  10.746  22.104  0.00  0.00    +0.000 C 
ATOM      3  C   UNL     1      -1.668  11.656  21.253  0.00  0.00    +0.000 C 
ATOM      4  O   UNL     1      -2.666  12.251  21.611  0.00  0.00    +0.000 OA
ATOM      5  N   UNL     1      -1.068  11.683  20.013  0.00  0.00    +0.000 N 
ATOM      6  C   UNL     1       0.175  10.926  19.983  0.00  0.00    +0.000 C 
ENDROOT
BRANCH   6   7
ATOM      7  C   UNL     1       1.334  11.851  19.631  0.00  0.00    +0.000 A 
ATOM      8  C   UNL     1       1.749  12.882  20.495  0.00  0.00    +0.000 A 
ATOM      9  C   UNL     1       2.671  13.843  20.070  0.00  0.00    +0.000 A 
ATOM     10  C   UNL     1       3.196  13.778  18.782  0.00  0.00    +0.000 A 
ATOM     11 CL   UNL     1       4.260  15.012  18.229  0.00  0.00    +0.000 Cl
ATOM     12  C   UNL     1       2.837  12.738  17.928  0.00  0.00    +0.000 A 
ATOM     13  C   UNL     1       1.915  11.777  18.352  0.00  0.00    +0.000 A 
ENDBRANCH   6   7
BRANCH   1  14
ATOM     14  C   UNL     1       1.238   9.348  21.732  0.00  0.00    +0.000 C 
ATOM     15  O   UNL     1       1.820   9.498  22.805  0.00  0.00    +0.000 OA
BRANCH  14  22
ATOM     16  C   UNL     1       1.714   4.737  20.196  0.00  0.00    +0.000 A 
ATOM     17  C   UNL     1       2.048   4.114  18.987  0.00  0.00    +0.000 A 
ATOM     18  C   UNL     1       2.456   4.855  17.876  0.00  0.00    +0.000 A 
ATOM     19  C   UNL     1       2.512   6.254  17.927  0.00  0.00    +0.000 A 
ATOM     20  C   UNL     1       2.134   6.908  19.114  0.00  0.00    +0.000 A 
ATOM     21  C   UNL     1       2.010   8.266  19.520  0.00  0.00    +0.000 A 
ATOM     22  C   UNL     1       1.575   8.261  20.832  0.00  0.00    +0.000 A 
ATOM     23  O   UNL     1       1.441   6.964  21.254  0.00  0.00    +0.000 OA
ATOM     24  C   UNL     1       1.756   6.139  20.211  0.00  0.00    +0.000 A 
BRANCH  16  26
ATOM     25  C   UNL     1       2.130   2.746  21.402  0.00  0.00    +0.000 C 
ATOM     26  O   UNL     1       1.309   3.893  21.214  0.00  0.00    +0.000 OA
ENDBRANCH  16  26
ENDBRANCH  14  22
ENDBRANCH   1  14
BRANCH   2  27
ATOM     27  O   UNL     1      -1.209  10.480  23.397  0.00  0.00    +0.000 OA
ATOM     28  H   UNL     1      -0.859   9.618  23.670  0.00  0.00    +0.000 HD
ENDBRANCH   2  27
BRANCH   5  29
ATOM     29  C   UNL     1      -1.564  12.485  18.900  0.00  0.00    +0.000 C 
BRANCH  29  30
ATOM     30  C   UNL     1      -2.750  11.858  18.139  0.00  0.00    +0.000 C 
BRANCH  30  31
ATOM     31  N   UNL     1      -2.431  10.686  17.299  0.00  0.00    +0.000 NA
ATOM     32  C   UNL     1      -3.209   9.506  17.696  0.00  0.00    +0.000 C 
ATOM     33  C   UNL     1      -2.707  10.996  15.893  0.00  0.00    +0.000 C 
ENDBRANCH  30  31
ENDBRANCH  29  30
ENDBRANCH   5  29
TORSDOF 8
ENDMDL
MODEL 2
REMARK VINA RESULT:      -7.0      1.133      1.905
REMARK  Name = 
REMARK  11 active torsions:
REMARK  status: ('A' for Active; 'I' for Inactive)
REMARK    1  A    between atoms: C_1  and  O_2
REMARK    2  A    between atoms: O_2  and  C_3
REMARK    3  A    between atoms: C_9  and  C_10
REMARK    4  A    between atoms: C_10  and  C_12
REMARK    5  A    between atoms: C_13  and  O_14
REMARK    6  A    between atoms: N_17  and  C_18
REMARK    7  A    between atoms: C_18  and  C_19
REMARK    8  A    between atoms: C_19  and  N_20
REMARK    9  A    between atoms: N_20  and  C_21
REMARK   10  A    between atoms: N_20  and  C_22
REMARK   11  A    between atoms: C_23  and  C_24
REMARK                            x       y       z     vdW  Elec       q    Type
REMARK                         _______ _______ _______ _____ _____    ______ ____
ROOT
ATOM      1  C   UNL     1       0.234  10.210  21.538  0.00  0.00    +0.000 C 
ATOM      2  C   UNL     1      -0.751  10.648  22.344  0.00  0.00    +0.000 C 
ATOM      3  C   UNL     1      -1.619  11.538  21.533  0.00  0.00    +0.000 C 
ATOM      4  O   UNL     1      -2.595  12.134  21.946  0.00  0.00    +0.000 OA
ATOM      5  N   UNL     1      -1.104  11.546  20.255  0.00  0.00    +0.000 N 
ATOM      6  C   UNL     1       0.139  10.796  20.155  0.00  0.00    +0.000 C 
ENDROOT
BRANCH   6   7
ATOM      7  C   UNL     1       1.267  11.721  19.710  0.00  0.00    +0.000 A 
ATOM      8  C   UNL     1       1.684  12.812  20.495  0.00  0.00    +0.000 A 
ATOM      9  C   UNL     1       2.571  13.763  19.982  0.00  0.00    +0.000 A 
ATOM     10  C   UNL     1       3.057  13.629  18.685  0.00  0.00    +0.000 A 
ATOM     11 CL   UNL     1       4.076  14.848  18.022  0.00  0.00    +0.000 Cl
ATOM     12  C   UNL     1       2.695  12.532  17.908  0.00  0.00    +0.000 A 
ATOM     13  C   UNL     1       1.808  11.580  18.420  0.00  0.00    +0.000 A 
ENDBRANCH   6   7
BRANCH   1  14
ATOM     14  C   UNL     1       1.329   9.256  21.857  0.00  0.00    +0.000 C 
ATOM     15  O   UNL     1       2.065   9.501  22.810  0.00  0.00    +0.000 OA
BRANCH  14  22
ATOM     16  C   UNL     1       2.991   6.518  18.171  0.00  0.00    +0.000 A 
ATOM     17  C   UNL     1       2.959   5.157  17.840  0.00  0.00    +0.000 A 
ATOM     18  C   UNL     1       2.239   4.240  18.608  0.00  0.00    +0.000 A 
ATOM     19  C   UNL     1       1.550   4.649  19.757  0.00  0.00    +0.000 A 
ATOM     20  C   UNL     1       1.606   6.002  20.139  0.00  0.00    +0.000 A 
ATOM     21  C   UNL     1       1.102   6.763  21.231  0.00  0.00    +0.000 A 
ATOM     22  C   UNL     1       1.512   8.069  21.042  0.00  0.00    +0.000 A 
ATOM     23  O   UNL     1       2.231   8.149  19.879  0.00  0.00    +0.000 OA
ATOM     24  C   UNL     1       2.312   6.896  19.338  0.00  0.00    +0.000 A 
BRANCH  16  26
ATOM     25  C   UNL     1       5.053   6.814  17.049  0.00  0.00    +0.000 C 
ATOM     26  O   UNL     1       3.754   7.319  17.340  0.00  0.00    +0.000 OA
ENDBRANCH  16  26
ENDBRANCH  14  22
ENDBRANCH   1  14
BRANCH   2  27
ATOM     27  O   UNL     1      -1.009  10.404  23.662  0.00  0.00    +0.000 OA
ATOM     28  H   UNL     1      -0.210  10.087  24.109  0.00  0.00    +0.000 HD
ENDBRANCH   2  27
BRANCH   5  29
ATOM     29  C   UNL     1      -1.679  12.325  19.164  0.00  0.00    +0.000 C 
BRANCH  29  30
ATOM     30  C   UNL     1      -2.873  11.652  18.459  0.00  0.00    +0.000 C 
BRANCH  30  31
ATOM     31  N   UNL     1      -2.646  11.233  17.060  0.00  0.00    +0.000 NA
ATOM     32  C   UNL     1      -1.973   9.930  16.987  0.00  0.00    +0.000 C 
ATOM     33  C   UNL     1      -3.928  11.155  16.354  0.00  0.00    +0.000 C 
ENDBRANCH  30  31
ENDBRANCH  29  30
ENDBRANCH   5  29
TORSDOF 8
ENDMDL
MODEL 3
REMARK VINA RESULT:      -7.0      2.195      3.367
REMARK  Name = 
REMARK  11 active torsions:
REMARK  status: ('A' for Active; 'I' for Inactive)
REMARK    1  A    between atoms: C_1  and  O_2
REMARK    2  A    between atoms: O_2  and  C_3
REMARK    3  A    between atoms: C_9  and  C_10
REMARK    4  A    between atoms: C_10  and  C_12
REMARK    5  A    between atoms: C_13  and  O_14
REMARK    6  A    between atoms: N_17  and  C_18
REMARK    7  A    between atoms: C_18  and  C_19
REMARK    8  A    between atoms: C_19  and  N_20
REMARK    9  A    between atoms: N_20  and  C_21
REMARK   10  A    between atoms: N_20  and  C_22
REMARK   11  A    between atoms: C_23  and  C_24
REMARK                            x       y       z     vdW  Elec       q    Type
REMARK                         _______ _______ _______ _____ _____    ______ ____
ROOT
ATOM      1  C   UNL     1       0.449   9.792  20.201  0.00  0.00    +0.000 C 
ATOM      2  C   UNL     1       0.847   9.168  21.325  0.00  0.00    +0.000 C 
ATOM      3  C   UNL     1       0.270   9.915  22.471  0.00  0.00    +0.000 C 
ATOM      4  O   UNL     1       0.446   9.647  23.643  0.00  0.00    +0.000 OA
ATOM      5  N   UNL     1      -0.484  10.940  21.943  0.00  0.00    +0.000 N 
ATOM      6  C   UNL     1      -0.377  11.016  20.494  0.00  0.00    +0.000 C 
ENDROOT
BRANCH   6   7
ATOM      7  C   UNL     1       0.207  12.365  20.089  0.00  0.00    +0.000 A 
ATOM      8  C   UNL     1      -0.503  13.265  19.273  0.00  0.00    +0.000 A 
ATOM      9  C   UNL     1       0.124  14.398  18.746  0.00  0.00    +0.000 A 
ATOM     10  C   UNL     1       1.462  14.649  19.035  0.00  0.00    +0.000 A 
ATOM     11 CL   UNL     1       2.257  15.993  18.313  0.00  0.00    +0.000 Cl
ATOM     12  C   UNL     1       2.170  13.797  19.879  0.00  0.00    +0.000 A 
ATOM     13  C   UNL     1       1.544  12.664  20.407  0.00  0.00    +0.000 A 
ENDBRANCH   6   7
BRANCH   1  14
ATOM     14  C   UNL     1       0.716   9.408  18.790  0.00  0.00    +0.000 C 
ATOM     15  O   UNL     1       0.022   9.903  17.904  0.00  0.00    +0.000 OA
BRANCH  14  22
ATOM     16  C   UNL     1       3.050   5.120  18.686  0.00  0.00    +0.000 A 
ATOM     17  C   UNL     1       4.200   4.621  18.062  0.00  0.00    +0.000 A 
ATOM     18  C   UNL     1       5.045   5.452  17.324  0.00  0.00    +0.000 A 
ATOM     19  C   UNL     1       4.748   6.811  17.156  0.00  0.00    +0.000 A 
ATOM     20  C   UNL     1       3.573   7.327  17.731  0.00  0.00    +0.000 A 
ATOM     21  C   UNL     1       2.927   8.595  17.736  0.00  0.00    +0.000 A 
ATOM     22  C   UNL     1       1.774   8.462  18.487  0.00  0.00    +0.000 A 
ATOM     23  O   UNL     1       1.690   7.177  18.955  0.00  0.00    +0.000 OA
ATOM     24  C   UNL     1       2.765   6.478  18.482  0.00  0.00    +0.000 A 
BRANCH  16  26
ATOM     25  C   UNL     1       3.024   3.349  20.254  0.00  0.00    +0.000 C 
ATOM     26  O   UNL     1       2.289   4.191  19.372  0.00  0.00    +0.000 OA
ENDBRANCH  16  26
ENDBRANCH  14  22
ENDBRANCH   1  14
BRANCH   2  27
ATOM     27  O   UNL     1       1.632   8.066  21.512  0.00  0.00    +0.000 OA
ATOM     28  H   UNL     1       1.509   7.438  20.784  0.00  0.00    +0.000 HD
ENDBRANCH   2  27
BRANCH   5  29
ATOM     29  C   UNL     1      -1.202  11.911  22.762  0.00  0.00    +0.000 C 
BRANCH  29  30
ATOM     30  C   UNL     1      -2.551  12.370  22.173  0.00  0.00    +0.000 C 
BRANCH  30  31
ATOM     31  N   UNL     1      -3.704  12.336  23.096  0.00  0.00    +0.000 NA
ATOM     32  C   UNL     1      -3.476  13.171  24.281  0.00  0.00    +0.000 C 
ATOM     33  C   UNL     1      -4.907  12.803  22.400  0.00  0.00    +0.000 C 
ENDBRANCH  30  31
ENDBRANCH  29  30
ENDBRANCH   5  29
TORSDOF 8
ENDMDL
MODEL 4
REMARK VINA RESULT:      -6.9      2.134      3.463
REMARK  Name = 
REMARK  11 active torsions:
REMARK  status: ('A' for Active; 'I' for Inactive)
REMARK    1  A    between atoms: C_1  and  O_2
REMARK    2  A    between atoms: O_2  and  C_3
REMARK    3  A    between atoms: C_9  and  C_10
REMARK    4  A    between atoms: C_10  and  C_12
REMARK    5  A    between atoms: C_13  and  O_14
REMARK    6  A    between atoms: N_17  and  C_18
REMARK    7  A    between atoms: C_18  and  C_19
REMARK    8  A    between atoms: C_19  and  N_20
REMARK    9  A    between atoms: N_20  and  C_21
REMARK   10  A    between atoms: N_20  and  C_22
REMARK   11  A    between atoms: C_23  and  C_24
REMARK                            x       y       z     vdW  Elec       q    Type
REMARK                         _______ _______ _______ _____ _____    ______ ____
ROOT
ATOM      1  C   UNL     1       1.152   9.389  19.561  0.00  0.00    +0.000 C 
ATOM      2  C   UNL     1       1.220   8.725  20.730  0.00  0.00    +0.000 C 
ATOM      3  C   UNL     1       0.259   9.372  21.659  0.00  0.00    +0.000 C 
ATOM      4  O   UNL     1       0.076   9.047  22.816  0.00  0.00    +0.000 OA
ATOM      5  N   UNL     1      -0.361  10.382  20.957  0.00  0.00    +0.000 N 
ATOM      6  C   UNL     1       0.192  10.546  19.621  0.00  0.00    +0.000 C 
ENDROOT
BRANCH   6   7
ATOM      7  C   UNL     1       0.776  11.946  19.471  0.00  0.00    +0.000 A 
ATOM      8  C   UNL     1       1.832  12.399  20.284  0.00  0.00    +0.000 A 
ATOM      9  C   UNL     1       2.215  13.744  20.274  0.00  0.00    +0.000 A 
ATOM     10  C   UNL     1       1.554  14.647  19.447  0.00  0.00    +0.000 A 
ATOM     11 CL   UNL     1       1.964  16.317  19.502  0.00  0.00    +0.000 Cl
ATOM     12  C   UNL     1       0.539  14.211  18.599  0.00  0.00    +0.000 A 
ATOM     13  C   UNL     1       0.155  12.867  18.608  0.00  0.00    +0.000 A 
ENDBRANCH   6   7
BRANCH   1  14
ATOM     14  C   UNL     1       1.876   9.102  18.296  0.00  0.00    +0.000 C 
ATOM     15  O   UNL     1       1.926   9.977  17.434  0.00  0.00    +0.000 OA
BRANCH  14  22
ATOM     16  C   UNL     1       2.250   4.234  18.209  0.00  0.00    +0.000 A 
ATOM     17  C   UNL     1       3.200   3.310  17.754  0.00  0.00    +0.000 A 
ATOM     18  C   UNL     1       4.436   3.725  17.257  0.00  0.00    +0.000 A 
ATOM     19  C   UNL     1       4.754   5.087  17.165  0.00  0.00    +0.000 A 
ATOM     20  C   UNL     1       3.798   6.037  17.569  0.00  0.00    +0.000 A 
ATOM     21  C   UNL     1       3.731   7.458  17.577  0.00  0.00    +0.000 A 
ATOM     22  C   UNL     1       2.499   7.806  18.097  0.00  0.00    +0.000 A 
ATOM     23  O   UNL     1       1.813   6.666  18.423  0.00  0.00    +0.000 OA
ATOM     24  C   UNL     1       2.585   5.590  18.084  0.00  0.00    +0.000 A 
BRANCH  16  26
ATOM     25  C   UNL     1       0.958   3.569  20.076  0.00  0.00    +0.000 C 
ATOM     26  O   UNL     1       1.059   3.695  18.661  0.00  0.00    +0.000 OA
ENDBRANCH  16  26
ENDBRANCH  14  22
ENDBRANCH   1  14
BRANCH   2  27
ATOM     27  O   UNL     1       1.982   7.660  21.116  0.00  0.00    +0.000 OA
ATOM     28  H   UNL     1       1.427   6.873  21.230  0.00  0.00    +0.000 HD
ENDBRANCH   2  27
BRANCH   5  29
ATOM     29  C   UNL     1      -1.367  11.263  21.540  0.00  0.00    +0.000 C 
BRANCH  29  30
ATOM     30  C   UNL     1      -0.853  12.142  22.698  0.00  0.00    +0.000 C 
BRANCH  30  31
ATOM     31  N   UNL     1      -0.966  13.602  22.500  0.00  0.00    +0.000 NA
ATOM     32  C   UNL     1      -1.912  13.932  21.427  0.00  0.00    +0.000 C 
ATOM     33  C   UNL     1      -1.407  14.236  23.746  0.00  0.00    +0.000 C 
ENDBRANCH  30  31
ENDBRANCH  29  30
ENDBRANCH   5  29
TORSDOF 8
ENDMDL
MODEL 5
REMARK VINA RESULT:      -6.8      2.030      3.340
REMARK  Name = 
REMARK  11 active torsions:
REMARK  status: ('A' for Active; 'I' for Inactive)
REMARK    1  A    between atoms: C_1  and  O_2
REMARK    2  A    between atoms: O_2  and  C_3
REMARK    3  A    between atoms: C_9  and  C_10
REMARK    4  A    between atoms: C_10  and  C_12
REMARK    5  A    between atoms: C_13  and  O_14
REMARK    6  A    between atoms: N_17  and  C_18
REMARK    7  A    between atoms: C_18  and  C_19
REMARK    8  A    between atoms: C_19  and  N_20
REMARK    9  A    between atoms: N_20  and  C_21
REMARK   10  A    between atoms: N_20  and  C_22
REMARK   11  A    between atoms: C_23  and  C_24
REMARK                            x       y       z     vdW  Elec       q    Type
REMARK                         _______ _______ _______ _____ _____    ______ ____
ROOT
ATOM      1  C   UNL     1       0.792   9.639  20.164  0.00  0.00    +0.000 C 
ATOM      2  C   UNL     1       1.045   9.206  21.412  0.00  0.00    +0.000 C 
ATOM      3  C   UNL     1       0.175   9.982  22.332  0.00  0.00    +0.000 C 
ATOM      4  O   UNL     1       0.158   9.872  23.542  0.00  0.00    +0.000 OA
ATOM      5  N   UNL     1      -0.586  10.823  21.550  0.00  0.00    +0.000 N 
ATOM      6  C   UNL     1      -0.218  10.755  20.143  0.00  0.00    +0.000 C 
ENDROOT
BRANCH   6   7
ATOM      7  C   UNL     1       0.262  12.121  19.668  0.00  0.00    +0.000 A 
ATOM      8  C   UNL     1       1.485  12.669  20.098  0.00  0.00    +0.000 A 
ATOM      9  C   UNL     1       1.810  13.999  19.817  0.00  0.00    +0.000 A 
ATOM     10  C   UNL     1       0.922  14.793  19.096  0.00  0.00    +0.000 A 
ATOM     11 CL   UNL     1       1.281  16.455  18.830  0.00  0.00    +0.000 Cl
ATOM     12  C   UNL     1      -0.271  14.258  18.619  0.00  0.00    +0.000 A 
ATOM     13  C   UNL     1      -0.598  12.927  18.899  0.00  0.00    +0.000 A 
ENDBRANCH   6   7
BRANCH   1  14
ATOM     14  C   UNL     1       1.365   9.146  18.884  0.00  0.00    +0.000 C 
ATOM     15  O   UNL     1       1.180   9.805  17.863  0.00  0.00    +0.000 OA
BRANCH  14  22
ATOM     16  C   UNL     1       2.429   4.484  19.874  0.00  0.00    +0.000 A 
ATOM     17  C   UNL     1       3.393   3.564  19.443  0.00  0.00    +0.000 A 
ATOM     18  C   UNL     1       4.428   3.943  18.586  0.00  0.00    +0.000 A 
ATOM     19  C   UNL     1       4.515   5.255  18.102  0.00  0.00    +0.000 A 
ATOM     20  C   UNL     1       3.531   6.187  18.480  0.00  0.00    +0.000 A 
ATOM     21  C   UNL     1       3.258   7.547  18.164  0.00  0.00    +0.000 A 
ATOM     22  C   UNL     1       2.120   7.906  18.860  0.00  0.00    +0.000 A 
ATOM     23  O   UNL     1       1.690   6.836  19.599  0.00  0.00    +0.000 OA
ATOM     24  C   UNL     1       2.527   5.783  19.355  0.00  0.00    +0.000 A 
BRANCH  16  26
ATOM     25  C   UNL     1       1.906   3.029  21.664  0.00  0.00    +0.000 C 
ATOM     26  O   UNL     1       1.448   3.979  20.708  0.00  0.00    +0.000 OA
ENDBRANCH  16  26
ENDBRANCH  14  22
ENDBRANCH   1  14
BRANCH   2  27
ATOM     27  O   UNL     1       1.910   8.257  21.877  0.00  0.00    +0.000 OA
ATOM     28  H   UNL     1       1.420   7.489  22.209  0.00  0.00    +0.000 HD
ENDBRANCH   2  27
BRANCH   5  29
ATOM     29  C   UNL     1      -1.559  11.763  22.096  0.00  0.00    +0.000 C 
BRANCH  29  30
ATOM     30  C   UNL     1      -0.940  12.964  22.839  0.00  0.00    +0.000 C 
BRANCH  30  31
ATOM     31  N   UNL     1      -1.221  14.295  22.264  0.00  0.00    +0.000 NA
ATOM     32  C   UNL     1      -2.532  14.803  22.685  0.00  0.00    +0.000 C 
ATOM     33  C   UNL     1      -0.180  15.241  22.678  0.00  0.00    +0.000 C 
ENDBRANCH  30  31
ENDBRANCH  29  30
ENDBRANCH   5  29
TORSDOF 8
ENDMDL
MODEL 6
REMARK VINA RESULT:      -6.7      2.060      3.482
REMARK  Name = 
REMARK  11 active torsions:
REMARK  status: ('A' for Active; 'I' for Inactive)
REMARK    1  A    between atoms: C_1  and  O_2
REMARK    2  A    between atoms: O_2  and  C_3
REMARK    3  A    between atoms: C_9  and  C_10
REMARK    4  A    between atoms: C_10  and  C_12
REMARK    5  A    between atoms: C_13  and  O_14
REMARK    6  A    between atoms: N_17  and  C_18
REMARK    7  A    between atoms: C_18  and  C_19
REMARK    8  A    between atoms: C_19  and  N_20
REMARK    9  A    between atoms: N_20  and  C_21
REMARK   10  A    between atoms: N_20  and  C_22
REMARK   11  A    between atoms: C_23  and  C_24
REMARK                            x       y       z     vdW  Elec       q    Type
REMARK                         _______ _______ _______ _____ _____    ______ ____
ROOT
ATOM      1  C   UNL     1       1.119   9.423  19.609  0.00  0.00    +0.000 C 
ATOM      2  C   UNL     1       1.236   8.781  20.786  0.00  0.00    +0.000 C 
ATOM      3  C   UNL     1       0.282   9.416  21.730  0.00  0.00    +0.000 C 
ATOM      4  O   UNL     1       0.138   9.106  22.896  0.00  0.00    +0.000 OA
ATOM      5  N   UNL     1      -0.384  10.397  21.029  0.00  0.00    +0.000 N 
ATOM      6  C   UNL     1       0.129  10.555  19.676  0.00  0.00    +0.000 C 
ENDROOT
BRANCH   6   7
ATOM      7  C   UNL     1       0.670  11.968  19.489  0.00  0.00    +0.000 A 
ATOM      8  C   UNL     1       0.061  12.885  18.613  0.00  0.00    +0.000 A 
ATOM      9  C   UNL     1       0.685  14.097  18.301  0.00  0.00    +0.000 A 
ATOM     10  C   UNL     1       1.917  14.409  18.867  0.00  0.00    +0.000 A 
ATOM     11 CL   UNL     1       2.727  15.857  18.412  0.00  0.00    +0.000 Cl
ATOM     12  C   UNL     1       2.515  13.537  19.773  0.00  0.00    +0.000 A 
ATOM     13  C   UNL     1       1.893  12.325  20.087  0.00  0.00    +0.000 A 
ENDBRANCH   6   7
BRANCH   1  14
ATOM     14  C   UNL     1       1.819   9.135  18.330  0.00  0.00    +0.000 C 
ATOM     15  O   UNL     1       1.832  10.002  17.458  0.00  0.00    +0.000 OA
BRANCH  14  22
ATOM     16  C   UNL     1       2.251   4.273  18.202  0.00  0.00    +0.000 A 
ATOM     17  C   UNL     1       3.221   3.365  17.756  0.00  0.00    +0.000 A 
ATOM     18  C   UNL     1       4.461   3.799  17.286  0.00  0.00    +0.000 A 
ATOM     19  C   UNL     1       4.764   5.165  17.215  0.00  0.00    +0.000 A 
ATOM     20  C   UNL     1       3.790   6.100  17.610  0.00  0.00    +0.000 A 
ATOM     21  C   UNL     1       3.707   7.520  17.630  0.00  0.00    +0.000 A 
ATOM     22  C   UNL     1       2.461   7.849  18.131  0.00  0.00    +0.000 A 
ATOM     23  O   UNL     1       1.782   6.698  18.432  0.00  0.00    +0.000 OA
ATOM     24  C   UNL     1       2.572   5.634  18.097  0.00  0.00    +0.000 A 
BRANCH  16  26
ATOM     25  C   UNL     1       1.030   3.336  19.998  0.00  0.00    +0.000 C 
ATOM     26  O   UNL     1       1.059   3.716  18.627  0.00  0.00    +0.000 OA
ENDBRANCH  16  26
ENDBRANCH  14  22
ENDBRANCH   1  14
BRANCH   2  27
ATOM     27  O   UNL     1       2.037   7.744  21.169  0.00  0.00    +0.000 OA
ATOM     28  H   UNL     1       1.619   6.897  20.950  0.00  0.00    +0.000 HD
ENDBRANCH   2  27
BRANCH   5  29
ATOM     29  C   UNL     1      -1.399  11.260  21.624  0.00  0.00    +0.000 C 
BRANCH  29  30
ATOM     30  C   UNL     1      -0.845  12.323  22.594  0.00  0.00    +0.000 C 
BRANCH  30  31
ATOM     31  N   UNL     1      -1.849  13.048  23.399  0.00  0.00    +0.000 NA
ATOM     32  C   UNL     1      -2.114  14.387  22.858  0.00  0.00    +0.000 C 
ATOM     33  C   UNL     1      -3.099  12.284  23.434  0.00  0.00    +0.000 C 
ENDBRANCH  30  31
ENDBRANCH  29  30
ENDBRANCH   5  29
TORSDOF 8
ENDMDL
MODEL 7
REMARK VINA RESULT:      -6.7      0.604      1.078
REMARK  Name = 
REMARK  11 active torsions:
REMARK  status: ('A' for Active; 'I' for Inactive)
REMARK    1  A    between atoms: C_1  and  O_2
REMARK    2  A    between atoms: O_2  and  C_3
REMARK    3  A    between atoms: C_9  and  C_10
REMARK    4  A    between atoms: C_10  and  C_12
REMARK    5  A    between atoms: C_13  and  O_14
REMARK    6  A    between atoms: N_17  and  C_18
REMARK    7  A    between atoms: C_18  and  C_19
REMARK    8  A    between atoms: C_19  and  N_20
REMARK    9  A    between atoms: N_20  and  C_21
REMARK   10  A    between atoms: N_20  and  C_22
REMARK   11  A    between atoms: C_23  and  C_24
REMARK                            x       y       z     vdW  Elec       q    Type
REMARK                         _______ _______ _______ _____ _____    ______ ____
ROOT
ATOM      1  C   UNL     1       0.157  10.351  21.454  0.00  0.00    +0.000 C 
ATOM      2  C   UNL     1      -0.809  10.722  22.313  0.00  0.00    +0.000 C 
ATOM      3  C   UNL     1      -1.770  11.565  21.557  0.00  0.00    +0.000 C 
ATOM      4  O   UNL     1      -2.757  12.096  22.027  0.00  0.00    +0.000 OA
ATOM      5  N   UNL     1      -1.323  11.614  20.256  0.00  0.00    +0.000 N 
ATOM      6  C   UNL     1      -0.044  10.942  20.084  0.00  0.00    +0.000 C 
ENDROOT
BRANCH   6   7
ATOM      7  C   UNL     1       1.002  11.937  19.592  0.00  0.00    +0.000 A 
ATOM      8  C   UNL     1       1.681  11.756  18.373  0.00  0.00    +0.000 A 
ATOM      9  C   UNL     1       2.774  12.561  18.039  0.00  0.00    +0.000 A 
ATOM     10  C   UNL     1       3.194  13.559  18.913  0.00  0.00    +0.000 A 
ATOM     11 CL   UNL     1       4.594  14.488  18.543  0.00  0.00    +0.000 Cl
ATOM     12  C   UNL     1       2.506  13.787  20.102  0.00  0.00    +0.000 A 
ATOM     13  C   UNL     1       1.412  12.983  20.438  0.00  0.00    +0.000 A 
ENDBRANCH   6   7
BRANCH   1  14
ATOM     14  C   UNL     1       1.322   9.463  21.705  0.00  0.00    +0.000 C 
ATOM     15  O   UNL     1       2.030   9.682  22.686  0.00  0.00    +0.000 OA
BRANCH  14  22
ATOM     16  C   UNL     1       1.675   4.842  20.164  0.00  0.00    +0.000 A 
ATOM     17  C   UNL     1       1.949   4.212  18.944  0.00  0.00    +0.000 A 
ATOM     18  C   UNL     1       2.317   4.944  17.814  0.00  0.00    +0.000 A 
ATOM     19  C   UNL     1       2.392   6.343  17.858  0.00  0.00    +0.000 A 
ATOM     20  C   UNL     1       2.074   7.005  19.058  0.00  0.00    +0.000 A 
ATOM     21  C   UNL     1       1.984   8.365  19.465  0.00  0.00    +0.000 A 
ATOM     22  C   UNL     1       1.606   8.369  20.795  0.00  0.00    +0.000 A 
ATOM     23  O   UNL     1       1.476   7.075  21.226  0.00  0.00    +0.000 OA
ATOM     24  C   UNL     1       1.735   6.244  20.173  0.00  0.00    +0.000 A 
BRANCH  16  26
ATOM     25  C   UNL     1       1.726   2.653  21.059  0.00  0.00    +0.000 C 
ATOM     26  O   UNL     1       1.305   4.006  21.202  0.00  0.00    +0.000 OA
ENDBRANCH  16  26
ENDBRANCH  14  22
ENDBRANCH   1  14
BRANCH   2  27
ATOM     27  O   UNL     1      -0.984  10.452  23.640  0.00  0.00    +0.000 OA
ATOM     28  H   UNL     1      -0.157  10.594  24.125  0.00  0.00    +0.000 HD
ENDBRANCH   2  27
BRANCH   5  29
ATOM     29  C   UNL     1      -1.999  12.366  19.204  0.00  0.00    +0.000 C 
BRANCH  29  30
ATOM     30  C   UNL     1      -2.232  11.574  17.901  0.00  0.00    +0.000 C 
BRANCH  30  31
ATOM     31  N   UNL     1      -3.597  11.043  17.703  0.00  0.00    +0.000 NA
ATOM     32  C   UNL     1      -4.572  11.717  18.569  0.00  0.00    +0.000 C 
ATOM     33  C   UNL     1      -3.994  11.214  16.303  0.00  0.00    +0.000 C 
ENDBRANCH  30  31
ENDBRANCH  29  30
ENDBRANCH   5  29
TORSDOF 8
ENDMDL
MODEL 8
REMARK VINA RESULT:      -6.6      2.308      3.711
REMARK  Name = 
REMARK  11 active torsions:
REMARK  status: ('A' for Active; 'I' for Inactive)
REMARK    1  A    between atoms: C_1  and  O_2
REMARK    2  A    between atoms: O_2  and  C_3
REMARK    3  A    between atoms: C_9  and  C_10
REMARK    4  A    between atoms: C_10  and  C_12
REMARK    5  A    between atoms: C_13  and  O_14
REMARK    6  A    between atoms: N_17  and  C_18
REMARK    7  A    between atoms: C_18  and  C_19
REMARK    8  A    between atoms: C_19  and  N_20
REMARK    9  A    between atoms: N_20  and  C_21
REMARK   10  A    between atoms: N_20  and  C_22
REMARK   11  A    between atoms: C_23  and  C_24
REMARK                            x       y       z     vdW  Elec       q    Type
REMARK                         _______ _______ _______ _____ _____    ______ ____
ROOT
ATOM      1  C   UNL     1       1.100   9.288  19.707  0.00  0.00    +0.000 C 
ATOM      2  C   UNL     1       1.147   8.706  20.919  0.00  0.00    +0.000 C 
ATOM      3  C   UNL     1       0.193   9.434  21.794  0.00  0.00    +0.000 C 
ATOM      4  O   UNL     1      -0.004   9.194  22.969  0.00  0.00    +0.000 OA
ATOM      5  N   UNL     1      -0.402  10.405  21.019  0.00  0.00    +0.000 N 
ATOM      6  C   UNL     1       0.163  10.466  19.678  0.00  0.00    +0.000 C 
ENDROOT
BRANCH   6   7
ATOM      7  C   UNL     1       0.776  11.841  19.438  0.00  0.00    +0.000 A 
ATOM      8  C   UNL     1       1.854  12.316  20.207  0.00  0.00    +0.000 A 
ATOM      9  C   UNL     1       2.267  13.649  20.112  0.00  0.00    +0.000 A 
ATOM     10  C   UNL     1       1.614  14.516  19.241  0.00  0.00    +0.000 A 
ATOM     11 CL   UNL     1       2.062  16.177  19.191  0.00  0.00    +0.000 Cl
ATOM     12  C   UNL     1       0.576  14.054  18.435  0.00  0.00    +0.000 A 
ATOM     13  C   UNL     1       0.163  12.722  18.529  0.00  0.00    +0.000 A 
ENDBRANCH   6   7
BRANCH   1  14
ATOM     14  C   UNL     1       1.827   8.901  18.470  0.00  0.00    +0.000 C 
ATOM     15  O   UNL     1       1.983   9.744  17.589  0.00  0.00    +0.000 OA
BRANCH  14  22
ATOM     16  C   UNL     1       4.907   5.143  18.962  0.00  0.00    +0.000 A 
ATOM     17  C   UNL     1       4.867   3.772  18.677  0.00  0.00    +0.000 A 
ATOM     18  C   UNL     1       3.784   3.200  18.009  0.00  0.00    +0.000 A 
ATOM     19  C   UNL     1       2.682   3.977  17.629  0.00  0.00    +0.000 A 
ATOM     20  C   UNL     1       2.674   5.348  17.946  0.00  0.00    +0.000 A 
ATOM     21  C   UNL     1       1.747   6.415  17.782  0.00  0.00    +0.000 A 
ATOM     22  C   UNL     1       2.328   7.547  18.321  0.00  0.00    +0.000 A 
ATOM     23  O   UNL     1       3.574   7.229  18.793  0.00  0.00    +0.000 OA
ATOM     24  C   UNL     1       3.780   5.893  18.591  0.00  0.00    +0.000 A 
BRANCH  16  26
ATOM     25  C   UNL     1       7.232   5.570  18.885  0.00  0.00    +0.000 C 
ATOM     26  O   UNL     1       6.027   5.582  19.643  0.00  0.00    +0.000 OA
ENDBRANCH  16  26
ENDBRANCH  14  22
ENDBRANCH   1  14
BRANCH   2  27
ATOM     27  O   UNL     1       1.884   7.656  21.384  0.00  0.00    +0.000 OA
ATOM     28  H   UNL     1       2.804   7.731  21.086  0.00  0.00    +0.000 HD
ENDBRANCH   2  27
BRANCH   5  29
ATOM     29  C   UNL     1      -1.394  11.344  21.531  0.00  0.00    +0.000 C 
BRANCH  29  30
ATOM     30  C   UNL     1      -0.893  12.237  22.684  0.00  0.00    +0.000 C 
BRANCH  30  31
ATOM     31  N   UNL     1      -0.841  13.686  22.403  0.00  0.00    +0.000 NA
ATOM     32  C   UNL     1      -1.784  14.068  21.345  0.00  0.00    +0.000 C 
ATOM     33  C   UNL     1      -1.153  14.437  23.623  0.00  0.00    +0.000 C 
ENDBRANCH  30  31
ENDBRANCH  29  30
ENDBRANCH   5  29
TORSDOF 8
ENDMDL
MODEL 9
REMARK VINA RESULT:      -6.6      3.186      4.943
REMARK  Name = 
REMARK  11 active torsions:
REMARK  status: ('A' for Active; 'I' for Inactive)
REMARK    1  A    between atoms: C_1  and  O_2
REMARK    2  A    between atoms: O_2  and  C_3
REMARK    3  A    between atoms: C_9  and  C_10
REMARK    4  A    between atoms: C_10  and  C_12
REMARK    5  A    between atoms: C_13  and  O_14
REMARK    6  A    between atoms: N_17  and  C_18
REMARK    7  A    between atoms: C_18  and  C_19
REMARK    8  A    between atoms: C_19  and  N_20
REMARK    9  A    between atoms: N_20  and  C_21
REMARK   10  A    between atoms: N_20  and  C_22
REMARK   11  A    between atoms: C_23  and  C_24
REMARK                            x       y       z     vdW  Elec       q    Type
REMARK                         _______ _______ _______ _____ _____    ______ ____
ROOT
ATOM      1  C   UNL     1       1.394  11.416  19.271  0.00  0.00    +0.000 C 
ATOM      2  C   UNL     1       2.123  12.210  18.466  0.00  0.00    +0.000 C 
ATOM      3  C   UNL     1       2.521  13.398  19.263  0.00  0.00    +0.000 C 
ATOM      4  O   UNL     1       3.167  14.339  18.846  0.00  0.00    +0.000 OA
ATOM      5  N   UNL     1       2.021  13.214  20.533  0.00  0.00    +0.000 N 
ATOM      6  C   UNL     1       1.203  12.015  20.638  0.00  0.00    +0.000 C 
ENDROOT
BRANCH   6   7
ATOM      7  C   UNL     1      -0.217  12.391  21.044  0.00  0.00    +0.000 A 
ATOM      8  C   UNL     1      -0.771  11.982  22.272  0.00  0.00    +0.000 A 
ATOM      9  C   UNL     1      -2.132  12.160  22.536  0.00  0.00    +0.000 A 
ATOM     10  C   UNL     1      -2.952  12.755  21.582  0.00  0.00    +0.000 A 
ATOM     11 CL   UNL     1      -4.643  12.890  21.870  0.00  0.00    +0.000 Cl
ATOM     12  C   UNL     1      -2.416  13.211  20.380  0.00  0.00    +0.000 A 
ATOM     13  C   UNL     1      -1.055  13.034  20.115  0.00  0.00    +0.000 A 
ENDBRANCH   6   7
BRANCH   1  14
ATOM     14  C   UNL     1       0.806  10.085  18.965  0.00  0.00    +0.000 C 
ATOM     15  O   UNL     1      -0.418   9.983  18.899  0.00  0.00    +0.000 OA
BRANCH  14  22
ATOM     16  C   UNL     1       2.774   5.697  19.810  0.00  0.00    +0.000 A 
ATOM     17  C   UNL     1       3.660   4.850  19.133  0.00  0.00    +0.000 A 
ATOM     18  C   UNL     1       4.291   5.251  17.954  0.00  0.00    +0.000 A 
ATOM     19  C   UNL     1       4.030   6.507  17.391  0.00  0.00    +0.000 A 
ATOM     20  C   UNL     1       3.107   7.359  18.025  0.00  0.00    +0.000 A 
ATOM     21  C   UNL     1       2.558   8.640  17.740  0.00  0.00    +0.000 A 
ATOM     22  C   UNL     1       1.675   8.941  18.760  0.00  0.00    +0.000 A 
ATOM     23  O   UNL     1       1.666   7.912  19.663  0.00  0.00    +0.000 OA
ATOM     24  C   UNL     1       2.514   6.939  19.212  0.00  0.00    +0.000 A 
BRANCH  16  26
ATOM     25  C   UNL     1       1.376   4.036  20.747  0.00  0.00    +0.000 C 
ATOM     26  O   UNL     1       2.203   5.175  20.956  0.00  0.00    +0.000 OA
ENDBRANCH  16  26
ENDBRANCH  14  22
ENDBRANCH   1  14
BRANCH   2  27
ATOM     27  O   UNL     1       2.490  12.071  17.158  0.00  0.00    +0.000 OA
ATOM     28  H   UNL     1       3.405  12.366  17.031  0.00  0.00    +0.000 HD
ENDBRANCH   2  27
BRANCH   5  29
ATOM     29  C   UNL     1       2.192  14.184  21.610  0.00  0.00    +0.000 C 
BRANCH  29  30
ATOM     30  C   UNL     1       1.233  15.390  21.542  0.00  0.00    +0.000 C 
BRANCH  30  31
ATOM     31  N   UNL     1       1.783  16.620  20.936  0.00  0.00    +0.000 NA
ATOM     32  C   UNL     1       1.040  17.009  19.731  0.00  0.00    +0.000 C 
ATOM     33  C   UNL     1       1.733  17.715  21.909  0.00  0.00    +0.000 C 
ENDBRANCH  30  31
ENDBRANCH  29  30
ENDBRANCH   5  29
TORSDOF 8
ENDMDL
