MODEL 1
REMARK VINA RESULT:      -7.5      0.000      0.000
REMARK  Name = 
REMARK  3 active torsions:
REMARK  status: ('A' for Active; 'I' for Inactive)
REMARK    1  A    between atoms: C_2  and  C_11
REMARK    2  A    between atoms: N_3  and  C_4
REMARK    3  A    between atoms: C_15  and  C_16
REMARK                            x       y       z     vdW  Elec       q    Type
REMARK                         _______ _______ _______ _____ _____    ______ ____
ROOT
ATOM      1  C   UNL     1       3.734   6.086  17.838  0.00  0.00    +0.000 A 
ATOM      2  C   UNL     1       3.838   7.434  17.538  0.00  0.00    +0.000 A 
ATOM      3  N   UNL     1       2.855   8.057  18.238  0.00  0.00    +0.000 N 
ATOM      4  N   UNL     1       2.126   7.229  18.989  0.00  0.00    +0.000 NA
ATOM      5  C   UNL     1       2.656   6.009  18.781  0.00  0.00    +0.000 A 
ATOM      6  H   UNL     1       2.625   9.046  18.257  0.00  0.00    +0.000 HD
ENDROOT
BRANCH   5   7
ATOM      7  C   UNL     1       2.148   4.859  19.542  0.00  0.00    +0.000 A 
ATOM      8  C   UNL     1       2.478   4.706  20.898  0.00  0.00    +0.000 A 
ATOM      9  C   UNL     1       2.062   3.581  21.617  0.00  0.00    +0.000 A 
ATOM     10  C   UNL     1       1.306   2.594  20.990  0.00  0.00    +0.000 A 
ATOM     11  C   UNL     1       0.966   2.732  19.647  0.00  0.00    +0.000 A 
ATOM     12  C   UNL     1       1.392   3.852  18.927  0.00  0.00    +0.000 A 
ENDBRANCH   5   7
BRANCH   1  14
ATOM     13  O   UNL     1       5.084   4.154  17.971  0.00  0.00    +0.000 OA
ATOM     14  C   UNL     1       4.554   5.019  17.282  0.00  0.00    +0.000 C 
ATOM     15  N   UNL     1       4.713   5.076  15.911  0.00  0.00    +0.000 N 
ATOM     16  H   UNL     1       4.319   5.876  15.433  0.00  0.00    +0.000 HD
BRANCH  15  17
ATOM     17  C   UNL     1       5.614   4.143  15.200  0.00  0.00    +0.000 C 
ATOM     18  C   UNL     1       7.086   4.612  15.158  0.00  0.00    +0.000 C 
ATOM     19  C   UNL     1       6.823   5.184  13.748  0.00  0.00    +0.000 C 
ATOM     20  O   UNL     1       7.752   4.805  12.711  0.00  0.00    +0.000 OA
ATOM     21  C   UNL     1       7.128   3.813  11.884  0.00  0.00    +0.000 C 
ATOM     22  C   UNL     1       6.099   3.145  12.791  0.00  0.00    +0.000 C 
ATOM     23  C   UNL     1       5.571   4.286  13.660  0.00  0.00    +0.000 C 
ENDBRANCH  15  17
ENDBRANCH   1  14
TORSDOF 3
ENDMDL
MODEL 2
REMARK VINA RESULT:      -7.5      4.161      8.115
REMARK  Name = 
REMARK  3 active torsions:
REMARK  status: ('A' for Active; 'I' for Inactive)
REMARK    1  A    between atoms: C_2  and  C_11
REMARK    2  A    between atoms: N_3  and  C_4
REMARK    3  A    between atoms: C_15  and  C_16
REMARK                            x       y       z     vdW  Elec       q    Type
REMARK                         _______ _______ _______ _____ _____    ______ ____
ROOT
ATOM      1  C   UNL     1       2.293   5.193  20.061  0.00  0.00    +0.000 A 
ATOM      2  C   UNL     1       1.510   4.350  20.831  0.00  0.00    +0.000 A 
ATOM      3  N   UNL     1       1.976   3.093  20.612  0.00  0.00    +0.000 N 
ATOM      4  N   UNL     1       3.014   3.045  19.775  0.00  0.00    +0.000 NA
ATOM      5  C   UNL     1       3.248   4.326  19.433  0.00  0.00    +0.000 A 
ATOM      6  H   UNL     1       1.638   2.219  21.005  0.00  0.00    +0.000 HD
ENDROOT
BRANCH   5   7
ATOM      7  C   UNL     1       4.403   4.651  18.585  0.00  0.00    +0.000 A 
ATOM      8  C   UNL     1       4.302   4.562  17.188  0.00  0.00    +0.000 A 
ATOM      9  C   UNL     1       5.412   4.797  16.370  0.00  0.00    +0.000 A 
ATOM     10  C   UNL     1       6.639   5.129  16.940  0.00  0.00    +0.000 A 
ATOM     11  C   UNL     1       6.756   5.225  18.324  0.00  0.00    +0.000 A 
ATOM     12  C   UNL     1       5.648   4.979  19.140  0.00  0.00    +0.000 A 
ENDBRANCH   5   7
BRANCH   1  14
ATOM     13  O   UNL     1       2.566   7.278  18.987  0.00  0.00    +0.000 OA
ATOM     14  C   UNL     1       2.133   6.636  19.938  0.00  0.00    +0.000 C 
ATOM     15  N   UNL     1       1.477   7.231  20.998  0.00  0.00    +0.000 N 
ATOM     16  H   UNL     1       1.237   6.639  21.783  0.00  0.00    +0.000 HD
BRANCH  15  17
ATOM     17  C   UNL     1       1.338   8.700  21.093  0.00  0.00    +0.000 C 
ATOM     18  C   UNL     1       1.738   9.273  22.471  0.00  0.00    +0.000 C 
ATOM     19  C   UNL     1       0.245   9.266  22.864  0.00  0.00    +0.000 C 
ATOM     20  O   UNL     1      -0.291  10.493  23.403  0.00  0.00    +0.000 OA
ATOM     21  C   UNL     1      -1.071  11.133  22.384  0.00  0.00    +0.000 C 
ATOM     22  C   UNL     1      -0.483  10.627  21.071  0.00  0.00    +0.000 C 
ATOM     23  C   UNL     1      -0.108   9.174  21.364  0.00  0.00    +0.000 C 
ENDBRANCH  15  17
ENDBRANCH   1  14
TORSDOF 3
ENDMDL
MODEL 3
REMARK VINA RESULT:      -7.5      2.504      6.618
REMARK  Name = 
REMARK  3 active torsions:
REMARK  status: ('A' for Active; 'I' for Inactive)
REMARK    1  A    between atoms: C_2  and  C_11
REMARK    2  A    between atoms: N_3  and  C_4
REMARK    3  A    between atoms: C_15  and  C_16
REMARK                            x       y       z     vdW  Elec       q    Type
REMARK                         _______ _______ _______ _____ _____    ______ ____
ROOT
ATOM      1  C   UNL     1       5.465   4.353  15.689  0.00  0.00    +0.000 A 
ATOM      2  C   UNL     1       5.531   3.855  14.399  0.00  0.00    +0.000 A 
ATOM      3  N   UNL     1       6.657   4.376  13.847  0.00  0.00    +0.000 N 
ATOM      4  N   UNL     1       7.346   5.162  14.677  0.00  0.00    +0.000 NA
ATOM      5  C   UNL     1       6.648   5.151  15.829  0.00  0.00    +0.000 A 
ATOM      6  H   UNL     1       7.022   4.235  12.909  0.00  0.00    +0.000 HD
ENDROOT
BRANCH   5   7
ATOM      7  C   UNL     1       7.185   5.846  17.007  0.00  0.00    +0.000 A 
ATOM      8  C   UNL     1       7.427   7.229  16.963  0.00  0.00    +0.000 A 
ATOM      9  C   UNL     1       8.004   7.892  18.051  0.00  0.00    +0.000 A 
ATOM     10  C   UNL     1       8.344   7.182  19.200  0.00  0.00    +0.000 A 
ATOM     11  C   UNL     1       8.107   5.811  19.261  0.00  0.00    +0.000 A 
ATOM     12  C   UNL     1       7.540   5.148  18.169  0.00  0.00    +0.000 A 
ENDBRANCH   5   7
BRANCH   1  14
ATOM     13  O   UNL     1       4.090   2.979  17.028  0.00  0.00    +0.000 OA
ATOM     14  C   UNL     1       4.399   4.104  16.650  0.00  0.00    +0.000 C 
ATOM     15  N   UNL     1       3.741   5.239  17.082  0.00  0.00    +0.000 N 
ATOM     16  H   UNL     1       3.999   6.116  16.648  0.00  0.00    +0.000 HD
BRANCH  15  17
ATOM     17  C   UNL     1       2.556   5.156  17.962  0.00  0.00    +0.000 C 
ATOM     18  C   UNL     1       2.605   6.126  19.164  0.00  0.00    +0.000 C 
ATOM     19  C   UNL     1       3.132   4.963  20.031  0.00  0.00    +0.000 C 
ATOM     20  O   UNL     1       2.449   4.722  21.280  0.00  0.00    +0.000 OA
ATOM     21  C   UNL     1       1.611   3.570  21.122  0.00  0.00    +0.000 C 
ATOM     22  C   UNL     1       1.308   3.513  19.628  0.00  0.00    +0.000 C 
ATOM     23  C   UNL     1       2.604   3.980  18.965  0.00  0.00    +0.000 C 
ENDBRANCH  15  17
ENDBRANCH   1  14
TORSDOF 3
ENDMDL
MODEL 4
REMARK VINA RESULT:      -7.4      2.088      3.603
REMARK  Name = 
REMARK  3 active torsions:
REMARK  status: ('A' for Active; 'I' for Inactive)
REMARK    1  A    between atoms: C_2  and  C_11
REMARK    2  A    between atoms: N_3  and  C_4
REMARK    3  A    between atoms: C_15  and  C_16
REMARK                            x       y       z     vdW  Elec       q    Type
REMARK                         _______ _______ _______ _____ _____    ______ ____
ROOT
ATOM      1  C   UNL     1       3.188   3.680  19.676  0.00  0.00    +0.000 A 
ATOM      2  C   UNL     1       2.874   2.786  20.686  0.00  0.00    +0.000 A 
ATOM      3  N   UNL     1       2.242   3.506  21.648  0.00  0.00    +0.000 N 
ATOM      4  N   UNL     1       2.098   4.797  21.344  0.00  0.00    +0.000 NA
ATOM      5  C   UNL     1       2.653   4.933  20.124  0.00  0.00    +0.000 A 
ATOM      6  H   UNL     1       1.875   3.182  22.539  0.00  0.00    +0.000 HD
ENDROOT
BRANCH   5   7
ATOM      7  C   UNL     1       2.579   6.229  19.435  0.00  0.00    +0.000 A 
ATOM      8  C   UNL     1       1.921   7.313  20.037  0.00  0.00    +0.000 A 
ATOM      9  C   UNL     1       1.780   8.531  19.364  0.00  0.00    +0.000 A 
ATOM     10  C   UNL     1       2.300   8.683  18.081  0.00  0.00    +0.000 A 
ATOM     11  C   UNL     1       2.959   7.619  17.472  0.00  0.00    +0.000 A 
ATOM     12  C   UNL     1       3.090   6.399  18.141  0.00  0.00    +0.000 A 
ENDBRANCH   5   7
BRANCH   1  14
ATOM     13  O   UNL     1       3.474   2.629  17.582  0.00  0.00    +0.000 OA
ATOM     14  C   UNL     1       3.916   3.370  18.453  0.00  0.00    +0.000 C 
ATOM     15  N   UNL     1       5.163   3.957  18.366  0.00  0.00    +0.000 N 
ATOM     16  H   UNL     1       5.487   4.477  19.172  0.00  0.00    +0.000 HD
BRANCH  15  17
ATOM     17  C   UNL     1       6.084   3.650  17.250  0.00  0.00    +0.000 C 
ATOM     18  C   UNL     1       7.404   4.453  17.295  0.00  0.00    +0.000 C 
ATOM     19  C   UNL     1       6.783   5.454  16.297  0.00  0.00    +0.000 C 
ATOM     20  O   UNL     1       7.564   5.771  15.126  0.00  0.00    +0.000 OA
ATOM     21  C   UNL     1       7.006   5.070  14.006  0.00  0.00    +0.000 C 
ATOM     22  C   UNL     1       6.309   3.858  14.616  0.00  0.00    +0.000 C 
ATOM     23  C   UNL     1       5.735   4.381  15.933  0.00  0.00    +0.000 C 
ENDBRANCH  15  17
ENDBRANCH   1  14
TORSDOF 3
ENDMDL
MODEL 5
REMARK VINA RESULT:      -7.4      4.087      7.959
REMARK  Name = 
REMARK  3 active torsions:
REMARK  status: ('A' for Active; 'I' for Inactive)
REMARK    1  A    between atoms: C_2  and  C_11
REMARK    2  A    between atoms: N_3  and  C_4
REMARK    3  A    between atoms: C_15  and  C_16
REMARK                            x       y       z     vdW  Elec       q    Type
REMARK                         _______ _______ _______ _____ _____    ______ ____
ROOT
ATOM      1  C   UNL     1       2.405   5.000  20.185  0.00  0.00    +0.000 A 
ATOM      2  C   UNL     1       1.694   4.218  21.080  0.00  0.00    +0.000 A 
ATOM      3  N   UNL     1       2.129   2.944  20.902  0.00  0.00    +0.000 N 
ATOM      4  N   UNL     1       3.082   2.828  19.975  0.00  0.00    +0.000 NA
ATOM      5  C   UNL     1       3.290   4.082  19.529  0.00  0.00    +0.000 A 
ATOM      6  H   UNL     1       1.824   2.102  21.382  0.00  0.00    +0.000 HD
ENDROOT
BRANCH   5   7
ATOM      7  C   UNL     1       4.361   4.335  18.556  0.00  0.00    +0.000 A 
ATOM      8  C   UNL     1       5.627   4.760  18.991  0.00  0.00    +0.000 A 
ATOM      9  C   UNL     1       6.635   5.075  18.075  0.00  0.00    +0.000 A 
ATOM     10  C   UNL     1       6.392   4.965  16.707  0.00  0.00    +0.000 A 
ATOM     11  C   UNL     1       5.144   4.541  16.258  0.00  0.00    +0.000 A 
ATOM     12  C   UNL     1       4.135   4.238  17.176  0.00  0.00    +0.000 A 
ENDBRANCH   5   7
BRANCH   1  14
ATOM     13  O   UNL     1       2.726   7.032  19.028  0.00  0.00    +0.000 OA
ATOM     14  C   UNL     1       2.243   6.433  19.982  0.00  0.00    +0.000 C 
ATOM     15  N   UNL     1       1.523   7.072  20.973  0.00  0.00    +0.000 N 
ATOM     16  H   UNL     1       1.243   6.518  21.772  0.00  0.00    +0.000 HD
BRANCH  15  17
ATOM     17  C   UNL     1       1.370   8.543  20.988  0.00  0.00    +0.000 C 
ATOM     18  C   UNL     1       1.822   9.201  22.311  0.00  0.00    +0.000 C 
ATOM     19  C   UNL     1       0.348   9.202  22.769  0.00  0.00    +0.000 C 
ATOM     20  O   UNL     1      -0.179  10.453  23.259  0.00  0.00    +0.000 OA
ATOM     21  C   UNL     1      -1.012  11.023  22.241  0.00  0.00    +0.000 C 
ATOM     22  C   UNL     1      -0.476  10.447  20.934  0.00  0.00    +0.000 C 
ATOM     23  C   UNL     1      -0.070   9.018  21.295  0.00  0.00    +0.000 C 
ENDBRANCH  15  17
ENDBRANCH   1  14
TORSDOF 3
ENDMDL
MODEL 6
REMARK VINA RESULT:      -7.4      0.093      1.054
REMARK  Name = 
REMARK  3 active torsions:
REMARK  status: ('A' for Active; 'I' for Inactive)
REMARK    1  A    between atoms: C_2  and  C_11
REMARK    2  A    between atoms: N_3  and  C_4
REMARK    3  A    between atoms: C_15  and  C_16
REMARK                            x       y       z     vdW  Elec       q    Type
REMARK                         _______ _______ _______ _____ _____    ______ ____
ROOT
ATOM      1  C   UNL     1       3.787   6.042  17.797  0.00  0.00    +0.000 A 
ATOM      2  C   UNL     1       3.875   7.388  17.486  0.00  0.00    +0.000 A 
ATOM      3  N   UNL     1       2.905   8.009  18.206  0.00  0.00    +0.000 N 
ATOM      4  N   UNL     1       2.200   7.182  18.980  0.00  0.00    +0.000 NA
ATOM      5  C   UNL     1       2.733   5.964  18.767  0.00  0.00    +0.000 A 
ATOM      6  H   UNL     1       2.670   8.998  18.224  0.00  0.00    +0.000 HD
ENDROOT
BRANCH   5   7
ATOM      7  C   UNL     1       2.251   4.816  19.547  0.00  0.00    +0.000 A 
ATOM      8  C   UNL     1       1.381   3.880  18.964  0.00  0.00    +0.000 A 
ATOM      9  C   UNL     1       0.857   2.822  19.714  0.00  0.00    +0.000 A 
ATOM     10  C   UNL     1       1.197   2.684  21.057  0.00  0.00    +0.000 A 
ATOM     11  C   UNL     1       2.061   3.601  21.650  0.00  0.00    +0.000 A 
ATOM     12  C   UNL     1       2.576   4.664  20.902  0.00  0.00    +0.000 A 
ENDBRANCH   5   7
BRANCH   1  14
ATOM     13  O   UNL     1       5.116   4.094  17.905  0.00  0.00    +0.000 OA
ATOM     14  C   UNL     1       4.600   4.976  17.228  0.00  0.00    +0.000 C 
ATOM     15  N   UNL     1       4.768   5.055  15.859  0.00  0.00    +0.000 N 
ATOM     16  H   UNL     1       4.386   5.867  15.392  0.00  0.00    +0.000 HD
BRANCH  15  17
ATOM     17  C   UNL     1       5.664   4.126  15.137  0.00  0.00    +0.000 C 
ATOM     18  C   UNL     1       7.134   4.601  15.077  0.00  0.00    +0.000 C 
ATOM     19  C   UNL     1       6.851   5.170  13.670  0.00  0.00    +0.000 C 
ATOM     20  O   UNL     1       7.769   4.795  12.622  0.00  0.00    +0.000 OA
ATOM     21  C   UNL     1       7.139   3.800  11.804  0.00  0.00    +0.000 C 
ATOM     22  C   UNL     1       6.124   3.128  12.723  0.00  0.00    +0.000 C 
ATOM     23  C   UNL     1       5.602   4.268  13.598  0.00  0.00    +0.000 C 
ENDBRANCH  15  17
ENDBRANCH   1  14
TORSDOF 3
ENDMDL
MODEL 7
REMARK VINA RESULT:      -7.4      2.223      3.744
REMARK  Name = 
REMARK  3 active torsions:
REMARK  status: ('A' for Active; 'I' for Inactive)
REMARK    1  A    between atoms: C_2  and  C_11
REMARK    2  A    between atoms: N_3  and  C_4
REMARK    3  A    between atoms: C_15  and  C_16
REMARK                            x       y       z     vdW  Elec       q    Type
REMARK                         _______ _______ _______ _____ _____    ______ ____
ROOT
ATOM      1  C   UNL     1       3.260   3.482  19.882  0.00  0.00    +0.000 A 
ATOM      2  C   UNL     1       3.029   2.582  20.908  0.00  0.00    +0.000 A 
ATOM      3  N   UNL     1       2.325   3.256  21.854  0.00  0.00    +0.000 N 
ATOM      4  N   UNL     1       2.059   4.521  21.524  0.00  0.00    +0.000 NA
ATOM      5  C   UNL     1       2.604   4.686  20.303  0.00  0.00    +0.000 A 
ATOM      6  H   UNL     1       1.987   2.915  22.750  0.00  0.00    +0.000 HD
ENDROOT
BRANCH   5   7
ATOM      7  C   UNL     1       2.409   5.955  19.589  0.00  0.00    +0.000 A 
ATOM      8  C   UNL     1       2.735   6.057  18.227  0.00  0.00    +0.000 A 
ATOM      9  C   UNL     1       2.624   7.276  17.551  0.00  0.00    +0.000 A 
ATOM     10  C   UNL     1       2.180   8.410  18.227  0.00  0.00    +0.000 A 
ATOM     11  C   UNL     1       1.849   8.325  19.576  0.00  0.00    +0.000 A 
ATOM     12  C   UNL     1       1.971   7.109  20.253  0.00  0.00    +0.000 A 
ENDBRANCH   5   7
BRANCH   1  14
ATOM     13  O   UNL     1       3.650   2.434  17.803  0.00  0.00    +0.000 OA
ATOM     14  C   UNL     1       4.021   3.220  18.668  0.00  0.00    +0.000 C 
ATOM     15  N   UNL     1       5.214   3.910  18.581  0.00  0.00    +0.000 N 
ATOM     16  H   UNL     1       5.487   4.466  19.382  0.00  0.00    +0.000 HD
BRANCH  15  17
ATOM     17  C   UNL     1       6.167   3.669  17.475  0.00  0.00    +0.000 C 
ATOM     18  C   UNL     1       7.432   4.553  17.542  0.00  0.00    +0.000 C 
ATOM     19  C   UNL     1       6.762   5.520  16.542  0.00  0.00    +0.000 C 
ATOM     20  O   UNL     1       7.535   5.894  15.382  0.00  0.00    +0.000 OA
ATOM     21  C   UNL     1       7.037   5.166  14.251  0.00  0.00    +0.000 C 
ATOM     22  C   UNL     1       6.410   3.909  14.846  0.00  0.00    +0.000 C 
ATOM     23  C   UNL     1       5.788   4.386  16.158  0.00  0.00    +0.000 C 
ENDBRANCH  15  17
ENDBRANCH   1  14
TORSDOF 3
ENDMDL
MODEL 8
REMARK VINA RESULT:      -7.3      2.467      6.577
REMARK  Name = 
REMARK  3 active torsions:
REMARK  status: ('A' for Active; 'I' for Inactive)
REMARK    1  A    between atoms: C_2  and  C_11
REMARK    2  A    between atoms: N_3  and  C_4
REMARK    3  A    between atoms: C_15  and  C_16
REMARK                            x       y       z     vdW  Elec       q    Type
REMARK                         _______ _______ _______ _____ _____    ______ ____
ROOT
ATOM      1  C   UNL     1       5.494   4.314  15.593  0.00  0.00    +0.000 A 
ATOM      2  C   UNL     1       5.512   3.888  14.275  0.00  0.00    +0.000 A 
ATOM      3  N   UNL     1       6.621   4.434  13.714  0.00  0.00    +0.000 N 
ATOM      4  N   UNL     1       7.344   5.169  14.562  0.00  0.00    +0.000 NA
ATOM      5  C   UNL     1       6.687   5.097  15.735  0.00  0.00    +0.000 A 
ATOM      6  H   UNL     1       6.953   4.344  12.757  0.00  0.00    +0.000 HD
ENDROOT
BRANCH   5   7
ATOM      7  C   UNL     1       7.269   5.723  16.930  0.00  0.00    +0.000 A 
ATOM      8  C   UNL     1       7.563   4.946  18.063  0.00  0.00    +0.000 A 
ATOM      9  C   UNL     1       8.049   5.537  19.233  0.00  0.00    +0.000 A 
ATOM     10  C   UNL     1       8.252   6.914  19.286  0.00  0.00    +0.000 A 
ATOM     11  C   UNL     1       7.970   7.698  18.170  0.00  0.00    +0.000 A 
ATOM     12  C   UNL     1       7.473   7.107  17.005  0.00  0.00    +0.000 A 
ENDBRANCH   5   7
BRANCH   1  14
ATOM     13  O   UNL     1       4.236   2.882  16.986  0.00  0.00    +0.000 OA
ATOM     14  C   UNL     1       4.461   4.015  16.575  0.00  0.00    +0.000 C 
ATOM     15  N   UNL     1       3.731   5.113  16.988  0.00  0.00    +0.000 N 
ATOM     16  H   UNL     1       3.921   5.994  16.528  0.00  0.00    +0.000 HD
BRANCH  15  17
ATOM     17  C   UNL     1       2.565   4.971  17.887  0.00  0.00    +0.000 C 
ATOM     18  C   UNL     1       2.463   6.085  18.953  0.00  0.00    +0.000 C 
ATOM     19  C   UNL     1       3.152   5.135  19.956  0.00  0.00    +0.000 C 
ATOM     20  O   UNL     1       2.504   4.960  21.234  0.00  0.00    +0.000 OA
ATOM     21  C   UNL     1       1.847   3.685  21.238  0.00  0.00    +0.000 C 
ATOM     22  C   UNL     1       1.565   3.391  19.767  0.00  0.00    +0.000 C 
ATOM     23  C   UNL     1       2.781   3.955  19.033  0.00  0.00    +0.000 C 
ENDBRANCH  15  17
ENDBRANCH   1  14
TORSDOF 3
ENDMDL
MODEL 9
REMARK VINA RESULT:      -7.3      2.718      6.876
REMARK  Name = 
REMARK  3 active torsions:
REMARK  status: ('A' for Active; 'I' for Inactive)
REMARK    1  A    between atoms: C_2  and  C_11
REMARK    2  A    between atoms: N_3  and  C_4
REMARK    3  A    between atoms: C_15  and  C_16
REMARK                            x       y       z     vdW  Elec       q    Type
REMARK                         _______ _______ _______ _____ _____    ______ ____
ROOT
ATOM      1  C   UNL     1       5.207   5.070  16.105  0.00  0.00    +0.000 A 
ATOM      2  C   UNL     1       5.121   4.256  14.988  0.00  0.00    +0.000 A 
ATOM      3  N   UNL     1       6.347   4.281  14.404  0.00  0.00    +0.000 N 
ATOM      4  N   UNL     1       7.237   5.030  15.058  0.00  0.00    +0.000 NA
ATOM      5  C   UNL     1       6.571   5.513  16.124  0.00  0.00    +0.000 A 
ATOM      6  H   UNL     1       6.652   3.806  13.559  0.00  0.00    +0.000 HD
ENDROOT
BRANCH   5   7
ATOM      7  C   UNL     1       7.290   6.311  17.127  0.00  0.00    +0.000 A 
ATOM      8  C   UNL     1       7.676   5.733  18.347  0.00  0.00    +0.000 A 
ATOM      9  C   UNL     1       8.297   6.497  19.340  0.00  0.00    +0.000 A 
ATOM     10  C   UNL     1       8.545   7.851  19.125  0.00  0.00    +0.000 A 
ATOM     11  C   UNL     1       8.173   8.438  17.919  0.00  0.00    +0.000 A 
ATOM     12  C   UNL     1       7.542   7.676  16.932  0.00  0.00    +0.000 A 
ENDBRANCH   5   7
BRANCH   1  14
ATOM     13  O   UNL     1       3.719   6.527  17.216  0.00  0.00    +0.000 OA
ATOM     14  C   UNL     1       4.120   5.385  17.021  0.00  0.00    +0.000 C 
ATOM     15  N   UNL     1       3.591   4.291  17.679  0.00  0.00    +0.000 N 
ATOM     16  H   UNL     1       4.044   3.398  17.529  0.00  0.00    +0.000 HD
BRANCH  15  17
ATOM     17  C   UNL     1       2.566   4.446  18.734  0.00  0.00    +0.000 C 
ATOM     18  C   UNL     1       3.135   4.931  20.086  0.00  0.00    +0.000 C 
ATOM     19  C   UNL     1       3.167   3.461  20.556  0.00  0.00    +0.000 C 
ATOM     20  O   UNL     1       2.553   3.172  21.829  0.00  0.00    +0.000 OA
ATOM     21  C   UNL     1       1.284   2.549  21.589  0.00  0.00    +0.000 C 
ATOM     22  C   UNL     1       0.865   3.044  20.208  0.00  0.00    +0.000 C 
ATOM     23  C   UNL     1       2.175   3.119  19.424  0.00  0.00    +0.000 C 
ENDBRANCH  15  17
ENDBRANCH   1  14
TORSDOF 3
ENDMDL
