MODEL 1
REMARK VINA RESULT:      -8.7      0.000      0.000
REMARK  Name = 
REMARK  9 active torsions:
REMARK  status: ('A' for Active; 'I' for Inactive)
REMARK    1  A    between atoms: C_1  and  C_2
REMARK    2  A    between atoms: C_2  and  N_3
REMARK    3  A    between atoms: C_4  and  C_5
REMARK    4  A    between atoms: C_5  and  O_6
REMARK    5  A    between atoms: C_5  and  C_7
REMARK    6  A    between atoms: C_5  and  C_14
REMARK    7  A    between atoms: C_24  and  O_25
REMARK    8  A    between atoms: O_25  and  C_26
REMARK    9  A    between atoms: C_27  and  C_28
REMARK                            x       y       z     vdW  Elec       q    Type
REMARK                         _______ _______ _______ _____ _____    ______ ____
ROOT
ATOM      1  N   UNL     1       2.679   6.544  19.308  0.00  0.00    +0.000 N 
ATOM      2  C   UNL     1       3.268   6.395  18.060  0.00  0.00    +0.000 A 
ATOM      3  N   UNL     1       3.062   7.495  17.338  0.00  0.00    +0.000 NA
ATOM      4  C   UNL     1       2.382   8.363  18.132  0.00  0.00    +0.000 A 
ATOM      5  N   UNL     1       2.041   9.628  17.812  0.00  0.00    +0.000 NA
ATOM      6  C   UNL     1       1.377  10.306  18.778  0.00  0.00    +0.000 A 
ATOM      7  C   UNL     1       0.981   9.774  20.018  0.00  0.00    +0.000 A 
ATOM      8  C   UNL     1       1.334   8.449  20.302  0.00  0.00    +0.000 A 
ATOM      9  C   UNL     1       2.076   7.778  19.341  0.00  0.00    +0.000 A 
ENDROOT
BRANCH   7  10
ATOM     10  C   UNL     1       0.265  10.476  21.080  0.00  0.00    +0.000 A 
ATOM     11  N   UNL     1       0.437  10.305  22.381  0.00  0.00    +0.000 NA
ATOM     12  N   UNL     1      -0.423  11.158  23.015  0.00  0.00    +0.000 NA
ATOM     13  N   UNL     1      -1.129  11.844  22.137  0.00  0.00    +0.000 NA
ATOM     14  N   UNL     1      -0.713  11.424  20.938  0.00  0.00    +0.000 N 
ATOM     15  H   UNL     1      -1.102  11.811  20.086  0.00  0.00    +0.000 HD
ENDBRANCH   7  10
BRANCH   1  17
ATOM     16  C   UNL     1       1.426   5.004  20.822  0.00  0.00    +0.000 C 
ATOM     17  C   UNL     1       2.746   5.686  20.479  0.00  0.00    +0.000 C 
ENDBRANCH   1  17
BRANCH   6  18
ATOM     18  O   UNL     1       1.066  11.638  18.520  0.00  0.00    +0.000 OA
ATOM     19  C   UNL     1       2.229  12.476  18.454  0.00  0.00    +0.000 C 
ENDBRANCH   6  18
BRANCH   2  20
ATOM     20  C   UNL     1       3.988   5.143  17.528  0.00  0.00    +0.000 C 
BRANCH  20  21
ATOM     21  C   UNL     1       5.464   5.115  18.012  0.00  0.00    +0.000 A 
ATOM     22  C   UNL     1       5.901   5.703  19.217  0.00  0.00    +0.000 A 
ATOM     23  C   UNL     1       7.254   5.703  19.581  0.00  0.00    +0.000 A 
ATOM     24  C   UNL     1       8.203   5.122  18.749  0.00  0.00    +0.000 A 
ATOM     25  C   UNL     1       7.797   4.523  17.560  0.00  0.00    +0.000 A 
ATOM     26  C   UNL     1       6.447   4.517  17.211  0.00  0.00    +0.000 A 
ATOM     27  F   UNL     1       6.086   3.894  16.077  0.00  0.00    +0.000 F 
ENDBRANCH  20  21
BRANCH  20  28
ATOM     28  C   UNL     1       3.265   3.817  17.828  0.00  0.00    +0.000 A 
ATOM     29  C   UNL     1       3.949   2.766  18.483  0.00  0.00    +0.000 A 
ATOM     30  C   UNL     1       3.252   1.715  19.091  0.00  0.00    +0.000 A 
ATOM     31  C   UNL     1       1.862   1.670  19.032  0.00  0.00    +0.000 A 
ATOM     32  C   UNL     1       1.176   2.642  18.313  0.00  0.00    +0.000 A 
ATOM     33  C   UNL     1       1.872   3.693  17.716  0.00  0.00    +0.000 A 
ATOM     34  F   UNL     1       1.138   4.632  17.108  0.00  0.00    +0.000 F 
ENDBRANCH  20  28
BRANCH  20  35
ATOM     35  O   UNL     1       4.032   5.286  16.095  0.00  0.00    +0.000 OA
ATOM     36  H   UNL     1       4.971   5.188  15.855  0.00  0.00    +0.000 HD
ENDBRANCH  20  35
ENDBRANCH   2  20
TORSDOF 7
ENDMDL
MODEL 2
REMARK VINA RESULT:      -7.6      3.425      8.040
REMARK  Name = 
REMARK  9 active torsions:
REMARK  status: ('A' for Active; 'I' for Inactive)
REMARK    1  A    between atoms: C_1  and  C_2
REMARK    2  A    between atoms: C_2  and  N_3
REMARK    3  A    between atoms: C_4  and  C_5
REMARK    4  A    between atoms: C_5  and  O_6
REMARK    5  A    between atoms: C_5  and  C_7
REMARK    6  A    between atoms: C_5  and  C_14
REMARK    7  A    between atoms: C_24  and  O_25
REMARK    8  A    between atoms: O_25  and  C_26
REMARK    9  A    between atoms: C_27  and  C_28
REMARK                            x       y       z     vdW  Elec       q    Type
REMARK                         _______ _______ _______ _____ _____    ______ ____
ROOT
ATOM      1  N   UNL     1       0.776   8.911  20.071  0.00  0.00    +0.000 N 
ATOM      2  C   UNL     1       0.576  10.009  19.245  0.00  0.00    +0.000 A 
ATOM      3  N   UNL     1       1.367   9.912  18.178  0.00  0.00    +0.000 NA
ATOM      4  C   UNL     1       2.038   8.736  18.294  0.00  0.00    +0.000 A 
ATOM      5  N   UNL     1       2.886   8.216  17.383  0.00  0.00    +0.000 NA
ATOM      6  C   UNL     1       3.425   7.020  17.718  0.00  0.00    +0.000 A 
ATOM      7  C   UNL     1       3.215   6.345  18.934  0.00  0.00    +0.000 A 
ATOM      8  C   UNL     1       2.346   6.931  19.862  0.00  0.00    +0.000 A 
ATOM      9  C   UNL     1       1.739   8.121  19.490  0.00  0.00    +0.000 A 
ENDROOT
BRANCH   7  10
ATOM     10  C   UNL     1       3.780   5.057  19.325  0.00  0.00    +0.000 A 
ATOM     11  N   UNL     1       3.109   4.033  19.830  0.00  0.00    +0.000 NA
ATOM     12  N   UNL     1       4.013   3.030  20.049  0.00  0.00    +0.000 NA
ATOM     13  N   UNL     1       5.226   3.414  19.700  0.00  0.00    +0.000 NA
ATOM     14  N   UNL     1       5.091   4.668  19.257  0.00  0.00    +0.000 N 
ATOM     15  H   UNL     1       5.890   5.189  18.917  0.00  0.00    +0.000 HD
ENDBRANCH   7  10
BRANCH   1  17
ATOM     16  C   UNL     1       0.698   8.987  22.565  0.00  0.00    +0.000 C 
ATOM     17  C   UNL     1       0.061   8.501  21.268  0.00  0.00    +0.000 C 
ENDBRANCH   1  17
BRANCH   6  18
ATOM     18  O   UNL     1       4.251   6.410  16.777  0.00  0.00    +0.000 OA
ATOM     19  C   UNL     1       5.570   6.975  16.750  0.00  0.00    +0.000 C 
ENDBRANCH   6  18
BRANCH   2  20
ATOM     20  C   UNL     1      -0.347  11.210  19.523  0.00  0.00    +0.000 C 
BRANCH  20  21
ATOM     21  C   UNL     1       0.450  12.540  19.440  0.00  0.00    +0.000 A 
ATOM     22  C   UNL     1       0.157  13.570  18.521  0.00  0.00    +0.000 A 
ATOM     23  C   UNL     1       0.944  14.726  18.446  0.00  0.00    +0.000 A 
ATOM     24  C   UNL     1       2.042  14.882  19.281  0.00  0.00    +0.000 A 
ATOM     25  C   UNL     1       2.346  13.888  20.207  0.00  0.00    +0.000 A 
ATOM     26  C   UNL     1       1.551  12.744  20.283  0.00  0.00    +0.000 A 
ATOM     27  F   UNL     1       1.849  11.824  21.216  0.00  0.00    +0.000 F 
ENDBRANCH  20  21
BRANCH  20  28
ATOM     28  C   UNL     1      -1.617  11.251  18.653  0.00  0.00    +0.000 A 
ATOM     29  C   UNL     1      -1.760  10.362  17.562  0.00  0.00    +0.000 A 
ATOM     30  C   UNL     1      -3.014  10.115  16.988  0.00  0.00    +0.000 A 
ATOM     31  C   UNL     1      -4.145  10.770  17.467  0.00  0.00    +0.000 A 
ATOM     32  C   UNL     1      -4.011  11.717  18.476  0.00  0.00    +0.000 A 
ATOM     33  C   UNL     1      -2.763  11.955  19.052  0.00  0.00    +0.000 A 
ATOM     34  F   UNL     1      -2.726  12.822  20.070  0.00  0.00    +0.000 F 
ENDBRANCH  20  28
BRANCH  20  35
ATOM     35  O   UNL     1      -0.775  11.076  20.891  0.00  0.00    +0.000 OA
ATOM     36  H   UNL     1       0.027  11.210  21.427  0.00  0.00    +0.000 HD
ENDBRANCH  20  35
ENDBRANCH   2  20
TORSDOF 7
ENDMDL
MODEL 3
REMARK VINA RESULT:      -7.5      4.112      7.932
REMARK  Name = 
REMARK  9 active torsions:
REMARK  status: ('A' for Active; 'I' for Inactive)
REMARK    1  A    between atoms: C_1  and  C_2
REMARK    2  A    between atoms: C_2  and  N_3
REMARK    3  A    between atoms: C_4  and  C_5
REMARK    4  A    between atoms: C_5  and  O_6
REMARK    5  A    between atoms: C_5  and  C_7
REMARK    6  A    between atoms: C_5  and  C_14
REMARK    7  A    between atoms: C_24  and  O_25
REMARK    8  A    between atoms: O_25  and  C_26
REMARK    9  A    between atoms: C_27  and  C_28
REMARK                            x       y       z     vdW  Elec       q    Type
REMARK                         _______ _______ _______ _____ _____    ______ ____
ROOT
ATOM      1  N   UNL     1       4.165   4.116  16.849  0.00  0.00    +0.000 N 
ATOM      2  C   UNL     1       4.361   5.245  17.631  0.00  0.00    +0.000 A 
ATOM      3  N   UNL     1       5.293   6.015  17.073  0.00  0.00    +0.000 NA
ATOM      4  C   UNL     1       5.662   5.407  15.915  0.00  0.00    +0.000 A 
ATOM      5  N   UNL     1       6.528   5.896  15.005  0.00  0.00    +0.000 NA
ATOM      6  C   UNL     1       6.725   5.111  13.919  0.00  0.00    +0.000 A 
ATOM      7  C   UNL     1       6.155   3.840  13.721  0.00  0.00    +0.000 A 
ATOM      8  C   UNL     1       5.279   3.359  14.701  0.00  0.00    +0.000 A 
ATOM      9  C   UNL     1       5.023   4.194  15.779  0.00  0.00    +0.000 A 
ENDROOT
BRANCH   7  10
ATOM     10  C   UNL     1       6.347   2.970  12.564  0.00  0.00    +0.000 A 
ATOM     11  N   UNL     1       5.395   2.326  11.908  0.00  0.00    +0.000 NA
ATOM     12  N   UNL     1       6.002   1.634  10.896  0.00  0.00    +0.000 NA
ATOM     13  N   UNL     1       7.306   1.828  10.920  0.00  0.00    +0.000 NA
ATOM     14  N   UNL     1       7.528   2.648  11.952  0.00  0.00    +0.000 N 
ATOM     15  H   UNL     1       8.465   2.960  12.177  0.00  0.00    +0.000 HD
ENDBRANCH   7  10
BRANCH   1  17
ATOM     16  C   UNL     1       3.687   1.799  17.649  0.00  0.00    +0.000 C 
ATOM     17  C   UNL     1       3.171   3.061  16.966  0.00  0.00    +0.000 C 
ENDBRANCH   1  17
BRANCH   6  18
ATOM     18  O   UNL     1       7.557   5.607  12.919  0.00  0.00    +0.000 OA
ATOM     19  C   UNL     1       8.924   5.719  13.342  0.00  0.00    +0.000 C 
ENDBRANCH   6  18
BRANCH   2  20
ATOM     20  C   UNL     1       3.685   5.557  18.979  0.00  0.00    +0.000 C 
BRANCH  20  21
ATOM     21  C   UNL     1       2.848   6.861  18.880  0.00  0.00    +0.000 A 
ATOM     22  C   UNL     1       2.786   7.664  17.721  0.00  0.00    +0.000 A 
ATOM     23  C   UNL     1       2.064   8.863  17.701  0.00  0.00    +0.000 A 
ATOM     24  C   UNL     1       1.390   9.294  18.836  0.00  0.00    +0.000 A 
ATOM     25  C   UNL     1       1.422   8.515  19.990  0.00  0.00    +0.000 A 
ATOM     26  C   UNL     1       2.135   7.316  19.998  0.00  0.00    +0.000 A 
ATOM     27  F   UNL     1       2.111   6.569  21.114  0.00  0.00    +0.000 F 
ENDBRANCH  20  21
BRANCH  20  28
ATOM     28  C   UNL     1       2.862   4.394  19.563  0.00  0.00    +0.000 A 
ATOM     29  C   UNL     1       3.328   3.694  20.701  0.00  0.00    +0.000 A 
ATOM     30  C   UNL     1       2.466   2.900  21.467  0.00  0.00    +0.000 A 
ATOM     31  C   UNL     1       1.131   2.760  21.100  0.00  0.00    +0.000 A 
ATOM     32  C   UNL     1       0.675   3.364  19.933  0.00  0.00    +0.000 A 
ATOM     33  C   UNL     1       1.533   4.162  19.176  0.00  0.00    +0.000 A 
ATOM     34  F   UNL     1       1.004   4.772  18.110  0.00  0.00    +0.000 F 
ENDBRANCH  20  28
BRANCH  20  35
ATOM     35  O   UNL     1       4.753   5.828  19.908  0.00  0.00    +0.000 OA
ATOM     36  H   UNL     1       5.366   5.076  19.822  0.00  0.00    +0.000 HD
ENDBRANCH  20  35
ENDBRANCH   2  20
TORSDOF 7
ENDMDL
MODEL 4
REMARK VINA RESULT:      -7.4      3.302      8.396
REMARK  Name = 
REMARK  9 active torsions:
REMARK  status: ('A' for Active; 'I' for Inactive)
REMARK    1  A    between atoms: C_1  and  C_2
REMARK    2  A    between atoms: C_2  and  N_3
REMARK    3  A    between atoms: C_4  and  C_5
REMARK    4  A    between atoms: C_5  and  O_6
REMARK    5  A    between atoms: C_5  and  C_7
REMARK    6  A    between atoms: C_5  and  C_14
REMARK    7  A    between atoms: C_24  and  O_25
REMARK    8  A    between atoms: O_25  and  C_26
REMARK    9  A    between atoms: C_27  and  C_28
REMARK                            x       y       z     vdW  Elec       q    Type
REMARK                         _______ _______ _______ _____ _____    ______ ____
ROOT
ATOM      1  N   UNL     1       1.299   8.807  19.605  0.00  0.00    +0.000 N 
ATOM      2  C   UNL     1       1.297   9.799  18.634  0.00  0.00    +0.000 A 
ATOM      3  N   UNL     1       2.116   9.452  17.642  0.00  0.00    +0.000 NA
ATOM      4  C   UNL     1       2.607   8.224  17.952  0.00  0.00    +0.000 A 
ATOM      5  N   UNL     1       3.415   7.475  17.174  0.00  0.00    +0.000 NA
ATOM      6  C   UNL     1       3.761   6.274  17.694  0.00  0.00    +0.000 A 
ATOM      7  C   UNL     1       3.399   5.805  18.970  0.00  0.00    +0.000 A 
ATOM      8  C   UNL     1       2.579   6.624  19.756  0.00  0.00    +0.000 A 
ATOM      9  C   UNL     1       2.167   7.823  19.194  0.00  0.00    +0.000 A 
ENDROOT
BRANCH   7  10
ATOM     10  C   UNL     1       3.756   4.518  19.559  0.00  0.00    +0.000 A 
ATOM     11  N   UNL     1       2.993   3.789  20.359  0.00  0.00    +0.000 NA
ATOM     12  N   UNL     1       3.703   2.664  20.675  0.00  0.00    +0.000 NA
ATOM     13  N   UNL     1       4.889   2.686  20.098  0.00  0.00    +0.000 NA
ATOM     14  N   UNL     1       4.931   3.832  19.410  0.00  0.00    +0.000 N 
ATOM     15  H   UNL     1       5.746   4.082  18.864  0.00  0.00    +0.000 HD
ENDBRANCH   7  10
BRANCH   1  17
ATOM     16  C   UNL     1       1.223   8.925  22.098  0.00  0.00    +0.000 C 
ATOM     17  C   UNL     1       0.476   8.663  20.794  0.00  0.00    +0.000 C 
ENDBRANCH   1  17
BRANCH   6  18
ATOM     18  O   UNL     1       4.537   5.436  16.896  0.00  0.00    +0.000 OA
ATOM     19  C   UNL     1       5.799   6.020  16.544  0.00  0.00    +0.000 C 
ENDBRANCH   6  18
BRANCH   2  20
ATOM     20  C   UNL     1       0.542  11.139  18.694  0.00  0.00    +0.000 C 
BRANCH  20  21
ATOM     21  C   UNL     1      -0.948  10.944  18.301  0.00  0.00    +0.000 A 
ATOM     22  C   UNL     1      -1.532   9.684  18.055  0.00  0.00    +0.000 A 
ATOM     23  C   UNL     1      -2.866   9.564  17.646  0.00  0.00    +0.000 A 
ATOM     24  C   UNL     1      -3.648  10.698  17.466  0.00  0.00    +0.000 A 
ATOM     25  C   UNL     1      -3.101  11.954  17.715  0.00  0.00    +0.000 A 
ATOM     26  C   UNL     1      -1.775  12.063  18.134  0.00  0.00    +0.000 A 
ATOM     27  F   UNL     1      -1.293  13.288  18.404  0.00  0.00    +0.000 F 
ENDBRANCH  20  21
BRANCH  20  28
ATOM     28  C   UNL     1       0.685  11.893  20.029  0.00  0.00    +0.000 A 
ATOM     29  C   UNL     1       1.713  12.849  20.199  0.00  0.00    +0.000 A 
ATOM     30  C   UNL     1       1.659  13.797  21.228  0.00  0.00    +0.000 A 
ATOM     31  C   UNL     1       0.598  13.793  22.129  0.00  0.00    +0.000 A 
ATOM     32  C   UNL     1      -0.374  12.803  22.037  0.00  0.00    +0.000 A 
ATOM     33  C   UNL     1      -0.323  11.866  21.005  0.00  0.00    +0.000 A 
ATOM     34  F   UNL     1      -1.334  10.993  20.934  0.00  0.00    +0.000 F 
ENDBRANCH  20  28
BRANCH  20  35
ATOM     35  O   UNL     1       1.126  11.972  17.674  0.00  0.00    +0.000 OA
ATOM     36  H   UNL     1       2.086  11.818  17.733  0.00  0.00    +0.000 HD
ENDBRANCH  20  35
ENDBRANCH   2  20
TORSDOF 7
ENDMDL
MODEL 5
REMARK VINA RESULT:      -7.3      1.454      3.464
REMARK  Name = 
REMARK  9 active torsions:
REMARK  status: ('A' for Active; 'I' for Inactive)
REMARK    1  A    between atoms: C_1  and  C_2
REMARK    2  A    between atoms: C_2  and  N_3
REMARK    3  A    between atoms: C_4  and  C_5
REMARK    4  A    between atoms: C_5  and  O_6
REMARK    5  A    between atoms: C_5  and  C_7
REMARK    6  A    between atoms: C_5  and  C_14
REMARK    7  A    between atoms: C_24  and  O_25
REMARK    8  A    between atoms: O_25  and  C_26
REMARK    9  A    between atoms: C_27  and  C_28
REMARK                            x       y       z     vdW  Elec       q    Type
REMARK                         _______ _______ _______ _____ _____    ______ ____
ROOT
ATOM      1  N   UNL     1       2.484   6.701  19.819  0.00  0.00    +0.000 N 
ATOM      2  C   UNL     1       3.193   6.470  18.649  0.00  0.00    +0.000 A 
ATOM      3  N   UNL     1       3.064   7.518  17.837  0.00  0.00    +0.000 NA
ATOM      4  C   UNL     1       2.312   8.436  18.499  0.00  0.00    +0.000 A 
ATOM      5  N   UNL     1       2.009   9.675  18.062  0.00  0.00    +0.000 NA
ATOM      6  C   UNL     1       1.255  10.415  18.909  0.00  0.00    +0.000 A 
ATOM      7  C   UNL     1       0.736   9.967  20.137  0.00  0.00    +0.000 A 
ATOM      8  C   UNL     1       1.054   8.666  20.544  0.00  0.00    +0.000 A 
ATOM      9  C   UNL     1       1.885   7.933  19.708  0.00  0.00    +0.000 A 
ENDROOT
BRANCH   7  10
ATOM     10  C   UNL     1      -0.079  10.738  21.072  0.00  0.00    +0.000 A 
ATOM     11  N   UNL     1       0.015  10.711  22.393  0.00  0.00    +0.000 NA
ATOM     12  N   UNL     1      -0.923  11.580  22.879  0.00  0.00    +0.000 NA
ATOM     13  N   UNL     1      -1.600  12.133  21.891  0.00  0.00    +0.000 NA
ATOM     14  N   UNL     1      -1.088  11.613  20.771  0.00  0.00    +0.000 N 
ATOM     15  H   UNL     1      -1.437  11.890  19.862  0.00  0.00    +0.000 HD
ENDBRANCH   7  10
BRANCH   1  17
ATOM     16  C   UNL     1       1.291   4.911  21.088  0.00  0.00    +0.000 C 
ATOM     17  C   UNL     1       2.430   5.924  21.047  0.00  0.00    +0.000 C 
ENDBRANCH   1  17
BRANCH   6  18
ATOM     18  O   UNL     1       0.977  11.726  18.532  0.00  0.00    +0.000 OA
ATOM     19  C   UNL     1       2.129  12.578  18.598  0.00  0.00    +0.000 C 
ENDBRANCH   6  18
BRANCH   2  20
ATOM     20  C   UNL     1       3.958   5.187  18.277  0.00  0.00    +0.000 C 
BRANCH  20  21
ATOM     21  C   UNL     1       3.088   3.932  18.562  0.00  0.00    +0.000 A 
ATOM     22  C   UNL     1       3.524   2.840  19.340  0.00  0.00    +0.000 A 
ATOM     23  C   UNL     1       2.724   1.704  19.518  0.00  0.00    +0.000 A 
ATOM     24  C   UNL     1       1.472   1.629  18.922  0.00  0.00    +0.000 A 
ATOM     25  C   UNL     1       1.010   2.698  18.160  0.00  0.00    +0.000 A 
ATOM     26  C   UNL     1       1.809   3.830  17.996  0.00  0.00    +0.000 A 
ATOM     27  F   UNL     1       1.315   4.860  17.289  0.00  0.00    +0.000 F 
ENDBRANCH  20  21
BRANCH  20  28
ATOM     28  C   UNL     1       4.524   5.175  16.845  0.00  0.00    +0.000 A 
ATOM     29  C   UNL     1       4.872   6.389  16.208  0.00  0.00    +0.000 A 
ATOM     30  C   UNL     1       5.710   6.405  15.086  0.00  0.00    +0.000 A 
ATOM     31  C   UNL     1       6.193   5.212  14.555  0.00  0.00    +0.000 A 
ATOM     32  C   UNL     1       5.786   4.003  15.109  0.00  0.00    +0.000 A 
ATOM     33  C   UNL     1       4.959   3.989  16.232  0.00  0.00    +0.000 A 
ATOM     34  F   UNL     1       4.674   2.792  16.756  0.00  0.00    +0.000 F 
ENDBRANCH  20  28
BRANCH  20  35
ATOM     35  O   UNL     1       5.081   5.116  19.176  0.00  0.00    +0.000 OA
ATOM     36  H   UNL     1       5.516   4.267  18.979  0.00  0.00    +0.000 HD
ENDBRANCH  20  35
ENDBRANCH   2  20
TORSDOF 7
ENDMDL
MODEL 6
REMARK VINA RESULT:      -7.3      1.363      3.369
REMARK  Name = 
REMARK  9 active torsions:
REMARK  status: ('A' for Active; 'I' for Inactive)
REMARK    1  A    between atoms: C_1  and  C_2
REMARK    2  A    between atoms: C_2  and  N_3
REMARK    3  A    between atoms: C_4  and  C_5
REMARK    4  A    between atoms: C_5  and  O_6
REMARK    5  A    between atoms: C_5  and  C_7
REMARK    6  A    between atoms: C_5  and  C_14
REMARK    7  A    between atoms: C_24  and  O_25
REMARK    8  A    between atoms: O_25  and  C_26
REMARK    9  A    between atoms: C_27  and  C_28
REMARK                            x       y       z     vdW  Elec       q    Type
REMARK                         _______ _______ _______ _____ _____    ______ ____
ROOT
ATOM      1  N   UNL     1       2.497   6.886  19.702  0.00  0.00    +0.000 N 
ATOM      2  C   UNL     1       3.326   6.627  18.619  0.00  0.00    +0.000 A 
ATOM      3  N   UNL     1       3.259   7.640  17.757  0.00  0.00    +0.000 NA
ATOM      4  C   UNL     1       2.427   8.564  18.302  0.00  0.00    +0.000 A 
ATOM      5  N   UNL     1       2.146   9.778  17.786  0.00  0.00    +0.000 NA
ATOM      6  C   UNL     1       1.296  10.533  18.523  0.00  0.00    +0.000 A 
ATOM      7  C   UNL     1       0.663  10.120  19.709  0.00  0.00    +0.000 A 
ATOM      8  C   UNL     1       0.963   8.843  20.198  0.00  0.00    +0.000 A 
ATOM      9  C   UNL     1       1.888   8.099  19.481  0.00  0.00    +0.000 A 
ENDROOT
BRANCH   7  10
ATOM     10  C   UNL     1      -0.258  10.907  20.525  0.00  0.00    +0.000 A 
ATOM     11  N   UNL     1      -0.262  10.977  21.847  0.00  0.00    +0.000 NA
ATOM     12  N   UNL     1      -1.276  11.824  22.201  0.00  0.00    +0.000 NA
ATOM     13  N   UNL     1      -1.904  12.269  21.130  0.00  0.00    +0.000 NA
ATOM     14  N   UNL     1      -1.284  11.702  20.090  0.00  0.00    +0.000 N 
ATOM     15  H   UNL     1      -1.577  11.895  19.140  0.00  0.00    +0.000 HD
ENDBRANCH   7  10
BRANCH   1  17
ATOM     16  C   UNL     1       1.230   5.105  20.909  0.00  0.00    +0.000 C 
ATOM     17  C   UNL     1       2.334   6.156  20.948  0.00  0.00    +0.000 C 
ENDBRANCH   1  17
BRANCH   6  18
ATOM     18  O   UNL     1       1.031  11.821  18.066  0.00  0.00    +0.000 OA
ATOM     19  C   UNL     1       2.127  12.722  18.286  0.00  0.00    +0.000 C 
ENDBRANCH   6  18
BRANCH   2  20
ATOM     20  C   UNL     1       4.149   5.348  18.379  0.00  0.00    +0.000 C 
BRANCH  20  21
ATOM     21  C   UNL     1       3.230   4.096  18.401  0.00  0.00    +0.000 A 
ATOM     22  C   UNL     1       1.893   4.101  17.950  0.00  0.00    +0.000 A 
ATOM     23  C   UNL     1       1.087   2.960  18.046  0.00  0.00    +0.000 A 
ATOM     24  C   UNL     1       1.591   1.789  18.597  0.00  0.00    +0.000 A 
ATOM     25  C   UNL     1       2.912   1.753  19.038  0.00  0.00    +0.000 A 
ATOM     26  C   UNL     1       3.712   2.890  18.928  0.00  0.00    +0.000 A 
ATOM     27  F   UNL     1       4.993   2.807  19.324  0.00  0.00    +0.000 F 
ENDBRANCH  20  21
BRANCH  20  28
ATOM     28  C   UNL     1       5.031   5.386  17.117  0.00  0.00    +0.000 A 
ATOM     29  C   UNL     1       6.245   6.113  17.120  0.00  0.00    +0.000 A 
ATOM     30  C   UNL     1       7.231   5.881  16.153  0.00  0.00    +0.000 A 
ATOM     31  C   UNL     1       7.018   4.944  15.146  0.00  0.00    +0.000 A 
ATOM     32  C   UNL     1       5.795   4.287  15.071  0.00  0.00    +0.000 A 
ATOM     33  C   UNL     1       4.817   4.513  16.040  0.00  0.00    +0.000 A 
ATOM     34  F   UNL     1       3.698   3.787  15.946  0.00  0.00    +0.000 F 
ENDBRANCH  20  28
BRANCH  20  35
ATOM     35  O   UNL     1       5.033   5.224  19.510  0.00  0.00    +0.000 OA
ATOM     36  H   UNL     1       4.791   4.382  19.935  0.00  0.00    +0.000 HD
ENDBRANCH  20  35
ENDBRANCH   2  20
TORSDOF 7
ENDMDL
MODEL 7
REMARK VINA RESULT:      -7.3      3.602      8.193
REMARK  Name = 
REMARK  9 active torsions:
REMARK  status: ('A' for Active; 'I' for Inactive)
REMARK    1  A    between atoms: C_1  and  C_2
REMARK    2  A    between atoms: C_2  and  N_3
REMARK    3  A    between atoms: C_4  and  C_5
REMARK    4  A    between atoms: C_5  and  O_6
REMARK    5  A    between atoms: C_5  and  C_7
REMARK    6  A    between atoms: C_5  and  C_14
REMARK    7  A    between atoms: C_24  and  O_25
REMARK    8  A    between atoms: O_25  and  C_26
REMARK    9  A    between atoms: C_27  and  C_28
REMARK                            x       y       z     vdW  Elec       q    Type
REMARK                         _______ _______ _______ _____ _____    ______ ____
ROOT
ATOM      1  N   UNL     1       0.585   9.414  20.367  0.00  0.00    +0.000 N 
ATOM      2  C   UNL     1       0.682  10.457  19.456  0.00  0.00    +0.000 A 
ATOM      3  N   UNL     1       1.488  10.101  18.457  0.00  0.00    +0.000 NA
ATOM      4  C   UNL     1       1.873   8.821  18.702  0.00  0.00    +0.000 A 
ATOM      5  N   UNL     1       2.632   8.054  17.893  0.00  0.00    +0.000 NA
ATOM      6  C   UNL     1       2.870   6.801  18.347  0.00  0.00    +0.000 A 
ATOM      7  C   UNL     1       2.447   6.291  19.588  0.00  0.00    +0.000 A 
ATOM      8  C   UNL     1       1.681   7.128  20.409  0.00  0.00    +0.000 A 
ATOM      9  C   UNL     1       1.378   8.387  19.912  0.00  0.00    +0.000 A 
ENDROOT
BRANCH   7  10
ATOM     10  C   UNL     1       2.687   4.948  20.107  0.00  0.00    +0.000 A 
ATOM     11  N   UNL     1       2.092   4.399  21.155  0.00  0.00    +0.000 NA
ATOM     12  N   UNL     1       2.601   3.137  21.291  0.00  0.00    +0.000 NA
ATOM     13  N   UNL     1       3.502   2.898  20.358  0.00  0.00    +0.000 NA
ATOM     14  N   UNL     1       3.565   4.015  19.626  0.00  0.00    +0.000 N 
ATOM     15  H   UNL     1       4.187   4.081  18.829  0.00  0.00    +0.000 HD
ENDBRANCH   7  10
BRANCH   1  17
ATOM     16  C   UNL     1       0.464   9.433  22.861  0.00  0.00    +0.000 C 
ATOM     17  C   UNL     1      -0.270   9.271  21.534  0.00  0.00    +0.000 C 
ENDBRANCH   1  17
BRANCH   6  18
ATOM     18  O   UNL     1       3.590   5.949  17.514  0.00  0.00    +0.000 OA
ATOM     19  C   UNL     1       4.853   6.502  17.114  0.00  0.00    +0.000 C 
ENDBRANCH   6  18
BRANCH   2  20
ATOM     20  C   UNL     1       0.037  11.849  19.582  0.00  0.00    +0.000 C 
BRANCH  20  21
ATOM     21  C   UNL     1       1.004  12.947  19.063  0.00  0.00    +0.000 A 
ATOM     22  C   UNL     1       2.271  12.673  18.508  0.00  0.00    +0.000 A 
ATOM     23  C   UNL     1       3.132  13.703  18.108  0.00  0.00    +0.000 A 
ATOM     24  C   UNL     1       2.752  15.030  18.256  0.00  0.00    +0.000 A 
ATOM     25  C   UNL     1       1.501  15.330  18.788  0.00  0.00    +0.000 A 
ATOM     26  C   UNL     1       0.645  14.298  19.173  0.00  0.00    +0.000 A 
ATOM     27  F   UNL     1      -0.571  14.622  19.644  0.00  0.00    +0.000 F 
ENDBRANCH  20  21
BRANCH  20  28
ATOM     28  C   UNL     1      -1.358  11.966  18.939  0.00  0.00    +0.000 A 
ATOM     29  C   UNL     1      -1.556  11.568  17.596  0.00  0.00    +0.000 A 
ATOM     30  C   UNL     1      -2.840  11.314  17.097  0.00  0.00    +0.000 A 
ATOM     31  C   UNL     1      -3.954  11.481  17.915  0.00  0.00    +0.000 A 
ATOM     32  C   UNL     1      -3.788  11.961  19.209  0.00  0.00    +0.000 A 
ATOM     33  C   UNL     1      -2.508  12.205  19.706  0.00  0.00    +0.000 A 
ATOM     34  F   UNL     1      -2.422  12.590  20.984  0.00  0.00    +0.000 F 
ENDBRANCH  20  28
BRANCH  20  35
ATOM     35  O   UNL     1      -0.128  12.086  20.994  0.00  0.00    +0.000 OA
ATOM     36  H   UNL     1      -0.745  12.837  21.059  0.00  0.00    +0.000 HD
ENDBRANCH  20  35
ENDBRANCH   2  20
TORSDOF 7
ENDMDL
MODEL 8
REMARK VINA RESULT:      -7.3      1.370      3.561
REMARK  Name = 
REMARK  9 active torsions:
REMARK  status: ('A' for Active; 'I' for Inactive)
REMARK    1  A    between atoms: C_1  and  C_2
REMARK    2  A    between atoms: C_2  and  N_3
REMARK    3  A    between atoms: C_4  and  C_5
REMARK    4  A    between atoms: C_5  and  O_6
REMARK    5  A    between atoms: C_5  and  C_7
REMARK    6  A    between atoms: C_5  and  C_14
REMARK    7  A    between atoms: C_24  and  O_25
REMARK    8  A    between atoms: O_25  and  C_26
REMARK    9  A    between atoms: C_27  and  C_28
REMARK                            x       y       z     vdW  Elec       q    Type
REMARK                         _______ _______ _______ _____ _____    ______ ____
ROOT
ATOM      1  N   UNL     1       2.754   6.494  19.608  0.00  0.00    +0.000 N 
ATOM      2  C   UNL     1       3.654   6.204  18.592  0.00  0.00    +0.000 A 
ATOM      3  N   UNL     1       3.656   7.196  17.704  0.00  0.00    +0.000 NA
ATOM      4  C   UNL     1       2.795   8.139  18.168  0.00  0.00    +0.000 A 
ATOM      5  N   UNL     1       2.562   9.342  17.605  0.00  0.00    +0.000 NA
ATOM      6  C   UNL     1       1.668  10.120  18.262  0.00  0.00    +0.000 A 
ATOM      7  C   UNL     1       0.950   9.740  19.411  0.00  0.00    +0.000 A 
ATOM      8  C   UNL     1       1.205   8.473  19.950  0.00  0.00    +0.000 A 
ATOM      9  C   UNL     1       2.172   7.705  19.317  0.00  0.00    +0.000 A 
ENDROOT
BRANCH   7  10
ATOM     10  C   UNL     1      -0.019  10.552  20.142  0.00  0.00    +0.000 A 
ATOM     11  N   UNL     1      -0.126  10.640  21.458  0.00  0.00    +0.000 NA
ATOM     12  N   UNL     1      -1.150  11.507  21.721  0.00  0.00    +0.000 NA
ATOM     13  N   UNL     1      -1.684  11.948  20.598  0.00  0.00    +0.000 NA
ATOM     14  N   UNL     1      -0.993  11.358  19.617  0.00  0.00    +0.000 N 
ATOM     15  H   UNL     1      -1.207  11.543  18.645  0.00  0.00    +0.000 HD
ENDBRANCH   7  10
BRANCH   1  17
ATOM     16  C   UNL     1       1.277   4.883  20.815  0.00  0.00    +0.000 C 
ATOM     17  C   UNL     1       2.498   5.795  20.856  0.00  0.00    +0.000 C 
ENDBRANCH   1  17
BRANCH   6  18
ATOM     18  O   UNL     1       1.447  11.399  17.759  0.00  0.00    +0.000 OA
ATOM     19  C   UNL     1       2.474  12.327  18.136  0.00  0.00    +0.000 C 
ENDBRANCH   6  18
BRANCH   2  20
ATOM     20  C   UNL     1       4.481   4.914  18.440  0.00  0.00    +0.000 C 
BRANCH  20  21
ATOM     21  C   UNL     1       3.573   3.663  18.587  0.00  0.00    +0.000 A 
ATOM     22  C   UNL     1       3.934   2.518  19.327  0.00  0.00    +0.000 A 
ATOM     23  C   UNL     1       3.105   1.391  19.379  0.00  0.00    +0.000 A 
ATOM     24  C   UNL     1       1.898   1.377  18.693  0.00  0.00    +0.000 A 
ATOM     25  C   UNL     1       1.509   2.499  17.966  0.00  0.00    +0.000 A 
ATOM     26  C   UNL     1       2.336   3.622  17.928  0.00  0.00    +0.000 A 
ATOM     27  F   UNL     1       1.911   4.701  17.251  0.00  0.00    +0.000 F 
ENDBRANCH  20  21
BRANCH  20  28
ATOM     28  C   UNL     1       5.334   4.852  17.160  0.00  0.00    +0.000 A 
ATOM     29  C   UNL     1       4.894   4.096  16.048  0.00  0.00    +0.000 A 
ATOM     30  C   UNL     1       5.433   4.302  14.772  0.00  0.00    +0.000 A 
ATOM     31  C   UNL     1       6.442   5.241  14.581  0.00  0.00    +0.000 A 
ATOM     32  C   UNL     1       6.954   5.928  15.676  0.00  0.00    +0.000 A 
ATOM     33  C   UNL     1       6.410   5.728  16.945  0.00  0.00    +0.000 A 
ATOM     34  F   UNL     1       6.900   6.481  17.936  0.00  0.00    +0.000 F 
ENDBRANCH  20  28
BRANCH  20  35
ATOM     35  O   UNL     1       5.392   4.890  19.556  0.00  0.00    +0.000 OA
ATOM     36  H   UNL     1       5.602   5.823  19.738  0.00  0.00    +0.000 HD
ENDBRANCH  20  35
ENDBRANCH   2  20
TORSDOF 7
ENDMDL
MODEL 9
REMARK VINA RESULT:      -7.3      1.584      3.585
REMARK  Name = 
REMARK  9 active torsions:
REMARK  status: ('A' for Active; 'I' for Inactive)
REMARK    1  A    between atoms: C_1  and  C_2
REMARK    2  A    between atoms: C_2  and  N_3
REMARK    3  A    between atoms: C_4  and  C_5
REMARK    4  A    between atoms: C_5  and  O_6
REMARK    5  A    between atoms: C_5  and  C_7
REMARK    6  A    between atoms: C_5  and  C_14
REMARK    7  A    between atoms: C_24  and  O_25
REMARK    8  A    between atoms: O_25  and  C_26
REMARK    9  A    between atoms: C_27  and  C_28
REMARK                            x       y       z     vdW  Elec       q    Type
REMARK                         _______ _______ _______ _____ _____    ______ ____
ROOT
ATOM      1  N   UNL     1       2.642   6.578  19.641  0.00  0.00    +0.000 N 
ATOM      2  C   UNL     1       3.509   6.255  18.606  0.00  0.00    +0.000 A 
ATOM      3  N   UNL     1       3.524   7.245  17.715  0.00  0.00    +0.000 NA
ATOM      4  C   UNL     1       2.706   8.217  18.195  0.00  0.00    +0.000 A 
ATOM      5  N   UNL     1       2.500   9.426  17.635  0.00  0.00    +0.000 NA
ATOM      6  C   UNL     1       1.648  10.234  18.310  0.00  0.00    +0.000 A 
ATOM      7  C   UNL     1       0.945   9.881  19.475  0.00  0.00    +0.000 A 
ATOM      8  C   UNL     1       1.169   8.608  20.012  0.00  0.00    +0.000 A 
ATOM      9  C   UNL     1       2.095   7.807  19.360  0.00  0.00    +0.000 A 
ENDROOT
BRANCH   7  10
ATOM     10  C   UNL     1       0.020  10.727  20.226  0.00  0.00    +0.000 A 
ATOM     11  N   UNL     1      -0.051  10.825  21.544  0.00  0.00    +0.000 NA
ATOM     12  N   UNL     1      -1.041  11.725  21.827  0.00  0.00    +0.000 NA
ATOM     13  N   UNL     1      -1.589  12.177  20.715  0.00  0.00    +0.000 NA
ATOM     14  N   UNL     1      -0.942  11.560  19.721  0.00  0.00    +0.000 N 
ATOM     15  H   UNL     1      -1.174  11.747  18.753  0.00  0.00    +0.000 HD
ENDBRANCH   7  10
BRANCH   1  17
ATOM     16  C   UNL     1       1.217   4.919  20.846  0.00  0.00    +0.000 C 
ATOM     17  C   UNL     1       2.391   5.890  20.897  0.00  0.00    +0.000 C 
ENDBRANCH   1  17
BRANCH   6  18
ATOM     18  O   UNL     1       1.459  11.519  17.807  0.00  0.00    +0.000 OA
ATOM     19  C   UNL     1       2.513  12.419  18.178  0.00  0.00    +0.000 C 
ENDBRANCH   6  18
BRANCH   2  20
ATOM     20  C   UNL     1       4.288   4.938  18.439  0.00  0.00    +0.000 C 
BRANCH  20  21
ATOM     21  C   UNL     1       3.320   3.724  18.468  0.00  0.00    +0.000 A 
ATOM     22  C   UNL     1       2.032   3.738  17.894  0.00  0.00    +0.000 A 
ATOM     23  C   UNL     1       1.173   2.637  17.999  0.00  0.00    +0.000 A 
ATOM     24  C   UNL     1       1.576   1.497  18.683  0.00  0.00    +0.000 A 
ATOM     25  C   UNL     1       2.848   1.450  19.247  0.00  0.00    +0.000 A 
ATOM     26  C   UNL     1       3.702   2.547  19.128  0.00  0.00    +0.000 A 
ATOM     27  F   UNL     1       4.936   2.452  19.649  0.00  0.00    +0.000 F 
ENDBRANCH  20  21
BRANCH  20  28
ATOM     28  C   UNL     1       5.216   4.898  17.210  0.00  0.00    +0.000 A 
ATOM     29  C   UNL     1       4.819   4.206  16.042  0.00  0.00    +0.000 A 
ATOM     30  C   UNL     1       5.442   4.445  14.811  0.00  0.00    +0.000 A 
ATOM     31  C   UNL     1       6.492   5.354  14.722  0.00  0.00    +0.000 A 
ATOM     32  C   UNL     1       6.959   5.975  15.875  0.00  0.00    +0.000 A 
ATOM     33  C   UNL     1       6.332   5.742  17.099  0.00  0.00    +0.000 A 
ATOM     34  F   UNL     1       6.786   6.434  18.150  0.00  0.00    +0.000 F 
ENDBRANCH  20  28
BRANCH  20  35
ATOM     35  O   UNL     1       5.126   4.819  19.605  0.00  0.00    +0.000 OA
ATOM     36  H   UNL     1       5.393   5.730  19.824  0.00  0.00    +0.000 HD
ENDBRANCH  20  35
ENDBRANCH   2  20
TORSDOF 7
ENDMDL
