MODEL 1
REMARK VINA RESULT:      -8.3      0.000      0.000
REMARK  Name = 
REMARK  12 active torsions:
REMARK  status: ('A' for Active; 'I' for Inactive)
REMARK    1  A    between atoms: C_2  and  C_3
REMARK    2  A    between atoms: C_3  and  C_4
REMARK    3  A    between atoms: C_4  and  C_5
REMARK    4  A    between atoms: C_5  and  C_6
REMARK    5  A    between atoms: C_6  and  C_7
REMARK    6  A    between atoms: C_7  and  C_8
REMARK    7  A    between atoms: C_8  and  O_9
REMARK    8  A    between atoms: O_9  and  C_10
REMARK    9  A    between atoms: C_13  and  N_14
REMARK   10  A    between atoms: C_15  and  C_17
REMARK   11  A    between atoms: C_17  and  C_18
REMARK   12  A    between atoms: N_30  and  O_31
REMARK                            x       y       z     vdW  Elec       q    Type
REMARK                         _______ _______ _______ _____ _____    ______ ____
ROOT
ATOM      1  C   UNL     1       6.419   5.174  17.064  0.00  0.00    +0.000 A 
ATOM      2  C   UNL     1       7.290   4.838  18.098  0.00  0.00    +0.000 A 
ATOM      3  C   UNL     1       8.030   5.824  18.763  0.00  0.00    +0.000 A 
ATOM      4  C   UNL     1       7.917   7.171  18.406  0.00  0.00    +0.000 A 
ATOM      5  C   UNL     1       7.006   7.517  17.407  0.00  0.00    +0.000 A 
ATOM      6  C   UNL     1       6.274   6.529  16.741  0.00  0.00    +0.000 A 
ATOM      7  F   UNL     1       5.441   6.936  15.775  0.00  0.00    +0.000 F 
ENDROOT
BRANCH   4   8
ATOM      8  N   UNL     1       8.684   8.205  18.990  0.00  0.00    +0.000 N 
ATOM      9  C   UNL     1       8.680   9.543  18.614  0.00  0.00    +0.000 C 
ATOM     10  O   UNL     1       8.006  10.031  17.708  0.00  0.00    +0.000 OA
ATOM     11  H   UNL     1       9.183   7.977  19.842  0.00  0.00    +0.000 HD
BRANCH   9  12
ATOM     12  C   UNL     1       9.620  10.418  19.432  0.00  0.00    +0.000 C 
BRANCH  12  13
ATOM     13  C   UNL     1      10.380  11.407  18.602  0.00  0.00    +0.000 A 
ATOM     14  C   UNL     1      11.572  11.160  17.946  0.00  0.00    +0.000 A 
ATOM     15  N   UNL     1      11.961  12.306  17.308  0.00  0.00    +0.000 N 
ATOM     16  C   UNL     1      11.055  13.312  17.542  0.00  0.00    +0.000 A 
ATOM     17  C   UNL     1      11.077  14.653  17.136  0.00  0.00    +0.000 A 
ATOM     18  C   UNL     1      10.002  15.462  17.510  0.00  0.00    +0.000 A 
ATOM     19  C   UNL     1       8.932  14.939  18.231  0.00  0.00    +0.000 A 
ATOM     20  C   UNL     1       8.925  13.595  18.623  0.00  0.00    +0.000 A 
ATOM     21  C   UNL     1      10.021  12.765  18.303  0.00  0.00    +0.000 A 
ATOM     22  H   UNL     1      12.797  12.410  16.749  0.00  0.00    +0.000 HD
ENDBRANCH  12  13
ENDBRANCH   9  12
ENDBRANCH   4   8
BRANCH   1  23
ATOM     23  O   UNL     1       5.793   4.106  16.474  0.00  0.00    +0.000 OA
BRANCH  23  24
ATOM     24  C   UNL     1       4.374   4.066  16.612  0.00  0.00    +0.000 C 
BRANCH  24  25
ATOM     25  C   UNL     1       3.979   3.007  17.638  0.00  0.00    +0.000 C 
BRANCH  25  26
ATOM     26  C   UNL     1       2.477   2.733  17.538  0.00  0.00    +0.000 C 
BRANCH  26  27
ATOM     27  C   UNL     1       1.644   3.787  18.261  0.00  0.00    +0.000 C 
BRANCH  27  28
ATOM     28  C   UNL     1       0.953   3.186  19.491  0.00  0.00    +0.000 C 
BRANCH  28  29
ATOM     29  C   UNL     1       1.515   3.771  20.781  0.00  0.00    +0.000 C 
BRANCH  29  31
ATOM     30  O   UNL     1       3.514   5.028  20.184  0.00  0.00    +0.000 OA
ATOM     31  C   UNL     1       2.339   5.020  20.545  0.00  0.00    +0.000 C 
ATOM     32  N   UNL     1       1.634   6.176  20.770  0.00  0.00    +0.000 N 
ATOM     33  H   UNL     1       0.631   6.222  20.915  0.00  0.00    +0.000 HD
BRANCH  32  34
ATOM     34  O   UNL     1       2.302   7.388  20.490  0.00  0.00    +0.000 OA
ATOM     35  H   UNL     1       2.483   7.310  19.527  0.00  0.00    +0.000 HD
ENDBRANCH  32  34
ENDBRANCH  29  31
ENDBRANCH  28  29
ENDBRANCH  27  28
ENDBRANCH  26  27
ENDBRANCH  25  26
ENDBRANCH  24  25
ENDBRANCH  23  24
ENDBRANCH   1  23
TORSDOF 12
ENDMDL
MODEL 2
REMARK VINA RESULT:      -8.2      6.305      8.960
REMARK  Name = 
REMARK  12 active torsions:
REMARK  status: ('A' for Active; 'I' for Inactive)
REMARK    1  A    between atoms: C_2  and  C_3
REMARK    2  A    between atoms: C_3  and  C_4
REMARK    3  A    between atoms: C_4  and  C_5
REMARK    4  A    between atoms: C_5  and  C_6
REMARK    5  A    between atoms: C_6  and  C_7
REMARK    6  A    between atoms: C_7  and  C_8
REMARK    7  A    between atoms: C_8  and  O_9
REMARK    8  A    between atoms: O_9  and  C_10
REMARK    9  A    between atoms: C_13  and  N_14
REMARK   10  A    between atoms: C_15  and  C_17
REMARK   11  A    between atoms: C_17  and  C_18
REMARK   12  A    between atoms: N_30  and  O_31
REMARK                            x       y       z     vdW  Elec       q    Type
REMARK                         _______ _______ _______ _____ _____    ______ ____
ROOT
ATOM      1  C   UNL     1       2.473   6.915  19.721  0.00  0.00    +0.000 A 
ATOM      2  C   UNL     1       1.742   7.485  20.761  0.00  0.00    +0.000 A 
ATOM      3  C   UNL     1       1.088   8.713  20.589  0.00  0.00    +0.000 A 
ATOM      4  C   UNL     1       1.154   9.398  19.373  0.00  0.00    +0.000 A 
ATOM      5  C   UNL     1       1.841   8.804  18.313  0.00  0.00    +0.000 A 
ATOM      6  C   UNL     1       2.498   7.582  18.491  0.00  0.00    +0.000 A 
ATOM      7  F   UNL     1       3.160   7.089  17.436  0.00  0.00    +0.000 F 
ENDROOT
BRANCH   4   8
ATOM      8  N   UNL     1       0.575  10.670  19.156  0.00  0.00    +0.000 N 
ATOM      9  C   UNL     1       0.639  11.759  20.017  0.00  0.00    +0.000 C 
ATOM     10  O   UNL     1       1.210  11.779  21.107  0.00  0.00    +0.000 OA
ATOM     11  H   UNL     1       0.189  10.844  18.235  0.00  0.00    +0.000 HD
BRANCH   9  12
ATOM     12  C   UNL     1      -0.090  12.995  19.507  0.00  0.00    +0.000 C 
BRANCH  12  13
ATOM     13  C   UNL     1      -1.581  12.872  19.573  0.00  0.00    +0.000 A 
ATOM     14  C   UNL     1      -2.398  13.476  20.511  0.00  0.00    +0.000 A 
ATOM     15  N   UNL     1      -3.693  13.116  20.255  0.00  0.00    +0.000 N 
ATOM     16  C   UNL     1      -3.747  12.273  19.171  0.00  0.00    +0.000 A 
ATOM     17  C   UNL     1      -4.845  11.624  18.592  0.00  0.00    +0.000 A 
ATOM     18  C   UNL     1      -4.609  10.823  17.471  0.00  0.00    +0.000 A 
ATOM     19  C   UNL     1      -3.331  10.709  16.933  0.00  0.00    +0.000 A 
ATOM     20  C   UNL     1      -2.246  11.370  17.522  0.00  0.00    +0.000 A 
ATOM     21  C   UNL     1      -2.445  12.146  18.685  0.00  0.00    +0.000 A 
ATOM     22  H   UNL     1      -4.500  13.416  20.783  0.00  0.00    +0.000 HD
ENDBRANCH  12  13
ENDBRANCH   9  12
ENDBRANCH   4   8
BRANCH   1  23
ATOM     23  O   UNL     1       3.095   5.735  20.041  0.00  0.00    +0.000 OA
BRANCH  23  24
ATOM     24  C   UNL     1       2.283   4.764  20.697  0.00  0.00    +0.000 C 
BRANCH  24  25
ATOM     25  C   UNL     1       1.211   4.248  19.740  0.00  0.00    +0.000 C 
BRANCH  25  26
ATOM     26  C   UNL     1       0.890   2.789  20.067  0.00  0.00    +0.000 C 
BRANCH  26  27
ATOM     27  C   UNL     1       1.097   1.865  18.871  0.00  0.00    +0.000 C 
BRANCH  27  28
ATOM     28  C   UNL     1       2.221   2.385  17.968  0.00  0.00    +0.000 C 
BRANCH  28  29
ATOM     29  C   UNL     1       3.532   1.662  18.246  0.00  0.00    +0.000 C 
BRANCH  29  31
ATOM     30  O   UNL     1       4.757   2.100  20.305  0.00  0.00    +0.000 OA
ATOM     31  C   UNL     1       4.446   2.443  19.166  0.00  0.00    +0.000 C 
ATOM     32  N   UNL     1       4.918   3.600  18.597  0.00  0.00    +0.000 N 
ATOM     33  H   UNL     1       4.817   3.844  17.617  0.00  0.00    +0.000 HD
BRANCH  32  34
ATOM     34  O   UNL     1       5.846   4.346  19.355  0.00  0.00    +0.000 OA
ATOM     35  H   UNL     1       5.551   4.173  20.276  0.00  0.00    +0.000 HD
ENDBRANCH  32  34
ENDBRANCH  29  31
ENDBRANCH  28  29
ENDBRANCH  27  28
ENDBRANCH  26  27
ENDBRANCH  25  26
ENDBRANCH  24  25
ENDBRANCH  23  24
ENDBRANCH   1  23
TORSDOF 12
ENDMDL
MODEL 3
REMARK VINA RESULT:      -8.2      6.003      8.084
REMARK  Name = 
REMARK  12 active torsions:
REMARK  status: ('A' for Active; 'I' for Inactive)
REMARK    1  A    between atoms: C_2  and  C_3
REMARK    2  A    between atoms: C_3  and  C_4
REMARK    3  A    between atoms: C_4  and  C_5
REMARK    4  A    between atoms: C_5  and  C_6
REMARK    5  A    between atoms: C_6  and  C_7
REMARK    6  A    between atoms: C_7  and  C_8
REMARK    7  A    between atoms: C_8  and  O_9
REMARK    8  A    between atoms: O_9  and  C_10
REMARK    9  A    between atoms: C_13  and  N_14
REMARK   10  A    between atoms: C_15  and  C_17
REMARK   11  A    between atoms: C_17  and  C_18
REMARK   12  A    between atoms: N_30  and  O_31
REMARK                            x       y       z     vdW  Elec       q    Type
REMARK                         _______ _______ _______ _____ _____    ______ ____
ROOT
ATOM      1  C   UNL     1       3.569   6.256  18.479  0.00  0.00    +0.000 A 
ATOM      2  C   UNL     1       2.825   6.231  19.657  0.00  0.00    +0.000 A 
ATOM      3  C   UNL     1       1.973   7.293  19.990  0.00  0.00    +0.000 A 
ATOM      4  C   UNL     1       1.850   8.406  19.153  0.00  0.00    +0.000 A 
ATOM      5  C   UNL     1       2.553   8.410  17.948  0.00  0.00    +0.000 A 
ATOM      6  C   UNL     1       3.407   7.351  17.622  0.00  0.00    +0.000 A 
ATOM      7  F   UNL     1       4.070   7.440  16.461  0.00  0.00    +0.000 F 
ENDROOT
BRANCH   4   8
ATOM      8  N   UNL     1       1.062   9.538  19.464  0.00  0.00    +0.000 N 
ATOM      9  C   UNL     1       0.361   9.752  20.645  0.00  0.00    +0.000 C 
ATOM     10  O   UNL     1       0.318   8.981  21.602  0.00  0.00    +0.000 OA
ATOM     11  H   UNL     1       1.117  10.321  18.823  0.00  0.00    +0.000 HD
BRANCH   9  12
ATOM     12  C   UNL     1      -0.402  11.069  20.681  0.00  0.00    +0.000 C 
BRANCH  12  13
ATOM     13  C   UNL     1      -0.819  11.549  19.325  0.00  0.00    +0.000 A 
ATOM     14  C   UNL     1      -0.372  12.702  18.705  0.00  0.00    +0.000 A 
ATOM     15  N   UNL     1      -0.987  12.806  17.488  0.00  0.00    +0.000 N 
ATOM     16  C   UNL     1      -1.845  11.750  17.296  0.00  0.00    +0.000 A 
ATOM     17  C   UNL     1      -2.711  11.479  16.228  0.00  0.00    +0.000 A 
ATOM     18  C   UNL     1      -3.470  10.307  16.289  0.00  0.00    +0.000 A 
ATOM     19  C   UNL     1      -3.337   9.426  17.359  0.00  0.00    +0.000 A 
ATOM     20  C   UNL     1      -2.461   9.711  18.414  0.00  0.00    +0.000 A 
ATOM     21  C   UNL     1      -1.719  10.912  18.404  0.00  0.00    +0.000 A 
ATOM     22  H   UNL     1      -0.844  13.552  16.821  0.00  0.00    +0.000 HD
ENDBRANCH  12  13
ENDBRANCH   9  12
ENDBRANCH   4   8
BRANCH   1  23
ATOM     23  O   UNL     1       4.392   5.173  18.300  0.00  0.00    +0.000 OA
BRANCH  23  24
ATOM     24  C   UNL     1       4.045   4.302  17.226  0.00  0.00    +0.000 C 
BRANCH  24  25
ATOM     25  C   UNL     1       4.085   2.851  17.696  0.00  0.00    +0.000 C 
BRANCH  25  26
ATOM     26  C   UNL     1       2.687   2.239  17.593  0.00  0.00    +0.000 C 
BRANCH  26  27
ATOM     27  C   UNL     1       1.586   3.253  17.891  0.00  0.00    +0.000 C 
BRANCH  27  28
ATOM     28  C   UNL     1       0.675   2.752  19.018  0.00  0.00    +0.000 C 
BRANCH  28  29
ATOM     29  C   UNL     1       0.888   3.553  20.296  0.00  0.00    +0.000 C 
BRANCH  29  31
ATOM     30  O   UNL     1       1.313   2.371  22.383  0.00  0.00    +0.000 OA
ATOM     31  C   UNL     1       1.730   2.815  21.315  0.00  0.00    +0.000 C 
ATOM     32  N   UNL     1       3.038   2.673  20.926  0.00  0.00    +0.000 N 
ATOM     33  H   UNL     1       3.391   2.880  19.998  0.00  0.00    +0.000 HD
BRANCH  32  34
ATOM     34  O   UNL     1       3.874   1.920  21.779  0.00  0.00    +0.000 OA
ATOM     35  H   UNL     1       3.230   1.522  22.405  0.00  0.00    +0.000 HD
ENDBRANCH  32  34
ENDBRANCH  29  31
ENDBRANCH  28  29
ENDBRANCH  27  28
ENDBRANCH  26  27
ENDBRANCH  25  26
ENDBRANCH  24  25
ENDBRANCH  23  24
ENDBRANCH   1  23
TORSDOF 12
ENDMDL
MODEL 4
REMARK VINA RESULT:      -8.0      1.426      1.835
REMARK  Name = 
REMARK  12 active torsions:
REMARK  status: ('A' for Active; 'I' for Inactive)
REMARK    1  A    between atoms: C_2  and  C_3
REMARK    2  A    between atoms: C_3  and  C_4
REMARK    3  A    between atoms: C_4  and  C_5
REMARK    4  A    between atoms: C_5  and  C_6
REMARK    5  A    between atoms: C_6  and  C_7
REMARK    6  A    between atoms: C_7  and  C_8
REMARK    7  A    between atoms: C_8  and  O_9
REMARK    8  A    between atoms: O_9  and  C_10
REMARK    9  A    between atoms: C_13  and  N_14
REMARK   10  A    between atoms: C_15  and  C_17
REMARK   11  A    between atoms: C_17  and  C_18
REMARK   12  A    between atoms: N_30  and  O_31
REMARK                            x       y       z     vdW  Elec       q    Type
REMARK                         _______ _______ _______ _____ _____    ______ ____
ROOT
ATOM      1  C   UNL     1       6.554   5.191  17.214  0.00  0.00    +0.000 A 
ATOM      2  C   UNL     1       7.367   4.913  18.311  0.00  0.00    +0.000 A 
ATOM      3  C   UNL     1       8.078   5.935  18.954  0.00  0.00    +0.000 A 
ATOM      4  C   UNL     1       7.995   7.258  18.510  0.00  0.00    +0.000 A 
ATOM      5  C   UNL     1       7.141   7.547  17.445  0.00  0.00    +0.000 A 
ATOM      6  C   UNL     1       6.437   6.524  16.802  0.00  0.00    +0.000 A 
ATOM      7  F   UNL     1       5.660   6.876  15.770  0.00  0.00    +0.000 F 
ENDROOT
BRANCH   4   8
ATOM      8  N   UNL     1       8.739   8.322  19.070  0.00  0.00    +0.000 N 
ATOM      9  C   UNL     1       8.765   9.635  18.614  0.00  0.00    +0.000 C 
ATOM     10  O   UNL     1       8.144  10.070  17.646  0.00  0.00    +0.000 OA
ATOM     11  H   UNL     1       9.191   8.143  19.959  0.00  0.00    +0.000 HD
BRANCH   9  12
ATOM     12  C   UNL     1       9.668  10.554  19.427  0.00  0.00    +0.000 C 
BRANCH  12  13
ATOM     13  C   UNL     1      10.427  11.532  18.585  0.00  0.00    +0.000 A 
ATOM     14  C   UNL     1      11.591  11.262  17.888  0.00  0.00    +0.000 A 
ATOM     15  N   UNL     1      11.991  12.405  17.251  0.00  0.00    +0.000 N 
ATOM     16  C   UNL     1      11.120  13.432  17.526  0.00  0.00    +0.000 A 
ATOM     17  C   UNL     1      11.164  14.777  17.134  0.00  0.00    +0.000 A 
ATOM     18  C   UNL     1      10.123  15.610  17.552  0.00  0.00    +0.000 A 
ATOM     19  C   UNL     1       9.063  15.105  18.300  0.00  0.00    +0.000 A 
ATOM     20  C   UNL     1       9.032  13.757  18.677  0.00  0.00    +0.000 A 
ATOM     21  C   UNL     1      10.096  12.903  18.312  0.00  0.00    +0.000 A 
ATOM     22  H   UNL     1      12.811  12.495  16.667  0.00  0.00    +0.000 HD
ENDBRANCH  12  13
ENDBRANCH   9  12
ENDBRANCH   4   8
BRANCH   1  23
ATOM     23  O   UNL     1       5.951   4.092  16.657  0.00  0.00    +0.000 OA
BRANCH  23  24
ATOM     24  C   UNL     1       4.527   4.130  16.598  0.00  0.00    +0.000 C 
BRANCH  24  25
ATOM     25  C   UNL     1       3.940   3.921  17.991  0.00  0.00    +0.000 C 
BRANCH  25  26
ATOM     26  C   UNL     1       2.823   4.936  18.235  0.00  0.00    +0.000 C 
BRANCH  26  27
ATOM     27  C   UNL     1       3.225   6.352  17.833  0.00  0.00    +0.000 C 
BRANCH  27  28
ATOM     28  C   UNL     1       2.268   7.384  18.440  0.00  0.00    +0.000 C 
BRANCH  28  29
ATOM     29  C   UNL     1       2.157   7.213  19.950  0.00  0.00    +0.000 C 
BRANCH  29  31
ATOM     30  O   UNL     1       0.764   9.208  20.063  0.00  0.00    +0.000 OA
ATOM     31  C   UNL     1       1.499   8.398  20.625  0.00  0.00    +0.000 C 
ATOM     32  N   UNL     1       1.799   8.488  21.961  0.00  0.00    +0.000 N 
ATOM     33  H   UNL     1       2.267   7.765  22.497  0.00  0.00    +0.000 HD
BRANCH  32  34
ATOM     34  O   UNL     1       1.157   9.514  22.686  0.00  0.00    +0.000 OA
ATOM     35  H   UNL     1       0.834   9.038  23.482  0.00  0.00    +0.000 HD
ENDBRANCH  32  34
ENDBRANCH  29  31
ENDBRANCH  28  29
ENDBRANCH  27  28
ENDBRANCH  26  27
ENDBRANCH  25  26
ENDBRANCH  24  25
ENDBRANCH  23  24
ENDBRANCH   1  23
TORSDOF 12
ENDMDL
MODEL 5
REMARK VINA RESULT:      -8.0      4.870      6.847
REMARK  Name = 
REMARK  12 active torsions:
REMARK  status: ('A' for Active; 'I' for Inactive)
REMARK    1  A    between atoms: C_2  and  C_3
REMARK    2  A    between atoms: C_3  and  C_4
REMARK    3  A    between atoms: C_4  and  C_5
REMARK    4  A    between atoms: C_5  and  C_6
REMARK    5  A    between atoms: C_6  and  C_7
REMARK    6  A    between atoms: C_7  and  C_8
REMARK    7  A    between atoms: C_8  and  O_9
REMARK    8  A    between atoms: O_9  and  C_10
REMARK    9  A    between atoms: C_13  and  N_14
REMARK   10  A    between atoms: C_15  and  C_17
REMARK   11  A    between atoms: C_17  and  C_18
REMARK   12  A    between atoms: N_30  and  O_31
REMARK                            x       y       z     vdW  Elec       q    Type
REMARK                         _______ _______ _______ _____ _____    ______ ____
ROOT
ATOM      1  C   UNL     1       2.382   6.614  19.673  0.00  0.00    +0.000 A 
ATOM      2  C   UNL     1       1.697   7.238  20.714  0.00  0.00    +0.000 A 
ATOM      3  C   UNL     1       1.206   8.542  20.570  0.00  0.00    +0.000 A 
ATOM      4  C   UNL     1       1.392   9.253  19.381  0.00  0.00    +0.000 A 
ATOM      5  C   UNL     1       2.030   8.612  18.318  0.00  0.00    +0.000 A 
ATOM      6  C   UNL     1       2.525   7.312  18.468  0.00  0.00    +0.000 A 
ATOM      7  F   UNL     1       3.150   6.774  17.413  0.00  0.00    +0.000 F 
ENDROOT
BRANCH   4   8
ATOM      8  N   UNL     1       0.982  10.594  19.196  0.00  0.00    +0.000 N 
ATOM      9  C   UNL     1      -0.246  11.015  18.698  0.00  0.00    +0.000 C 
ATOM     10  O   UNL     1      -1.164  10.280  18.339  0.00  0.00    +0.000 OA
ATOM     11  H   UNL     1       1.585  11.311  19.580  0.00  0.00    +0.000 HD
BRANCH   9  12
ATOM     12  C   UNL     1      -0.391  12.528  18.611  0.00  0.00    +0.000 C 
BRANCH  12  13
ATOM     13  C   UNL     1       0.498  13.263  19.567  0.00  0.00    +0.000 A 
ATOM     14  C   UNL     1       0.194  13.563  20.882  0.00  0.00    +0.000 A 
ATOM     15  N   UNL     1       1.244  14.251  21.425  0.00  0.00    +0.000 N 
ATOM     16  C   UNL     1       2.234  14.425  20.487  0.00  0.00    +0.000 A 
ATOM     17  C   UNL     1       3.453  15.109  20.585  0.00  0.00    +0.000 A 
ATOM     18  C   UNL     1       4.285  15.115  19.463  0.00  0.00    +0.000 A 
ATOM     19  C   UNL     1       3.926  14.431  18.305  0.00  0.00    +0.000 A 
ATOM     20  C   UNL     1       2.706  13.748  18.228  0.00  0.00    +0.000 A 
ATOM     21  C   UNL     1       1.822  13.767  19.328  0.00  0.00    +0.000 A 
ATOM     22  H   UNL     1       1.293  14.593  22.375  0.00  0.00    +0.000 HD
ENDBRANCH  12  13
ENDBRANCH   9  12
ENDBRANCH   4   8
BRANCH   1  23
ATOM     23  O   UNL     1       2.843   5.356  19.966  0.00  0.00    +0.000 OA
BRANCH  23  24
ATOM     24  C   UNL     1       2.089   4.629  20.934  0.00  0.00    +0.000 C 
BRANCH  24  25
ATOM     25  C   UNL     1       1.001   3.812  20.243  0.00  0.00    +0.000 C 
BRANCH  25  26
ATOM     26  C   UNL     1       1.447   3.464  18.822  0.00  0.00    +0.000 C 
BRANCH  26  27
ATOM     27  C   UNL     1       2.026   2.056  18.721  0.00  0.00    +0.000 C 
BRANCH  27  28
ATOM     28  C   UNL     1       3.402   2.079  18.045  0.00  0.00    +0.000 C 
BRANCH  28  29
ATOM     29  C   UNL     1       3.605   3.361  17.249  0.00  0.00    +0.000 C 
BRANCH  29  31
ATOM     30  O   UNL     1       5.589   4.671  16.720  0.00  0.00    +0.000 OA
ATOM     31  C   UNL     1       4.938   4.020  17.535  0.00  0.00    +0.000 C 
ATOM     32  N   UNL     1       5.365   3.827  18.824  0.00  0.00    +0.000 N 
ATOM     33  H   UNL     1       4.797   3.437  19.568  0.00  0.00    +0.000 HD
BRANCH  32  34
ATOM     34  O   UNL     1       6.559   4.481  19.200  0.00  0.00    +0.000 OA
ATOM     35  H   UNL     1       7.238   3.794  19.023  0.00  0.00    +0.000 HD
ENDBRANCH  32  34
ENDBRANCH  29  31
ENDBRANCH  28  29
ENDBRANCH  27  28
ENDBRANCH  26  27
ENDBRANCH  25  26
ENDBRANCH  24  25
ENDBRANCH  23  24
ENDBRANCH   1  23
TORSDOF 12
ENDMDL
MODEL 6
REMARK VINA RESULT:      -8.0      5.611      8.828
REMARK  Name = 
REMARK  12 active torsions:
REMARK  status: ('A' for Active; 'I' for Inactive)
REMARK    1  A    between atoms: C_2  and  C_3
REMARK    2  A    between atoms: C_3  and  C_4
REMARK    3  A    between atoms: C_4  and  C_5
REMARK    4  A    between atoms: C_5  and  C_6
REMARK    5  A    between atoms: C_6  and  C_7
REMARK    6  A    between atoms: C_7  and  C_8
REMARK    7  A    between atoms: C_8  and  O_9
REMARK    8  A    between atoms: O_9  and  C_10
REMARK    9  A    between atoms: C_13  and  N_14
REMARK   10  A    between atoms: C_15  and  C_17
REMARK   11  A    between atoms: C_17  and  C_18
REMARK   12  A    between atoms: N_30  and  O_31
REMARK                            x       y       z     vdW  Elec       q    Type
REMARK                         _______ _______ _______ _____ _____    ______ ____
ROOT
ATOM      1  C   UNL     1       1.501   8.771  19.742  0.00  0.00    +0.000 A 
ATOM      2  C   UNL     1       1.861   7.566  20.343  0.00  0.00    +0.000 A 
ATOM      3  C   UNL     1       2.511   6.565  19.610  0.00  0.00    +0.000 A 
ATOM      4  C   UNL     1       2.813   6.745  18.257  0.00  0.00    +0.000 A 
ATOM      5  C   UNL     1       2.503   7.971  17.667  0.00  0.00    +0.000 A 
ATOM      6  C   UNL     1       1.848   8.965  18.400  0.00  0.00    +0.000 A 
ATOM      7  F   UNL     1       1.558  10.104  17.756  0.00  0.00    +0.000 F 
ENDROOT
BRANCH   4   8
ATOM      8  N   UNL     1       3.406   5.750  17.445  0.00  0.00    +0.000 N 
ATOM      9  C   UNL     1       4.271   4.750  17.873  0.00  0.00    +0.000 C 
ATOM     10  O   UNL     1       4.657   4.581  19.028  0.00  0.00    +0.000 OA
ATOM     11  H   UNL     1       3.069   5.680  16.492  0.00  0.00    +0.000 HD
BRANCH   9  12
ATOM     12  C   UNL     1       4.747   3.827  16.759  0.00  0.00    +0.000 C 
BRANCH  12  13
ATOM     13  C   UNL     1       5.841   4.422  15.926  0.00  0.00    +0.000 A 
ATOM     14  C   UNL     1       6.802   5.311  16.373  0.00  0.00    +0.000 A 
ATOM     15  N   UNL     1       7.614   5.637  15.322  0.00  0.00    +0.000 N 
ATOM     16  C   UNL     1       7.201   4.990  14.182  0.00  0.00    +0.000 A 
ATOM     17  C   UNL     1       7.700   5.066  12.876  0.00  0.00    +0.000 A 
ATOM     18  C   UNL     1       7.087   4.276  11.900  0.00  0.00    +0.000 A 
ATOM     19  C   UNL     1       6.041   3.418  12.230  0.00  0.00    +0.000 A 
ATOM     20  C   UNL     1       5.560   3.351  13.543  0.00  0.00    +0.000 A 
ATOM     21  C   UNL     1       6.126   4.175  14.540  0.00  0.00    +0.000 A 
ATOM     22  H   UNL     1       8.404   6.266  15.365  0.00  0.00    +0.000 HD
ENDBRANCH  12  13
ENDBRANCH   9  12
ENDBRANCH   4   8
BRANCH   1  23
ATOM     23  O   UNL     1       0.834   9.642  20.565  0.00  0.00    +0.000 OA
BRANCH  23  24
ATOM     24  C   UNL     1       0.707   9.236  21.926  0.00  0.00    +0.000 C 
BRANCH  24  25
ATOM     25  C   UNL     1      -0.446   9.985  22.589  0.00  0.00    +0.000 C 
BRANCH  25  26
ATOM     26  C   UNL     1      -0.351  11.473  22.251  0.00  0.00    +0.000 C 
BRANCH  26  27
ATOM     27  C   UNL     1      -1.347  12.315  23.045  0.00  0.00    +0.000 C 
BRANCH  27  28
ATOM     28  C   UNL     1      -2.762  12.169  22.473  0.00  0.00    +0.000 C 
BRANCH  28  29
ATOM     29  C   UNL     1      -3.034  13.213  21.399  0.00  0.00    +0.000 C 
BRANCH  29  31
ATOM     30  O   UNL     1      -2.363  11.871  19.480  0.00  0.00    +0.000 OA
ATOM     31  C   UNL     1      -3.188  12.606  20.020  0.00  0.00    +0.000 C 
ATOM     32  N   UNL     1      -4.367  12.953  19.411  0.00  0.00    +0.000 N 
ATOM     33  H   UNL     1      -5.139  13.423  19.872  0.00  0.00    +0.000 HD
BRANCH  32  34
ATOM     34  O   UNL     1      -4.631  12.361  18.157  0.00  0.00    +0.000 OA
ATOM     35  H   UNL     1      -5.527  11.982  18.289  0.00  0.00    +0.000 HD
ENDBRANCH  32  34
ENDBRANCH  29  31
ENDBRANCH  28  29
ENDBRANCH  27  28
ENDBRANCH  26  27
ENDBRANCH  25  26
ENDBRANCH  24  25
ENDBRANCH  23  24
ENDBRANCH   1  23
TORSDOF 12
ENDMDL
MODEL 7
REMARK VINA RESULT:      -7.9      5.804      9.103
REMARK  Name = 
REMARK  12 active torsions:
REMARK  status: ('A' for Active; 'I' for Inactive)
REMARK    1  A    between atoms: C_2  and  C_3
REMARK    2  A    between atoms: C_3  and  C_4
REMARK    3  A    between atoms: C_4  and  C_5
REMARK    4  A    between atoms: C_5  and  C_6
REMARK    5  A    between atoms: C_6  and  C_7
REMARK    6  A    between atoms: C_7  and  C_8
REMARK    7  A    between atoms: C_8  and  O_9
REMARK    8  A    between atoms: O_9  and  C_10
REMARK    9  A    between atoms: C_13  and  N_14
REMARK   10  A    between atoms: C_15  and  C_17
REMARK   11  A    between atoms: C_17  and  C_18
REMARK   12  A    between atoms: N_30  and  O_31
REMARK                            x       y       z     vdW  Elec       q    Type
REMARK                         _______ _______ _______ _____ _____    ______ ____
ROOT
ATOM      1  C   UNL     1       0.798   9.954  20.237  0.00  0.00    +0.000 A 
ATOM      2  C   UNL     1       1.267   9.824  18.932  0.00  0.00    +0.000 A 
ATOM      3  C   UNL     1       1.907   8.650  18.513  0.00  0.00    +0.000 A 
ATOM      4  C   UNL     1       2.097   7.581  19.393  0.00  0.00    +0.000 A 
ATOM      5  C   UNL     1       1.581   7.688  20.685  0.00  0.00    +0.000 A 
ATOM      6  C   UNL     1       0.948   8.863  21.102  0.00  0.00    +0.000 A 
ATOM      7  F   UNL     1       0.505   8.901  22.365  0.00  0.00    +0.000 F 
ENDROOT
BRANCH   4   8
ATOM      8  N   UNL     1       2.794   6.398  19.054  0.00  0.00    +0.000 N 
ATOM      9  C   UNL     1       2.911   5.260  19.842  0.00  0.00    +0.000 C 
ATOM     10  O   UNL     1       2.425   5.110  20.962  0.00  0.00    +0.000 OA
ATOM     11  H   UNL     1       3.129   6.325  18.100  0.00  0.00    +0.000 HD
BRANCH   9  12
ATOM     12  C   UNL     1       3.731   4.147  19.202  0.00  0.00    +0.000 C 
BRANCH  12  13
ATOM     13  C   UNL     1       5.013   4.631  18.598  0.00  0.00    +0.000 A 
ATOM     14  C   UNL     1       6.050   5.237  19.284  0.00  0.00    +0.000 A 
ATOM     15  N   UNL     1       7.038   5.548  18.391  0.00  0.00    +0.000 N 
ATOM     16  C   UNL     1       6.669   5.171  17.122  0.00  0.00    +0.000 A 
ATOM     17  C   UNL     1       7.340   5.340  15.904  0.00  0.00    +0.000 A 
ATOM     18  C   UNL     1       6.729   4.840  14.751  0.00  0.00    +0.000 A 
ATOM     19  C   UNL     1       5.513   4.166  14.823  0.00  0.00    +0.000 A 
ATOM     20  C   UNL     1       4.860   4.002  16.051  0.00  0.00    +0.000 A 
ATOM     21  C   UNL     1       5.429   4.541  17.225  0.00  0.00    +0.000 A 
ATOM     22  H   UNL     1       7.915   5.997  18.619  0.00  0.00    +0.000 HD
ENDBRANCH  12  13
ENDBRANCH   9  12
ENDBRANCH   4   8
BRANCH   1  23
ATOM     23  O   UNL     1       0.231  11.170  20.522  0.00  0.00    +0.000 OA
BRANCH  23  24
ATOM     24  C   UNL     1      -0.028  12.011  19.399  0.00  0.00    +0.000 C 
BRANCH  24  25
ATOM     25  C   UNL     1      -1.532  12.226  19.244  0.00  0.00    +0.000 C 
BRANCH  25  26
ATOM     26  C   UNL     1      -2.043  11.423  18.047  0.00  0.00    +0.000 C 
BRANCH  26  27
ATOM     27  C   UNL     1      -3.558  11.520  17.886  0.00  0.00    +0.000 C 
BRANCH  27  28
ATOM     28  C   UNL     1      -3.977  11.174  16.452  0.00  0.00    +0.000 C 
BRANCH  28  29
ATOM     29  C   UNL     1      -2.797  10.651  15.643  0.00  0.00    +0.000 C 
BRANCH  29  31
ATOM     30  O   UNL     1      -2.435   9.743  13.413  0.00  0.00    +0.000 OA
ATOM     31  C   UNL     1      -3.213  10.097  14.297  0.00  0.00    +0.000 C 
ATOM     32  N   UNL     1      -4.574  10.016  14.148  0.00  0.00    +0.000 N 
ATOM     33  H   UNL     1      -5.246  10.147  14.897  0.00  0.00    +0.000 HD
BRANCH  32  34
ATOM     34  O   UNL     1      -5.047   9.430  12.954  0.00  0.00    +0.000 OA
ATOM     35  H   UNL     1      -4.242   8.989  12.604  0.00  0.00    +0.000 HD
ENDBRANCH  32  34
ENDBRANCH  29  31
ENDBRANCH  28  29
ENDBRANCH  27  28
ENDBRANCH  26  27
ENDBRANCH  25  26
ENDBRANCH  24  25
ENDBRANCH  23  24
ENDBRANCH   1  23
TORSDOF 12
ENDMDL
MODEL 8
REMARK VINA RESULT:      -7.9      5.917      9.336
REMARK  Name = 
REMARK  12 active torsions:
REMARK  status: ('A' for Active; 'I' for Inactive)
REMARK    1  A    between atoms: C_2  and  C_3
REMARK    2  A    between atoms: C_3  and  C_4
REMARK    3  A    between atoms: C_4  and  C_5
REMARK    4  A    between atoms: C_5  and  C_6
REMARK    5  A    between atoms: C_6  and  C_7
REMARK    6  A    between atoms: C_7  and  C_8
REMARK    7  A    between atoms: C_8  and  O_9
REMARK    8  A    between atoms: O_9  and  C_10
REMARK    9  A    between atoms: C_13  and  N_14
REMARK   10  A    between atoms: C_15  and  C_17
REMARK   11  A    between atoms: C_17  and  C_18
REMARK   12  A    between atoms: N_30  and  O_31
REMARK                            x       y       z     vdW  Elec       q    Type
REMARK                         _______ _______ _______ _____ _____    ______ ____
ROOT
ATOM      1  C   UNL     1       2.668   6.738  19.213  0.00  0.00    +0.000 A 
ATOM      2  C   UNL     1       2.955   7.429  18.037  0.00  0.00    +0.000 A 
ATOM      3  C   UNL     1       2.387   8.685  17.786  0.00  0.00    +0.000 A 
ATOM      4  C   UNL     1       1.516   9.277  18.705  0.00  0.00    +0.000 A 
ATOM      5  C   UNL     1       1.268   8.612  19.907  0.00  0.00    +0.000 A 
ATOM      6  C   UNL     1       1.832   7.356  20.151  0.00  0.00    +0.000 A 
ATOM      7  F   UNL     1       1.525   6.767  21.314  0.00  0.00    +0.000 F 
ENDROOT
BRANCH   4   8
ATOM      8  N   UNL     1       0.857  10.509  18.482  0.00  0.00    +0.000 N 
ATOM      9  C   UNL     1       0.948  11.644  19.278  0.00  0.00    +0.000 C 
ATOM     10  O   UNL     1       1.616  11.748  20.305  0.00  0.00    +0.000 OA
ATOM     11  H   UNL     1       0.380  10.615  17.595  0.00  0.00    +0.000 HD
BRANCH   9  12
ATOM     12  C   UNL     1       0.115  12.817  18.779  0.00  0.00    +0.000 C 
BRANCH  12  13
ATOM     13  C   UNL     1      -1.348  12.663  19.055  0.00  0.00    +0.000 A 
ATOM     14  C   UNL     1      -2.022  13.184  20.144  0.00  0.00    +0.000 A 
ATOM     15  N   UNL     1      -3.338  12.821  20.055  0.00  0.00    +0.000 N 
ATOM     16  C   UNL     1      -3.546  12.056  18.933  0.00  0.00    +0.000 A 
ATOM     17  C   UNL     1      -4.713  11.430  18.476  0.00  0.00    +0.000 A 
ATOM     18  C   UNL     1      -4.639  10.715  17.277  0.00  0.00    +0.000 A 
ATOM     19  C   UNL     1      -3.454  10.662  16.550  0.00  0.00    +0.000 A 
ATOM     20  C   UNL     1      -2.298  11.299  17.020  0.00  0.00    +0.000 A 
ATOM     21  C   UNL     1      -2.329  11.986  18.253  0.00  0.00    +0.000 A 
ATOM     22  H   UNL     1      -4.061  13.068  20.717  0.00  0.00    +0.000 HD
ENDBRANCH  12  13
ENDBRANCH   9  12
ENDBRANCH   4   8
BRANCH   1  23
ATOM     23  O   UNL     1       3.258   5.504  19.308  0.00  0.00    +0.000 OA
BRANCH  23  24
ATOM     24  C   UNL     1       2.380   4.386  19.186  0.00  0.00    +0.000 C 
BRANCH  24  25
ATOM     25  C   UNL     1       2.602   3.693  17.844  0.00  0.00    +0.000 C 
BRANCH  25  26
ATOM     26  C   UNL     1       4.093   3.700  17.504  0.00  0.00    +0.000 C 
BRANCH  26  27
ATOM     27  C   UNL     1       4.440   4.721  16.424  0.00  0.00    +0.000 C 
BRANCH  27  28
ATOM     28  C   UNL     1       5.837   5.308  16.657  0.00  0.00    +0.000 C 
BRANCH  28  29
ATOM     29  C   UNL     1       6.920   4.392  16.103  0.00  0.00    +0.000 C 
BRANCH  29  31
ATOM     30  O   UNL     1       6.512   3.856  13.762  0.00  0.00    +0.000 OA
ATOM     31  C   UNL     1       7.094   4.535  14.605  0.00  0.00    +0.000 C 
ATOM     32  N   UNL     1       7.982   5.523  14.262  0.00  0.00    +0.000 N 
ATOM     33  H   UNL     1       8.364   6.206  14.907  0.00  0.00    +0.000 HD
BRANCH  32  34
ATOM     34  O   UNL     1       8.139   5.782  12.883  0.00  0.00    +0.000 OA
ATOM     35  H   UNL     1       8.828   6.482  12.878  0.00  0.00    +0.000 HD
ENDBRANCH  32  34
ENDBRANCH  29  31
ENDBRANCH  28  29
ENDBRANCH  27  28
ENDBRANCH  26  27
ENDBRANCH  25  26
ENDBRANCH  24  25
ENDBRANCH  23  24
ENDBRANCH   1  23
TORSDOF 12
ENDMDL
MODEL 9
REMARK VINA RESULT:      -7.9      5.793      7.274
REMARK  Name = 
REMARK  12 active torsions:
REMARK  status: ('A' for Active; 'I' for Inactive)
REMARK    1  A    between atoms: C_2  and  C_3
REMARK    2  A    between atoms: C_3  and  C_4
REMARK    3  A    between atoms: C_4  and  C_5
REMARK    4  A    between atoms: C_5  and  C_6
REMARK    5  A    between atoms: C_6  and  C_7
REMARK    6  A    between atoms: C_7  and  C_8
REMARK    7  A    between atoms: C_8  and  O_9
REMARK    8  A    between atoms: O_9  and  C_10
REMARK    9  A    between atoms: C_13  and  N_14
REMARK   10  A    between atoms: C_15  and  C_17
REMARK   11  A    between atoms: C_17  and  C_18
REMARK   12  A    between atoms: N_30  and  O_31
REMARK                            x       y       z     vdW  Elec       q    Type
REMARK                         _______ _______ _______ _____ _____    ______ ____
ROOT
ATOM      1  C   UNL     1       2.017   7.727  19.392  0.00  0.00    +0.000 A 
ATOM      2  C   UNL     1       1.418   8.193  20.560  0.00  0.00    +0.000 A 
ATOM      3  C   UNL     1       0.913   9.498  20.637  0.00  0.00    +0.000 A 
ATOM      4  C   UNL     1       1.000  10.368  19.547  0.00  0.00    +0.000 A 
ATOM      5  C   UNL     1       1.551   9.888  18.358  0.00  0.00    +0.000 A 
ATOM      6  C   UNL     1       2.060   8.587  18.287  0.00  0.00    +0.000 A 
ATOM      7  F   UNL     1       2.599   8.207  17.121  0.00  0.00    +0.000 F 
ENDROOT
BRANCH   4   8
ATOM      8  N   UNL     1       0.573  11.716  19.582  0.00  0.00    +0.000 N 
ATOM      9  C   UNL     1       1.056  12.708  20.426  0.00  0.00    +0.000 C 
ATOM     10  O   UNL     1       1.931  12.563  21.277  0.00  0.00    +0.000 OA
ATOM     11  H   UNL     1      -0.048  12.015  18.840  0.00  0.00    +0.000 HD
BRANCH   9  12
ATOM     12  C   UNL     1       0.392  14.065  20.228  0.00  0.00    +0.000 C 
BRANCH  12  13
ATOM     13  C   UNL     1       1.185  14.989  19.356  0.00  0.00    +0.000 A 
ATOM     14  C   UNL     1       2.544  14.901  19.113  0.00  0.00    +0.000 A 
ATOM     15  N   UNL     1       2.904  15.927  18.283  0.00  0.00    +0.000 N 
ATOM     16  C   UNL     1       1.810  16.702  17.982  0.00  0.00    +0.000 A 
ATOM     17  C   UNL     1       1.722  17.873  17.219  0.00  0.00    +0.000 A 
ATOM     18  C   UNL     1       0.461  18.454  17.064  0.00  0.00    +0.000 A 
ATOM     19  C   UNL     1      -0.670  17.864  17.622  0.00  0.00    +0.000 A 
ATOM     20  C   UNL     1      -0.563  16.690  18.378  0.00  0.00    +0.000 A 
ATOM     21  C   UNL     1       0.705  16.108  18.593  0.00  0.00    +0.000 A 
ATOM     22  H   UNL     1       3.838  16.102  17.940  0.00  0.00    +0.000 HD
ENDBRANCH  12  13
ENDBRANCH   9  12
ENDBRANCH   4   8
BRANCH   1  23
ATOM     23  O   UNL     1       2.504   6.448  19.470  0.00  0.00    +0.000 OA
BRANCH  23  24
ATOM     24  C   UNL     1       2.179   5.733  20.660  0.00  0.00    +0.000 C 
BRANCH  24  25
ATOM     25  C   UNL     1       1.042   4.752  20.386  0.00  0.00    +0.000 C 
BRANCH  25  26
ATOM     26  C   UNL     1       1.329   3.425  21.091  0.00  0.00    +0.000 C 
BRANCH  26  27
ATOM     27  C   UNL     1       2.474   2.655  20.440  0.00  0.00    +0.000 C 
BRANCH  27  28
ATOM     28  C   UNL     1       1.971   1.837  19.244  0.00  0.00    +0.000 C 
BRANCH  28  29
ATOM     29  C   UNL     1       2.835   2.072  18.012  0.00  0.00    +0.000 C 
BRANCH  29  31
ATOM     30  O   UNL     1       1.710   4.025  17.088  0.00  0.00    +0.000 OA
ATOM     31  C   UNL     1       2.741   3.492  17.495  0.00  0.00    +0.000 C 
ATOM     32  N   UNL     1       3.942   4.155  17.528  0.00  0.00    +0.000 N 
ATOM     33  H   UNL     1       4.776   3.815  17.994  0.00  0.00    +0.000 HD
BRANCH  32  34
ATOM     34  O   UNL     1       3.927   5.513  17.143  0.00  0.00    +0.000 OA
ATOM     35  H   UNL     1       4.030   5.975  18.004  0.00  0.00    +0.000 HD
ENDBRANCH  32  34
ENDBRANCH  29  31
ENDBRANCH  28  29
ENDBRANCH  27  28
ENDBRANCH  26  27
ENDBRANCH  25  26
ENDBRANCH  24  25
ENDBRANCH  23  24
ENDBRANCH   1  23
TORSDOF 12
ENDMDL
