MODEL 1
REMARK VINA RESULT:      -7.9      0.000      0.000
REMARK  Name = 
REMARK  4 active torsions:
REMARK  status: ('A' for Active; 'I' for Inactive)
REMARK    1  A    between atoms: C_1  and  C_2
REMARK    2  A    between atoms: C_3  and  C_4
REMARK    3  A    between atoms: N_12  and  C_13
REMARK    4  A    between atoms: C_20  and  C_21
REMARK                            x       y       z     vdW  Elec       q    Type
REMARK                         _______ _______ _______ _____ _____    ______ ____
ROOT
ATOM      1  C   UNL     1       5.988   4.691  18.627  0.00  0.00    +0.000 C 
ATOM      2  C   UNL     1       4.655   4.567  17.897  0.00  0.00    +0.000 C 
ATOM      3  C   UNL     1       4.643   5.431  16.659  0.00  0.00    +0.000 C 
ATOM      4  N   UNL     1       3.883   6.483  16.723  0.00  0.00    +0.000 NA
ATOM      5  N   UNL     1       3.189   6.405  17.899  0.00  0.00    +0.000 N 
ATOM      6  C   UNL     1       3.497   5.201  18.679  0.00  0.00    +0.000 C 
ENDROOT
BRANCH   6   7
ATOM      7  C   UNL     1       2.307   4.211  18.713  0.00  0.00    +0.000 C 
ATOM      8  O   UNL     1       1.566   3.981  17.755  0.00  0.00    +0.000 OA
ATOM      9  N   UNL     1       2.115   3.544  19.919  0.00  0.00    +0.000 N 
ATOM     10  C   UNL     1       1.257   2.404  20.003  0.00  0.00    +0.000 C 
ATOM     11  C   UNL     1       1.451   1.981  21.434  0.00  0.00    +0.000 C 
ATOM     12  O   UNL     1       1.751   3.203  22.115  0.00  0.00    +0.000 OA
ATOM     13  C   UNL     1       2.222   4.093  21.185  0.00  0.00    +0.000 C 
ATOM     14  O   UNL     1       2.678   5.184  21.480  0.00  0.00    +0.000 OA
ENDBRANCH   6   7
BRANCH   3  15
ATOM     15  C   UNL     1       5.477   5.098  15.481  0.00  0.00    +0.000 A 
ATOM     16  C   UNL     1       6.748   5.669  15.325  0.00  0.00    +0.000 A 
ATOM     17  C   UNL     1       7.523   5.351  14.210  0.00  0.00    +0.000 A 
ATOM     18  C   UNL     1       7.029   4.466  13.260  0.00  0.00    +0.000 A 
ATOM     19  F   UNL     1       7.775   4.166  12.189  0.00  0.00    +0.000 F 
ATOM     20  C   UNL     1       5.773   3.888  13.407  0.00  0.00    +0.000 A 
ATOM     21  C   UNL     1       4.995   4.197  14.525  0.00  0.00    +0.000 A 
ENDBRANCH   3  15
BRANCH   5  22
ATOM     22  C   UNL     1       2.526   7.516  18.428  0.00  0.00    +0.000 A 
ATOM     23  C   UNL     1       2.110   7.546  19.769  0.00  0.00    +0.000 A 
ATOM     24  C   UNL     1       1.408   8.637  20.300  0.00  0.00    +0.000 A 
ATOM     25  C   UNL     1       1.121   9.731  19.493  0.00  0.00    +0.000 A 
ATOM     26 BR   UNL     1       0.148  11.195  20.186  0.00  0.00    +0.000 Br
ATOM     27  C   UNL     1       1.546   9.751  18.172  0.00  0.00    +0.000 A 
ATOM     28  C   UNL     1       2.245   8.656  17.652  0.00  0.00    +0.000 A 
ENDBRANCH   5  22
TORSDOF 3
ENDMDL
MODEL 2
REMARK VINA RESULT:      -7.7      0.268      1.315
REMARK  Name = 
REMARK  4 active torsions:
REMARK  status: ('A' for Active; 'I' for Inactive)
REMARK    1  A    between atoms: C_1  and  C_2
REMARK    2  A    between atoms: C_3  and  C_4
REMARK    3  A    between atoms: N_12  and  C_13
REMARK    4  A    between atoms: C_20  and  C_21
REMARK                            x       y       z     vdW  Elec       q    Type
REMARK                         _______ _______ _______ _____ _____    ______ ____
ROOT
ATOM      1  C   UNL     1       5.893   4.916  18.880  0.00  0.00    +0.000 C 
ATOM      2  C   UNL     1       4.580   4.754  18.123  0.00  0.00    +0.000 C 
ATOM      3  C   UNL     1       4.585   5.590  16.865  0.00  0.00    +0.000 C 
ATOM      4  N   UNL     1       3.808   6.631  16.886  0.00  0.00    +0.000 NA
ATOM      5  N   UNL     1       3.087   6.569  18.047  0.00  0.00    +0.000 N 
ATOM      6  C   UNL     1       3.393   5.388  18.862  0.00  0.00    +0.000 C 
ENDROOT
BRANCH   6   7
ATOM      7  C   UNL     1       2.218   4.381  18.891  0.00  0.00    +0.000 C 
ATOM      8  O   UNL     1       1.433   4.202  17.958  0.00  0.00    +0.000 OA
ATOM      9  N   UNL     1       2.094   3.635  20.058  0.00  0.00    +0.000 N 
ATOM     10  C   UNL     1       1.255   2.479  20.111  0.00  0.00    +0.000 C 
ATOM     11  C   UNL     1       1.526   1.968  21.500  0.00  0.00    +0.000 C 
ATOM     12  O   UNL     1       1.846   3.149  22.243  0.00  0.00    +0.000 OA
ATOM     13  C   UNL     1       2.260   4.103  21.351  0.00  0.00    +0.000 C 
ATOM     14  O   UNL     1       2.717   5.179  21.693  0.00  0.00    +0.000 OA
ENDBRANCH   6   7
BRANCH   3  15
ATOM     15  C   UNL     1       5.451   5.244  15.715  0.00  0.00    +0.000 A 
ATOM     16  C   UNL     1       4.976   4.413  14.690  0.00  0.00    +0.000 A 
ATOM     17  C   UNL     1       5.802   4.091  13.614  0.00  0.00    +0.000 A 
ATOM     18  C   UNL     1       7.093   4.599  13.563  0.00  0.00    +0.000 A 
ATOM     19  F   UNL     1       7.884   4.285  12.529  0.00  0.00    +0.000 F 
ATOM     20  C   UNL     1       7.574   5.429  14.569  0.00  0.00    +0.000 A 
ATOM     21  C   UNL     1       6.749   5.761  15.647  0.00  0.00    +0.000 A 
ENDBRANCH   3  15
BRANCH   5  22
ATOM     22  C   UNL     1       2.395   7.682  18.535  0.00  0.00    +0.000 A 
ATOM     23  C   UNL     1       2.136   8.795  17.718  0.00  0.00    +0.000 A 
ATOM     24  C   UNL     1       1.479   9.933  18.206  0.00  0.00    +0.000 A 
ATOM     25  C   UNL     1       1.055   9.969  19.529  0.00  0.00    +0.000 A 
ATOM     26 BR   UNL     1       0.197  11.508  20.210  0.00  0.00    +0.000 Br
ATOM     27  C   UNL     1       1.264   8.874  20.356  0.00  0.00    +0.000 A 
ATOM     28  C   UNL     1       1.921   7.744  19.858  0.00  0.00    +0.000 A 
ENDBRANCH   5  22
TORSDOF 3
ENDMDL
MODEL 3
REMARK VINA RESULT:      -7.4      6.140      9.545
REMARK  Name = 
REMARK  4 active torsions:
REMARK  status: ('A' for Active; 'I' for Inactive)
REMARK    1  A    between atoms: C_1  and  C_2
REMARK    2  A    between atoms: C_3  and  C_4
REMARK    3  A    between atoms: N_12  and  C_13
REMARK    4  A    between atoms: C_20  and  C_21
REMARK                            x       y       z     vdW  Elec       q    Type
REMARK                         _______ _______ _______ _____ _____    ______ ____
ROOT
ATOM      1  C   UNL     1      -1.817  10.142  16.984  0.00  0.00    +0.000 C 
ATOM      2  C   UNL     1      -1.525  10.489  18.440  0.00  0.00    +0.000 C 
ATOM      3  C   UNL     1      -2.266  11.740  18.848  0.00  0.00    +0.000 C 
ATOM      4  N   UNL     1      -1.524  12.792  19.022  0.00  0.00    +0.000 NA
ATOM      5  N   UNL     1      -0.222  12.388  18.910  0.00  0.00    +0.000 N 
ATOM      6  C   UNL     1      -0.078  10.950  18.655  0.00  0.00    +0.000 C 
ENDROOT
BRANCH   6   7
ATOM      7  C   UNL     1       0.518  10.201  19.870  0.00  0.00    +0.000 C 
ATOM      8  O   UNL     1       0.427  10.585  21.038  0.00  0.00    +0.000 OA
ATOM      9  N   UNL     1       1.170   9.007  19.580  0.00  0.00    +0.000 N 
ATOM     10  C   UNL     1       1.502   8.076  20.613  0.00  0.00    +0.000 C 
ATOM     11  C   UNL     1       2.077   6.933  19.821  0.00  0.00    +0.000 C 
ATOM     12  O   UNL     1       2.639   7.565  18.666  0.00  0.00    +0.000 OA
ATOM     13  C   UNL     1       2.013   8.774  18.507  0.00  0.00    +0.000 C 
ATOM     14  O   UNL     1       2.189   9.490  17.537  0.00  0.00    +0.000 OA
ENDBRANCH   6   7
BRANCH   3  15
ATOM     15  C   UNL     1      -3.739  11.748  18.997  0.00  0.00    +0.000 A 
ATOM     16  C   UNL     1      -4.347  12.494  20.017  0.00  0.00    +0.000 A 
ATOM     17  C   UNL     1      -5.735  12.491  20.150  0.00  0.00    +0.000 A 
ATOM     18  C   UNL     1      -6.509  11.750  19.266  0.00  0.00    +0.000 A 
ATOM     19  F   UNL     1      -7.841  11.748  19.399  0.00  0.00    +0.000 F 
ATOM     20  C   UNL     1      -5.918  11.013  18.246  0.00  0.00    +0.000 A 
ATOM     21  C   UNL     1      -4.528  11.016  18.103  0.00  0.00    +0.000 A 
ENDBRANCH   3  15
BRANCH   5  22
ATOM     22  C   UNL     1       0.814  13.309  18.731  0.00  0.00    +0.000 A 
ATOM     23  C   UNL     1       2.104  12.893  18.361  0.00  0.00    +0.000 A 
ATOM     24  C   UNL     1       3.161  13.802  18.218  0.00  0.00    +0.000 A 
ATOM     25  C   UNL     1       2.938  15.157  18.431  0.00  0.00    +0.000 A 
ATOM     26 BR   UNL     1       4.360  16.391  18.272  0.00  0.00    +0.000 Br
ATOM     27  C   UNL     1       1.668  15.609  18.765  0.00  0.00    +0.000 A 
ATOM     28  C   UNL     1       0.621  14.692  18.906  0.00  0.00    +0.000 A 
ENDBRANCH   5  22
TORSDOF 3
ENDMDL
MODEL 4
REMARK VINA RESULT:      -7.3      6.151      9.581
REMARK  Name = 
REMARK  4 active torsions:
REMARK  status: ('A' for Active; 'I' for Inactive)
REMARK    1  A    between atoms: C_1  and  C_2
REMARK    2  A    between atoms: C_3  and  C_4
REMARK    3  A    between atoms: N_12  and  C_13
REMARK    4  A    between atoms: C_20  and  C_21
REMARK                            x       y       z     vdW  Elec       q    Type
REMARK                         _______ _______ _______ _____ _____    ______ ____
ROOT
ATOM      1  C   UNL     1      -1.788  10.163  16.956  0.00  0.00    +0.000 C 
ATOM      2  C   UNL     1      -1.521  10.499  18.419  0.00  0.00    +0.000 C 
ATOM      3  C   UNL     1      -2.271  11.746  18.824  0.00  0.00    +0.000 C 
ATOM      4  N   UNL     1      -1.534  12.798  19.018  0.00  0.00    +0.000 NA
ATOM      5  N   UNL     1      -0.229  12.398  18.924  0.00  0.00    +0.000 N 
ATOM      6  C   UNL     1      -0.078  10.962  18.660  0.00  0.00    +0.000 C 
ENDROOT
BRANCH   6   7
ATOM      7  C   UNL     1       0.501  10.204  19.880  0.00  0.00    +0.000 C 
ATOM      8  O   UNL     1       0.388  10.579  21.048  0.00  0.00    +0.000 OA
ATOM      9  N   UNL     1       1.161   9.015  19.590  0.00  0.00    +0.000 N 
ATOM     10  C   UNL     1       1.479   8.077  20.621  0.00  0.00    +0.000 C 
ATOM     11  C   UNL     1       2.071   6.943  19.829  0.00  0.00    +0.000 C 
ATOM     12  O   UNL     1       2.650   7.586  18.690  0.00  0.00    +0.000 OA
ATOM     13  C   UNL     1       2.023   8.794  18.530  0.00  0.00    +0.000 C 
ATOM     14  O   UNL     1       2.213   9.519  17.570  0.00  0.00    +0.000 OA
ENDBRANCH   6   7
BRANCH   3  15
ATOM     15  C   UNL     1      -3.746  11.750  18.949  0.00  0.00    +0.000 A 
ATOM     16  C   UNL     1      -4.542  11.077  18.010  0.00  0.00    +0.000 A 
ATOM     17  C   UNL     1      -5.930  11.091  18.136  0.00  0.00    +0.000 A 
ATOM     18  C   UNL     1      -6.517  11.770  19.196  0.00  0.00    +0.000 A 
ATOM     19  F   UNL     1      -7.851  11.782  19.311  0.00  0.00    +0.000 F 
ATOM     20  C   UNL     1      -5.739  12.434  20.137  0.00  0.00    +0.000 A 
ATOM     21  C   UNL     1      -4.347  12.419  20.021  0.00  0.00    +0.000 A 
ENDBRANCH   3  15
BRANCH   5  22
ATOM     22  C   UNL     1       0.807  13.322  18.768  0.00  0.00    +0.000 A 
ATOM     23  C   UNL     1       0.600  14.694  18.992  0.00  0.00    +0.000 A 
ATOM     24  C   UNL     1       1.620  15.636  18.799  0.00  0.00    +0.000 A 
ATOM     25  C   UNL     1       2.879  15.214  18.389  0.00  0.00    +0.000 A 
ATOM     26 BR   UNL     1       4.255  16.475  18.094  0.00  0.00    +0.000 Br
ATOM     27  C   UNL     1       3.129  13.863  18.190  0.00  0.00    +0.000 A 
ATOM     28  C   UNL     1       2.104  12.932  18.385  0.00  0.00    +0.000 A 
ENDBRANCH   5  22
TORSDOF 3
ENDMDL
MODEL 5
REMARK VINA RESULT:      -7.3      5.953      9.712
REMARK  Name = 
REMARK  4 active torsions:
REMARK  status: ('A' for Active; 'I' for Inactive)
REMARK    1  A    between atoms: C_1  and  C_2
REMARK    2  A    between atoms: C_3  and  C_4
REMARK    3  A    between atoms: N_12  and  C_13
REMARK    4  A    between atoms: C_20  and  C_21
REMARK                            x       y       z     vdW  Elec       q    Type
REMARK                         _______ _______ _______ _____ _____    ______ ____
ROOT
ATOM      1  C   UNL     1      -1.096  12.061  20.872  0.00  0.00    +0.000 C 
ATOM      2  C   UNL     1      -0.503  12.005  19.469  0.00  0.00    +0.000 C 
ATOM      3  C   UNL     1      -1.286  11.052  18.598  0.00  0.00    +0.000 C 
ATOM      4  N   UNL     1      -0.679   9.941  18.304  0.00  0.00    +0.000 NA
ATOM      5  N   UNL     1       0.598  10.043  18.785  0.00  0.00    +0.000 N 
ATOM      6  C   UNL     1       0.873  11.327  19.440  0.00  0.00    +0.000 C 
ENDROOT
BRANCH   6   7
ATOM      7  C   UNL     1       1.852  12.201  18.619  0.00  0.00    +0.000 C 
ATOM      8  O   UNL     1       2.360  11.858  17.549  0.00  0.00    +0.000 OA
ATOM      9  N   UNL     1       2.127  13.457  19.149  0.00  0.00    +0.000 N 
ATOM     10  C   UNL     1       2.765  14.467  18.364  0.00  0.00    +0.000 C 
ATOM     11  C   UNL     1       2.749  15.640  19.306  0.00  0.00    +0.000 C 
ATOM     12  O   UNL     1       2.799  15.039  20.603  0.00  0.00    +0.000 OA
ATOM     13  C   UNL     1       2.342  13.752  20.484  0.00  0.00    +0.000 C 
ATOM     14  O   UNL     1       2.151  13.024  21.442  0.00  0.00    +0.000 OA
ENDBRANCH   6   7
BRANCH   3  15
ATOM     15  C   UNL     1      -2.662  11.370  18.154  0.00  0.00    +0.000 A 
ATOM     16  C   UNL     1      -3.063  11.110  16.835  0.00  0.00    +0.000 A 
ATOM     17  C   UNL     1      -4.360  11.417  16.427  0.00  0.00    +0.000 A 
ATOM     18  C   UNL     1      -5.251  11.977  17.333  0.00  0.00    +0.000 A 
ATOM     19  F   UNL     1      -6.495  12.274  16.936  0.00  0.00    +0.000 F 
ATOM     20  C   UNL     1      -4.869  12.233  18.645  0.00  0.00    +0.000 A 
ATOM     21  C   UNL     1      -3.572  11.921  19.062  0.00  0.00    +0.000 A 
ENDBRANCH   3  15
BRANCH   5  22
ATOM     22  C   UNL     1       1.417   8.919  18.920  0.00  0.00    +0.000 A 
ATOM     23  C   UNL     1       2.225   8.474  17.860  0.00  0.00    +0.000 A 
ATOM     24  C   UNL     1       3.020   7.325  17.969  0.00  0.00    +0.000 A 
ATOM     25  C   UNL     1       3.028   6.603  19.157  0.00  0.00    +0.000 A 
ATOM     26 BR   UNL     1       4.070   5.034  19.308  0.00  0.00    +0.000 Br
ATOM     27  C   UNL     1       2.268   7.031  20.236  0.00  0.00    +0.000 A 
ATOM     28  C   UNL     1       1.478   8.180  20.116  0.00  0.00    +0.000 A 
ENDBRANCH   5  22
TORSDOF 3
ENDMDL
MODEL 6
REMARK VINA RESULT:      -7.2      5.952      9.665
REMARK  Name = 
REMARK  4 active torsions:
REMARK  status: ('A' for Active; 'I' for Inactive)
REMARK    1  A    between atoms: C_1  and  C_2
REMARK    2  A    between atoms: C_3  and  C_4
REMARK    3  A    between atoms: N_12  and  C_13
REMARK    4  A    between atoms: C_20  and  C_21
REMARK                            x       y       z     vdW  Elec       q    Type
REMARK                         _______ _______ _______ _____ _____    ______ ____
ROOT
ATOM      1  C   UNL     1      -1.041  12.041  20.905  0.00  0.00    +0.000 C 
ATOM      2  C   UNL     1      -0.474  12.000  19.490  0.00  0.00    +0.000 C 
ATOM      3  C   UNL     1      -1.278  11.061  18.622  0.00  0.00    +0.000 C 
ATOM      4  N   UNL     1      -0.681   9.952  18.303  0.00  0.00    +0.000 NA
ATOM      5  N   UNL     1       0.605  10.042  18.761  0.00  0.00    +0.000 N 
ATOM      6  C   UNL     1       0.898  11.316  19.427  0.00  0.00    +0.000 C 
ENDROOT
BRANCH   6   7
ATOM      7  C   UNL     1       1.865  12.196  18.598  0.00  0.00    +0.000 C 
ATOM      8  O   UNL     1       2.356  11.862  17.518  0.00  0.00    +0.000 OA
ATOM      9  N   UNL     1       2.151  13.446  19.136  0.00  0.00    +0.000 N 
ATOM     10  C   UNL     1       2.778  14.463  18.351  0.00  0.00    +0.000 C 
ATOM     11  C   UNL     1       2.779  15.627  19.304  0.00  0.00    +0.000 C 
ATOM     12  O   UNL     1       2.848  15.014  20.594  0.00  0.00    +0.000 OA
ATOM     13  C   UNL     1       2.388  13.729  20.471  0.00  0.00    +0.000 C 
ATOM     14  O   UNL     1       2.210  12.993  21.424  0.00  0.00    +0.000 OA
ENDBRANCH   6   7
BRANCH   3  15
ATOM     15  C   UNL     1      -2.660  11.391  18.208  0.00  0.00    +0.000 A 
ATOM     16  C   UNL     1      -3.568  11.937  19.127  0.00  0.00    +0.000 A 
ATOM     17  C   UNL     1      -4.869  12.240  18.726  0.00  0.00    +0.000 A 
ATOM     18  C   UNL     1      -5.257  12.001  17.414  0.00  0.00    +0.000 A 
ATOM     19  F   UNL     1      -6.508  12.291  17.034  0.00  0.00    +0.000 F 
ATOM     20  C   UNL     1      -4.364  11.467  16.491  0.00  0.00    +0.000 A 
ATOM     21  C   UNL     1      -3.057  11.167  16.885  0.00  0.00    +0.000 A 
ENDBRANCH   3  15
BRANCH   5  22
ATOM     22  C   UNL     1       1.421   8.912  18.866  0.00  0.00    +0.000 A 
ATOM     23  C   UNL     1       1.455   8.145  20.043  0.00  0.00    +0.000 A 
ATOM     24  C   UNL     1       2.300   7.034  20.175  0.00  0.00    +0.000 A 
ATOM     25  C   UNL     1       3.122   6.663  19.118  0.00  0.00    +0.000 A 
ATOM     26 BR   UNL     1       4.289   5.187  19.294  0.00  0.00    +0.000 Br
ATOM     27  C   UNL     1       3.091   7.378  17.929  0.00  0.00    +0.000 A 
ATOM     28  C   UNL     1       2.244   8.486  17.808  0.00  0.00    +0.000 A 
ENDBRANCH   5  22
TORSDOF 3
ENDMDL
MODEL 7
REMARK VINA RESULT:      -7.1      5.307      7.736
REMARK  Name = 
REMARK  4 active torsions:
REMARK  status: ('A' for Active; 'I' for Inactive)
REMARK    1  A    between atoms: C_1  and  C_2
REMARK    2  A    between atoms: C_3  and  C_4
REMARK    3  A    between atoms: N_12  and  C_13
REMARK    4  A    between atoms: C_20  and  C_21
REMARK                            x       y       z     vdW  Elec       q    Type
REMARK                         _______ _______ _______ _____ _____    ______ ____
ROOT
ATOM      1  C   UNL     1      -0.311   9.544  21.120  0.00  0.00    +0.000 C 
ATOM      2  C   UNL     1      -0.353   9.760  19.612  0.00  0.00    +0.000 C 
ATOM      3  C   UNL     1       1.041   9.742  19.032  0.00  0.00    +0.000 C 
ATOM      4  N   UNL     1       1.491  10.893  18.631  0.00  0.00    +0.000 NA
ATOM      5  N   UNL     1       0.459  11.785  18.736  0.00  0.00    +0.000 N 
ATOM      6  C   UNL     1      -0.783  11.184  19.234  0.00  0.00    +0.000 C 
ENDROOT
BRANCH   6   7
ATOM      7  C   UNL     1      -1.873  11.111  18.138  0.00  0.00    +0.000 C 
ATOM      8  O   UNL     1      -1.649  10.880  16.948  0.00  0.00    +0.000 OA
ATOM      9  N   UNL     1      -3.180  11.299  18.576  0.00  0.00    +0.000 N 
ATOM     10  C   UNL     1      -4.293  10.968  17.743  0.00  0.00    +0.000 C 
ATOM     11  C   UNL     1      -5.453  11.237  18.663  0.00  0.00    +0.000 C 
ATOM     12  O   UNL     1      -4.975  12.275  19.524  0.00  0.00    +0.000 OA
ATOM     13  C   UNL     1      -3.605  12.230  19.508  0.00  0.00    +0.000 C 
ATOM     14  O   UNL     1      -2.910  12.911  20.241  0.00  0.00    +0.000 OA
ENDBRANCH   6   7
BRANCH   3  15
ATOM     15  C   UNL     1       1.832   8.492  18.971  0.00  0.00    +0.000 A 
ATOM     16  C   UNL     1       1.832   7.596  20.050  0.00  0.00    +0.000 A 
ATOM     17  C   UNL     1       2.584   6.423  19.983  0.00  0.00    +0.000 A 
ATOM     18  C   UNL     1       3.328   6.149  18.842  0.00  0.00    +0.000 A 
ATOM     19  F   UNL     1       4.051   5.023  18.783  0.00  0.00    +0.000 F 
ATOM     20  C   UNL     1       3.331   7.026  17.763  0.00  0.00    +0.000 A 
ATOM     21  C   UNL     1       2.574   8.199  17.822  0.00  0.00    +0.000 A 
ENDBRANCH   3  15
BRANCH   5  22
ATOM     22  C   UNL     1       0.682  13.164  18.689  0.00  0.00    +0.000 A 
ATOM     23  C   UNL     1       1.981  13.691  18.596  0.00  0.00    +0.000 A 
ATOM     24  C   UNL     1       2.220  15.072  18.589  0.00  0.00    +0.000 A 
ATOM     25  C   UNL     1       1.151  15.956  18.661  0.00  0.00    +0.000 A 
ATOM     26 BR   UNL     1       1.459  17.820  18.685  0.00  0.00    +0.000 Br
ATOM     27  C   UNL     1      -0.149  15.473  18.721  0.00  0.00    +0.000 A 
ATOM     28  C   UNL     1      -0.376  14.092  18.728  0.00  0.00    +0.000 A 
ENDBRANCH   5  22
TORSDOF 3
ENDMDL
MODEL 8
REMARK VINA RESULT:      -7.1      5.623      8.122
REMARK  Name = 
REMARK  4 active torsions:
REMARK  status: ('A' for Active; 'I' for Inactive)
REMARK    1  A    between atoms: C_1  and  C_2
REMARK    2  A    between atoms: C_3  and  C_4
REMARK    3  A    between atoms: N_12  and  C_13
REMARK    4  A    between atoms: C_20  and  C_21
REMARK                            x       y       z     vdW  Elec       q    Type
REMARK                         _______ _______ _______ _____ _____    ______ ____
ROOT
ATOM      1  C   UNL     1      -0.588   9.936  21.155  0.00  0.00    +0.000 C 
ATOM      2  C   UNL     1      -0.614  10.237  19.661  0.00  0.00    +0.000 C 
ATOM      3  C   UNL     1       0.785  10.233  19.092  0.00  0.00    +0.000 C 
ATOM      4  N   UNL     1       1.252  11.400  18.760  0.00  0.00    +0.000 NA
ATOM      5  N   UNL     1       0.231  12.298  18.908  0.00  0.00    +0.000 N 
ATOM      6  C   UNL     1      -1.023  11.685  19.361  0.00  0.00    +0.000 C 
ENDROOT
BRANCH   6   7
ATOM      7  C   UNL     1      -2.105  11.688  18.254  0.00  0.00    +0.000 C 
ATOM      8  O   UNL     1      -1.863  11.691  17.045  0.00  0.00    +0.000 OA
ATOM      9  N   UNL     1      -3.422  11.660  18.700  0.00  0.00    +0.000 N 
ATOM     10  C   UNL     1      -4.498  11.362  17.807  0.00  0.00    +0.000 C 
ATOM     11  C   UNL     1      -5.675  11.345  18.744  0.00  0.00    +0.000 C 
ATOM     12  O   UNL     1      -5.305  12.263  19.777  0.00  0.00    +0.000 OA
ATOM     13  C   UNL     1      -3.938  12.365  19.773  0.00  0.00    +0.000 C 
ATOM     14  O   UNL     1      -3.316  12.980  20.621  0.00  0.00    +0.000 OA
ENDBRANCH   6   7
BRANCH   3  15
ATOM     15  C   UNL     1       1.561   8.979  18.967  0.00  0.00    +0.000 A 
ATOM     16  C   UNL     1       1.618   8.067  20.031  0.00  0.00    +0.000 A 
ATOM     17  C   UNL     1       2.355   6.891  19.903  0.00  0.00    +0.000 A 
ATOM     18  C   UNL     1       3.027   6.628  18.716  0.00  0.00    +0.000 A 
ATOM     19  F   UNL     1       3.736   5.498  18.598  0.00  0.00    +0.000 F 
ATOM     20  C   UNL     1       2.973   7.519  17.651  0.00  0.00    +0.000 A 
ATOM     21  C   UNL     1       2.231   8.697  17.771  0.00  0.00    +0.000 A 
ENDBRANCH   3  15
BRANCH   5  22
ATOM     22  C   UNL     1       0.471  13.674  18.940  0.00  0.00    +0.000 A 
ATOM     23  C   UNL     1      -0.529  14.579  19.335  0.00  0.00    +0.000 A 
ATOM     24  C   UNL     1      -0.314  15.964  19.333  0.00  0.00    +0.000 A 
ATOM     25  C   UNL     1       0.921  16.469  18.944  0.00  0.00    +0.000 A 
ATOM     26 BR   UNL     1       1.215  18.335  18.905  0.00  0.00    +0.000 Br
ATOM     27  C   UNL     1       1.943  15.604  18.579  0.00  0.00    +0.000 A 
ATOM     28  C   UNL     1       1.717  14.223  18.584  0.00  0.00    +0.000 A 
ENDBRANCH   5  22
TORSDOF 3
ENDMDL
MODEL 9
REMARK VINA RESULT:      -7.0      5.659      8.179
REMARK  Name = 
REMARK  4 active torsions:
REMARK  status: ('A' for Active; 'I' for Inactive)
REMARK    1  A    between atoms: C_1  and  C_2
REMARK    2  A    between atoms: C_3  and  C_4
REMARK    3  A    between atoms: N_12  and  C_13
REMARK    4  A    between atoms: C_20  and  C_21
REMARK                            x       y       z     vdW  Elec       q    Type
REMARK                         _______ _______ _______ _____ _____    ______ ____
ROOT
ATOM      1  C   UNL     1      -0.507  10.019  21.229  0.00  0.00    +0.000 C 
ATOM      2  C   UNL     1      -0.597  10.291  19.731  0.00  0.00    +0.000 C 
ATOM      3  C   UNL     1       0.777  10.280  19.105  0.00  0.00    +0.000 C 
ATOM      4  N   UNL     1       1.226  11.441  18.730  0.00  0.00    +0.000 NA
ATOM      5  N   UNL     1       0.208  12.339  18.903  0.00  0.00    +0.000 N 
ATOM      6  C   UNL     1      -1.023  11.732  19.421  0.00  0.00    +0.000 C 
ENDROOT
BRANCH   6   7
ATOM      7  C   UNL     1      -2.151  11.710  18.360  0.00  0.00    +0.000 C 
ATOM      8  O   UNL     1      -1.960  11.638  17.145  0.00  0.00    +0.000 OA
ATOM      9  N   UNL     1      -3.448  11.751  18.861  0.00  0.00    +0.000 N 
ATOM     10  C   UNL     1      -4.569  11.441  18.031  0.00  0.00    +0.000 C 
ATOM     11  C   UNL     1      -5.706  11.515  19.014  0.00  0.00    +0.000 C 
ATOM     12  O   UNL     1      -5.263  12.475  19.978  0.00  0.00    +0.000 OA
ATOM     13  C   UNL     1      -3.895  12.532  19.912  0.00  0.00    +0.000 C 
ATOM     14  O   UNL     1      -3.219  13.171  20.698  0.00  0.00    +0.000 OA
ENDBRANCH   6   7
BRANCH   3  15
ATOM     15  C   UNL     1       1.552   9.026  18.971  0.00  0.00    +0.000 A 
ATOM     16  C   UNL     1       2.246   8.741  17.786  0.00  0.00    +0.000 A 
ATOM     17  C   UNL     1       2.969   7.554  17.670  0.00  0.00    +0.000 A 
ATOM     18  C   UNL     1       3.000   6.661  18.734  0.00  0.00    +0.000 A 
ATOM     19  F   UNL     1       3.693   5.522  18.617  0.00  0.00    +0.000 F 
ATOM     20  C   UNL     1       2.322   6.935  19.916  0.00  0.00    +0.000 A 
ATOM     21  C   UNL     1       1.600   8.126  20.041  0.00  0.00    +0.000 A 
ENDBRANCH   3  15
BRANCH   5  22
ATOM     22  C   UNL     1       0.444  13.716  18.899  0.00  0.00    +0.000 A 
ATOM     23  C   UNL     1       1.713  14.238  18.594  0.00  0.00    +0.000 A 
ATOM     24  C   UNL     1       1.973  15.615  18.626  0.00  0.00    +0.000 A 
ATOM     25  C   UNL     1       0.954  16.501  18.953  0.00  0.00    +0.000 A 
ATOM     26 BR   UNL     1       1.297  18.357  19.032  0.00  0.00    +0.000 Br
ATOM     27  C   UNL     1      -0.321  16.024  19.228  0.00  0.00    +0.000 A 
ATOM     28  C   UNL     1      -0.569  14.648  19.193  0.00  0.00    +0.000 A 
ENDBRANCH   5  22
TORSDOF 3
ENDMDL
