MODEL 1
REMARK VINA RESULT:      -7.4      0.000      0.000
REMARK  Name = 
REMARK  0 active torsions:
REMARK  status: ('A' for Active; 'I' for Inactive)
REMARK                            x       y       z     vdW  Elec       q    Type
REMARK                         _______ _______ _______ _____ _____    ______ ____
ROOT
ATOM      1  O   UNL     1       1.089   2.418  22.318  0.00  0.00    +0.000 OA
ATOM      2  C   UNL     1       1.702   2.727  21.312  0.00  0.00    +0.000 C 
ATOM      3  C   UNL     1       1.195   2.547  19.944  0.00  0.00    +0.000 C 
ATOM      4  C   UNL     1       2.123   3.067  19.155  0.00  0.00    +0.000 C 
ATOM      5  C   UNL     1       2.248   3.026  17.722  0.00  0.00    +0.000 C 
ATOM      6  C   UNL     1       3.368   3.551  17.184  0.00  0.00    +0.000 C 
ATOM      7  C   UNL     1       4.438   4.191  18.064  0.00  0.00    +0.000 C 
ATOM      8  C   UNL     1       4.558   3.331  19.344  0.00  0.00    +0.000 C 
ATOM      9  C   UNL     1       3.212   3.695  19.965  0.00  0.00    +0.000 C 
ATOM     10  O   UNL     1       2.966   3.245  21.282  0.00  0.00    +0.000 OA
ATOM     11  C   UNL     1       3.305   5.237  19.876  0.00  0.00    +0.000 C 
ATOM     12  C   UNL     1       2.025   6.020  20.135  0.00  0.00    +0.000 C 
ATOM     13  C   UNL     1       2.271   7.466  19.738  0.00  0.00    +0.000 C 
ATOM     14  C   UNL     1       2.471   7.519  18.232  0.00  0.00    +0.000 C 
ATOM     15  C   UNL     1       3.432   6.457  17.667  0.00  0.00    +0.000 C 
ATOM     16  N   UNL     1       4.016   5.505  18.606  0.00  0.00    +0.000 NA
ENDROOT
TORSDOF 0
ENDMDL
MODEL 2
REMARK VINA RESULT:      -7.0      2.697      4.867
REMARK  Name = 
REMARK  0 active torsions:
REMARK  status: ('A' for Active; 'I' for Inactive)
REMARK                            x       y       z     vdW  Elec       q    Type
REMARK                         _______ _______ _______ _____ _____    ______ ____
ROOT
ATOM      1  O   UNL     1       7.070   4.389  15.108  0.00  0.00    +0.000 OA
ATOM      2  C   UNL     1       6.330   4.773  15.995  0.00  0.00    +0.000 C 
ATOM      3  C   UNL     1       5.289   5.797  15.821  0.00  0.00    +0.000 C 
ATOM      4  C   UNL     1       4.672   5.871  16.990  0.00  0.00    +0.000 C 
ATOM      5  C   UNL     1       3.688   6.811  17.460  0.00  0.00    +0.000 C 
ATOM      6  C   UNL     1       3.309   6.716  18.750  0.00  0.00    +0.000 C 
ATOM      7  C   UNL     1       3.880   5.634  19.661  0.00  0.00    +0.000 C 
ATOM      8  C   UNL     1       5.379   5.479  19.310  0.00  0.00    +0.000 C 
ATOM      9  C   UNL     1       5.205   4.841  17.935  0.00  0.00    +0.000 C 
ATOM     10  O   UNL     1       6.370   4.358  17.297  0.00  0.00    +0.000 OA
ATOM     11  C   UNL     1       4.222   3.707  18.308  0.00  0.00    +0.000 C 
ATOM     12  C   UNL     1       3.547   2.974  17.156  0.00  0.00    +0.000 C 
ATOM     13  C   UNL     1       2.444   2.105  17.736  0.00  0.00    +0.000 C 
ATOM     14  C   UNL     1       1.371   3.016  18.310  0.00  0.00    +0.000 C 
ATOM     15  C   UNL     1       1.898   4.167  19.187  0.00  0.00    +0.000 C 
ATOM     16  N   UNL     1       3.343   4.287  19.347  0.00  0.00    +0.000 NA
ENDROOT
TORSDOF 0
ENDMDL
MODEL 3
REMARK VINA RESULT:      -6.9      2.575      3.827
REMARK  Name = 
REMARK  0 active torsions:
REMARK  status: ('A' for Active; 'I' for Inactive)
REMARK                            x       y       z     vdW  Elec       q    Type
REMARK                         _______ _______ _______ _____ _____    ______ ____
ROOT
ATOM      1  O   UNL     1       3.169   2.917  20.301  0.00  0.00    +0.000 OA
ATOM      2  C   UNL     1       3.567   3.646  19.410  0.00  0.00    +0.000 C 
ATOM      3  C   UNL     1       3.135   5.038  19.223  0.00  0.00    +0.000 C 
ATOM      4  C   UNL     1       3.844   5.491  18.201  0.00  0.00    +0.000 C 
ATOM      5  C   UNL     1       3.729   6.725  17.468  0.00  0.00    +0.000 C 
ATOM      6  C   UNL     1       4.521   6.878  16.387  0.00  0.00    +0.000 C 
ATOM      7  C   UNL     1       5.520   5.797  15.983  0.00  0.00    +0.000 C 
ATOM      8  C   UNL     1       4.840   4.428  16.223  0.00  0.00    +0.000 C 
ATOM      9  C   UNL     1       4.832   4.463  17.748  0.00  0.00    +0.000 C 
ATOM     10  O   UNL     1       4.435   3.285  18.418  0.00  0.00    +0.000 OA
ATOM     11  C   UNL     1       6.319   4.813  17.997  0.00  0.00    +0.000 C 
ATOM     12  C   UNL     1       6.700   5.231  19.411  0.00  0.00    +0.000 C 
ATOM     13  C   UNL     1       8.117   5.778  19.372  0.00  0.00    +0.000 C 
ATOM     14  C   UNL     1       8.108   7.067  18.566  0.00  0.00    +0.000 C 
ATOM     15  C   UNL     1       7.341   6.993  17.232  0.00  0.00    +0.000 C 
ATOM     16  N   UNL     1       6.686   5.732  16.898  0.00  0.00    +0.000 NA
ENDROOT
TORSDOF 0
ENDMDL
MODEL 4
REMARK VINA RESULT:      -6.8      1.833      2.194
REMARK  Name = 
REMARK  0 active torsions:
REMARK  status: ('A' for Active; 'I' for Inactive)
REMARK                            x       y       z     vdW  Elec       q    Type
REMARK                         _______ _______ _______ _____ _____    ______ ____
ROOT
ATOM      1  O   UNL     1       2.247   3.271  22.517  0.00  0.00    +0.000 OA
ATOM      2  C   UNL     1       2.376   3.255  21.306  0.00  0.00    +0.000 C 
ATOM      3  C   UNL     1       1.534   4.018  20.373  0.00  0.00    +0.000 C 
ATOM      4  C   UNL     1       2.039   3.782  19.172  0.00  0.00    +0.000 C 
ATOM      5  C   UNL     1       1.530   4.125  17.870  0.00  0.00    +0.000 C 
ATOM      6  C   UNL     1       2.204   3.655  16.800  0.00  0.00    +0.000 C 
ATOM      7  C   UNL     1       3.471   2.823  16.970  0.00  0.00    +0.000 C 
ATOM      8  C   UNL     1       3.249   1.887  18.182  0.00  0.00    +0.000 C 
ATOM      9  C   UNL     1       3.279   2.951  19.275  0.00  0.00    +0.000 C 
ATOM     10  O   UNL     1       3.281   2.501  20.614  0.00  0.00    +0.000 OA
ATOM     11  C   UNL     1       4.595   3.668  18.890  0.00  0.00    +0.000 C 
ATOM     12  C   UNL     1       4.875   5.004  19.566  0.00  0.00    +0.000 C 
ATOM     13  C   UNL     1       6.055   5.648  18.859  0.00  0.00    +0.000 C 
ATOM     14  C   UNL     1       5.628   6.001  17.443  0.00  0.00    +0.000 C 
ATOM     15  C   UNL     1       4.879   4.883  16.693  0.00  0.00    +0.000 C 
ATOM     16  N   UNL     1       4.630   3.638  17.411  0.00  0.00    +0.000 NA
ENDROOT
TORSDOF 0
ENDMDL
MODEL 5
REMARK VINA RESULT:      -6.7      2.185      3.919
REMARK  Name = 
REMARK  0 active torsions:
REMARK  status: ('A' for Active; 'I' for Inactive)
REMARK                            x       y       z     vdW  Elec       q    Type
REMARK                         _______ _______ _______ _____ _____    ______ ____
ROOT
ATOM      1  O   UNL     1       7.062   5.412  19.815  0.00  0.00    +0.000 OA
ATOM      2  C   UNL     1       5.987   5.157  19.302  0.00  0.00    +0.000 C 
ATOM      3  C   UNL     1       5.738   4.001  18.429  0.00  0.00    +0.000 C 
ATOM      4  C   UNL     1       4.446   4.049  18.143  0.00  0.00    +0.000 C 
ATOM      5  C   UNL     1       3.676   3.277  17.203  0.00  0.00    +0.000 C 
ATOM      6  C   UNL     1       2.383   3.619  17.035  0.00  0.00    +0.000 C 
ATOM      7  C   UNL     1       1.759   4.758  17.837  0.00  0.00    +0.000 C 
ATOM      8  C   UNL     1       2.819   5.879  17.947  0.00  0.00    +0.000 C 
ATOM      9  C   UNL     1       3.782   5.163  18.889  0.00  0.00    +0.000 C 
ATOM     10  O   UNL     1       4.857   5.918  19.409  0.00  0.00    +0.000 OA
ATOM     11  C   UNL     1       2.781   4.727  19.985  0.00  0.00    +0.000 C 
ATOM     12  C   UNL     1       3.279   3.715  21.009  0.00  0.00    +0.000 C 
ATOM     13  C   UNL     1       2.082   3.233  21.811  0.00  0.00    +0.000 C 
ATOM     14  C   UNL     1       1.174   2.443  20.882  0.00  0.00    +0.000 C 
ATOM     15  C   UNL     1       0.891   3.115  19.525  0.00  0.00    +0.000 C 
ATOM     16  N   UNL     1       1.536   4.396  19.258  0.00  0.00    +0.000 NA
ENDROOT
TORSDOF 0
ENDMDL
MODEL 6
REMARK VINA RESULT:      -6.7      2.912      4.544
REMARK  Name = 
REMARK  0 active torsions:
REMARK  status: ('A' for Active; 'I' for Inactive)
REMARK                            x       y       z     vdW  Elec       q    Type
REMARK                         _______ _______ _______ _____ _____    ______ ____
ROOT
ATOM      1  O   UNL     1       7.462   5.516  15.220  0.00  0.00    +0.000 OA
ATOM      2  C   UNL     1       6.654   5.098  16.029  0.00  0.00    +0.000 C 
ATOM      3  C   UNL     1       6.940   4.894  17.456  0.00  0.00    +0.000 C 
ATOM      4  C   UNL     1       5.794   4.502  17.991  0.00  0.00    +0.000 C 
ATOM      5  C   UNL     1       5.511   4.000  19.310  0.00  0.00    +0.000 C 
ATOM      6  C   UNL     1       4.258   3.565  19.550  0.00  0.00    +0.000 C 
ATOM      7  C   UNL     1       3.180   3.635  18.473  0.00  0.00    +0.000 C 
ATOM      8  C   UNL     1       3.850   3.274  17.126  0.00  0.00    +0.000 C 
ATOM      9  C   UNL     1       4.699   4.533  16.972  0.00  0.00    +0.000 C 
ATOM     10  O   UNL     1       5.375   4.709  15.744  0.00  0.00    +0.000 OA
ATOM     11  C   UNL     1       3.605   5.602  17.203  0.00  0.00    +0.000 C 
ATOM     12  C   UNL     1       4.075   7.034  17.421  0.00  0.00    +0.000 C 
ATOM     13  C   UNL     1       2.884   7.853  17.887  0.00  0.00    +0.000 C 
ATOM     14  C   UNL     1       2.474   7.357  19.264  0.00  0.00    +0.000 C 
ATOM     15  C   UNL     1       2.375   5.826  19.399  0.00  0.00    +0.000 C 
ATOM     16  N   UNL     1       2.711   5.021  18.229  0.00  0.00    +0.000 NA
ENDROOT
TORSDOF 0
ENDMDL
MODEL 7
REMARK VINA RESULT:      -6.7      3.484      5.324
REMARK  Name = 
REMARK  0 active torsions:
REMARK  status: ('A' for Active; 'I' for Inactive)
REMARK                            x       y       z     vdW  Elec       q    Type
REMARK                         _______ _______ _______ _____ _____    ______ ____
ROOT
ATOM      1  O   UNL     1       5.871   3.548  13.326  0.00  0.00    +0.000 OA
ATOM      2  C   UNL     1       5.970   4.087  14.413  0.00  0.00    +0.000 C 
ATOM      3  C   UNL     1       5.664   5.503  14.667  0.00  0.00    +0.000 C 
ATOM      4  C   UNL     1       5.832   5.669  15.970  0.00  0.00    +0.000 C 
ATOM      5  C   UNL     1       5.836   6.875  16.757  0.00  0.00    +0.000 C 
ATOM      6  C   UNL     1       6.146   6.759  18.064  0.00  0.00    +0.000 C 
ATOM      7  C   UNL     1       6.446   5.397  18.684  0.00  0.00    +0.000 C 
ATOM      8  C   UNL     1       7.263   4.589  17.649  0.00  0.00    +0.000 C 
ATOM      9  C   UNL     1       6.148   4.365  16.632  0.00  0.00    +0.000 C 
ATOM     10  O   UNL     1       6.421   3.490  15.557  0.00  0.00    +0.000 OA
ATOM     11  C   UNL     1       5.054   3.816  17.578  0.00  0.00    +0.000 C 
ATOM     12  C   UNL     1       3.642   3.720  17.016  0.00  0.00    +0.000 C 
ATOM     13  C   UNL     1       2.698   3.420  18.168  0.00  0.00    +0.000 C 
ATOM     14  C   UNL     1       2.675   4.627  19.092  0.00  0.00    +0.000 C 
ATOM     15  C   UNL     1       4.061   5.201  19.444  0.00  0.00    +0.000 C 
ATOM     16  N   UNL     1       5.228   4.565  18.842  0.00  0.00    +0.000 NA
ENDROOT
TORSDOF 0
ENDMDL
MODEL 8
REMARK VINA RESULT:      -6.7      1.842      2.723
REMARK  Name = 
REMARK  0 active torsions:
REMARK  status: ('A' for Active; 'I' for Inactive)
REMARK                            x       y       z     vdW  Elec       q    Type
REMARK                         _______ _______ _______ _____ _____    ______ ____
ROOT
ATOM      1  O   UNL     1       5.505   1.310  21.404  0.00  0.00    +0.000 OA
ATOM      2  C   UNL     1       4.546   1.768  20.809  0.00  0.00    +0.000 C 
ATOM      3  C   UNL     1       3.387   2.395  21.461  0.00  0.00    +0.000 C 
ATOM      4  C   UNL     1       2.614   2.816  20.472  0.00  0.00    +0.000 C 
ATOM      5  C   UNL     1       1.277   3.350  20.505  0.00  0.00    +0.000 C 
ATOM      6  C   UNL     1       0.681   3.597  19.321  0.00  0.00    +0.000 C 
ATOM      7  C   UNL     1       1.412   3.348  18.004  0.00  0.00    +0.000 C 
ATOM      8  C   UNL     1       2.232   2.047  18.170  0.00  0.00    +0.000 C 
ATOM      9  C   UNL     1       3.273   2.581  19.150  0.00  0.00    +0.000 C 
ATOM     10  O   UNL     1       4.365   1.737  19.454  0.00  0.00    +0.000 OA
ATOM     11  C   UNL     1       3.706   3.855  18.385  0.00  0.00    +0.000 C 
ATOM     12  C   UNL     1       4.550   4.864  19.151  0.00  0.00    +0.000 C 
ATOM     13  C   UNL     1       4.632   6.133  18.319  0.00  0.00    +0.000 C 
ATOM     14  C   UNL     1       3.244   6.749  18.251  0.00  0.00    +0.000 C 
ATOM     15  C   UNL     1       2.111   5.759  17.920  0.00  0.00    +0.000 C 
ATOM     16  N   UNL     1       2.470   4.355  17.744  0.00  0.00    +0.000 NA
ENDROOT
TORSDOF 0
ENDMDL
MODEL 9
REMARK VINA RESULT:      -6.5      2.559      4.738
REMARK  Name = 
REMARK  0 active torsions:
REMARK  status: ('A' for Active; 'I' for Inactive)
REMARK                            x       y       z     vdW  Elec       q    Type
REMARK                         _______ _______ _______ _____ _____    ______ ____
ROOT
ATOM      1  O   UNL     1       8.197   4.123  17.001  0.00  0.00    +0.000 OA
ATOM      2  C   UNL     1       7.141   4.613  17.357  0.00  0.00    +0.000 C 
ATOM      3  C   UNL     1       6.278   5.437  16.498  0.00  0.00    +0.000 C 
ATOM      4  C   UNL     1       5.210   5.709  17.233  0.00  0.00    +0.000 C 
ATOM      5  C   UNL     1       4.115   6.609  16.977  0.00  0.00    +0.000 C 
ATOM      6  C   UNL     1       3.209   6.774  17.962  0.00  0.00    +0.000 C 
ATOM      7  C   UNL     1       3.326   6.010  19.277  0.00  0.00    +0.000 C 
ATOM      8  C   UNL     1       4.828   5.956  19.647  0.00  0.00    +0.000 C 
ATOM      9  C   UNL     1       5.278   4.998  18.547  0.00  0.00    +0.000 C 
ATOM     10  O   UNL     1       6.606   4.521  18.612  0.00  0.00    +0.000 OA
ATOM     11  C   UNL     1       4.235   3.874  18.752  0.00  0.00    +0.000 C 
ATOM     12  C   UNL     1       4.137   2.818  17.659  0.00  0.00    +0.000 C 
ATOM     13  C   UNL     1       2.895   1.984  17.923  0.00  0.00    +0.000 C 
ATOM     14  C   UNL     1       1.676   2.870  17.729  0.00  0.00    +0.000 C 
ATOM     15  C   UNL     1       1.760   4.249  18.411  0.00  0.00    +0.000 C 
ATOM     16  N   UNL     1       2.987   4.573  19.130  0.00  0.00    +0.000 NA
ENDROOT
TORSDOF 0
ENDMDL
