MODEL 1
REMARK VINA RESULT:      -7.6      0.000      0.000
REMARK  Name = 
REMARK  8 active torsions:
REMARK  status: ('A' for Active; 'I' for Inactive)
REMARK    1  A    between atoms: C_1  and  C_2
REMARK    2  A    between atoms: C_7  and  N_8
REMARK    3  A    between atoms: N_8  and  S_9
REMARK    4  A    between atoms: S_9  and  C_10
REMARK    5  A    between atoms: N_15  and  S_16
REMARK    6  A    between atoms: S_16  and  C_17
REMARK    7  A    between atoms: C_21  and  C_22
REMARK    8  A    between atoms: C_21  and  C_23
REMARK                            x       y       z     vdW  Elec       q    Type
REMARK                         _______ _______ _______ _____ _____    ______ ____
ROOT
ATOM      1  C   UNL     1       2.215  10.631  17.873  0.00  0.00    +0.000 C 
ATOM      2  C   UNL     1       2.300   9.211  18.370  0.00  0.00    +0.000 A 
ATOM      3  C   UNL     1       3.208   8.360  17.698  0.00  0.00    +0.000 A 
ATOM      4  C   UNL     1       3.202   6.980  17.964  0.00  0.00    +0.000 A 
ATOM      5  C   UNL     1       2.300   6.446  18.894  0.00  0.00    +0.000 A 
ATOM      6  C   UNL     1       1.442   7.313  19.601  0.00  0.00    +0.000 A 
ATOM      7  C   UNL     1       1.456   8.689  19.361  0.00  0.00    +0.000 A 
ATOM      8  C   UNL     1       2.452   5.036  18.875  0.00  0.00    +0.000 A 
ATOM      9  C   UNL     1       3.507   4.733  18.031  0.00  0.00    +0.000 A 
ATOM     10  N   UNL     1       3.897   5.908  17.421  0.00  0.00    +0.000 N 
ATOM     11  C   UNL     1       4.040   3.356  17.784  0.00  0.00    +0.000 C 
ATOM     12  C   UNL     1       3.578   2.390  18.917  0.00  0.00    +0.000 C 
ATOM     13  C   UNL     1       3.852   0.941  18.482  0.00  0.00    +0.000 C 
ATOM     14  C   UNL     1       4.373   2.654  20.216  0.00  0.00    +0.000 C 
ATOM     15  C   UNL     1       2.059   2.565  19.181  0.00  0.00    +0.000 C 
ATOM     16  C   UNL     1       1.709   3.996  19.578  0.00  0.00    +0.000 C 
ATOM     17  O   UNL     1       0.816   4.247  20.382  0.00  0.00    +0.000 OA
ENDROOT
BRANCH  10  18
ATOM     18  S   UNL     1       5.156   6.034  16.255  0.00  0.00    +0.000 S 
ATOM     19  C   UNL     1       6.672   6.385  17.101  0.00  0.00    +0.000 C 
ATOM     20  O   UNL     1       5.269   4.713  15.666  0.00  0.00    +0.000 OA
ATOM     21  O   UNL     1       4.828   7.174  15.422  0.00  0.00    +0.000 OA
ENDBRANCH  10  18
BRANCH   7  22
ATOM     22  N   UNL     1       0.519   9.479  20.084  0.00  0.00    +0.000 N 
ATOM     23  H   UNL     1       0.082  10.284  19.644  0.00  0.00    +0.000 HD
BRANCH  22  24
ATOM     24  S   UNL     1       0.299   9.295  21.732  0.00  0.00    +0.000 S 
ATOM     25  C   UNL     1      -0.478  10.827  22.234  0.00  0.00    +0.000 C 
ATOM     26  O   UNL     1      -0.628   8.208  21.972  0.00  0.00    +0.000 OA
ATOM     27  O   UNL     1       1.622   9.289  22.309  0.00  0.00    +0.000 OA
ENDBRANCH  22  24
ENDBRANCH   7  22
TORSDOF 3
ENDMDL
MODEL 2
REMARK VINA RESULT:      -7.4      0.953      1.192
REMARK  Name = 
REMARK  8 active torsions:
REMARK  status: ('A' for Active; 'I' for Inactive)
REMARK    1  A    between atoms: C_1  and  C_2
REMARK    2  A    between atoms: C_7  and  N_8
REMARK    3  A    between atoms: N_8  and  S_9
REMARK    4  A    between atoms: S_9  and  C_10
REMARK    5  A    between atoms: N_15  and  S_16
REMARK    6  A    between atoms: S_16  and  C_17
REMARK    7  A    between atoms: C_21  and  C_22
REMARK    8  A    between atoms: C_21  and  C_23
REMARK                            x       y       z     vdW  Elec       q    Type
REMARK                         _______ _______ _______ _____ _____    ______ ____
ROOT
ATOM      1  C   UNL     1       2.171  10.460  17.999  0.00  0.00    +0.000 C 
ATOM      2  C   UNL     1       2.269   9.038  18.488  0.00  0.00    +0.000 A 
ATOM      3  C   UNL     1       3.202   8.205  17.827  0.00  0.00    +0.000 A 
ATOM      4  C   UNL     1       3.213   6.824  18.084  0.00  0.00    +0.000 A 
ATOM      5  C   UNL     1       2.304   6.271  18.997  0.00  0.00    +0.000 A 
ATOM      6  C   UNL     1       1.422   7.120  19.694  0.00  0.00    +0.000 A 
ATOM      7  C   UNL     1       1.418   8.498  19.462  0.00  0.00    +0.000 A 
ATOM      8  C   UNL     1       2.478   4.863  18.971  0.00  0.00    +0.000 A 
ATOM      9  C   UNL     1       3.552   4.582  18.143  0.00  0.00    +0.000 A 
ATOM     10  N   UNL     1       3.933   5.767  17.547  0.00  0.00    +0.000 N 
ATOM     11  C   UNL     1       4.109   3.214  17.898  0.00  0.00    +0.000 C 
ATOM     12  C   UNL     1       3.645   2.234  19.017  0.00  0.00    +0.000 C 
ATOM     13  C   UNL     1       3.948   0.792  18.578  0.00  0.00    +0.000 C 
ATOM     14  C   UNL     1       4.414   2.503  20.330  0.00  0.00    +0.000 C 
ATOM     15  C   UNL     1       2.119   2.384  19.256  0.00  0.00    +0.000 C 
ATOM     16  C   UNL     1       1.740   3.807  19.656  0.00  0.00    +0.000 C 
ATOM     17  O   UNL     1       0.830   4.040  20.447  0.00  0.00    +0.000 OA
ENDROOT
BRANCH  10  18
ATOM     18  S   UNL     1       5.209   5.918  16.402  0.00  0.00    +0.000 S 
ATOM     19  C   UNL     1       5.243   4.456  15.402  0.00  0.00    +0.000 C 
ATOM     20  O   UNL     1       4.834   7.032  15.552  0.00  0.00    +0.000 OA
ATOM     21  O   UNL     1       6.439   5.972  17.168  0.00  0.00    +0.000 OA
ENDBRANCH  10  18
BRANCH   7  22
ATOM     22  N   UNL     1       0.457   9.268  20.175  0.00  0.00    +0.000 N 
ATOM     23  H   UNL     1      -0.433   9.501  19.742  0.00  0.00    +0.000 HD
BRANCH  22  24
ATOM     24  S   UNL     1       0.836  10.041  21.609  0.00  0.00    +0.000 S 
ATOM     25  C   UNL     1      -0.699  10.011  22.530  0.00  0.00    +0.000 C 
ATOM     26  O   UNL     1       1.820   9.257  22.328  0.00  0.00    +0.000 OA
ATOM     27  O   UNL     1       1.087  11.419  21.262  0.00  0.00    +0.000 OA
ENDBRANCH  22  24
ENDBRANCH   7  22
TORSDOF 3
ENDMDL
MODEL 3
REMARK VINA RESULT:      -6.9      2.248      7.970
REMARK  Name = 
REMARK  8 active torsions:
REMARK  status: ('A' for Active; 'I' for Inactive)
REMARK    1  A    between atoms: C_1  and  C_2
REMARK    2  A    between atoms: C_7  and  N_8
REMARK    3  A    between atoms: N_8  and  S_9
REMARK    4  A    between atoms: S_9  and  C_10
REMARK    5  A    between atoms: N_15  and  S_16
REMARK    6  A    between atoms: S_16  and  C_17
REMARK    7  A    between atoms: C_21  and  C_22
REMARK    8  A    between atoms: C_21  and  C_23
REMARK                            x       y       z     vdW  Elec       q    Type
REMARK                         _______ _______ _______ _____ _____    ______ ____
ROOT
ATOM      1  C   UNL     1       1.732   4.818  20.406  0.00  0.00    +0.000 C 
ATOM      2  C   UNL     1       1.882   6.287  20.109  0.00  0.00    +0.000 A 
ATOM      3  C   UNL     1       1.261   7.181  21.013  0.00  0.00    +0.000 A 
ATOM      4  C   UNL     1       1.181   8.549  20.701  0.00  0.00    +0.000 A 
ATOM      5  C   UNL     1       1.718   9.029  19.499  0.00  0.00    +0.000 A 
ATOM      6  C   UNL     1       2.388   8.138  18.636  0.00  0.00    +0.000 A 
ATOM      7  C   UNL     1       2.493   6.781  18.948  0.00  0.00    +0.000 A 
ATOM      8  C   UNL     1       1.399  10.409  19.410  0.00  0.00    +0.000 A 
ATOM      9  C   UNL     1       0.781  10.779  20.593  0.00  0.00    +0.000 A 
ATOM     10  N   UNL     1       0.578   9.629  21.329  0.00  0.00    +0.000 N 
ATOM     11  C   UNL     1       0.346  12.171  20.933  0.00  0.00    +0.000 C 
ATOM     12  C   UNL     1       1.075  13.201  20.019  0.00  0.00    +0.000 C 
ATOM     13  C   UNL     1       0.384  14.568  20.156  0.00  0.00    +0.000 C 
ATOM     14  C   UNL     1       2.549  13.368  20.453  0.00  0.00    +0.000 C 
ATOM     15  C   UNL     1       1.006  12.741  18.538  0.00  0.00    +0.000 C 
ATOM     16  C   UNL     1       1.639  11.367  18.337  0.00  0.00    +0.000 C 
ATOM     17  O   UNL     1       2.246  11.075  17.310  0.00  0.00    +0.000 OA
ENDROOT
BRANCH  10  18
ATOM     18  S   UNL     1      -0.194   9.576  22.866  0.00  0.00    +0.000 S 
ATOM     19  C   UNL     1      -1.238  10.999  23.019  0.00  0.00    +0.000 C 
ATOM     20  O   UNL     1      -1.043   8.401  22.830  0.00  0.00    +0.000 OA
ATOM     21  O   UNL     1       0.860   9.679  23.855  0.00  0.00    +0.000 OA
ENDBRANCH  10  18
BRANCH   7  22
ATOM     22  N   UNL     1       3.141   5.949  17.992  0.00  0.00    +0.000 N 
ATOM     23  H   UNL     1       2.597   5.315  17.413  0.00  0.00    +0.000 HD
BRANCH  22  24
ATOM     24  S   UNL     1       4.804   5.773  17.962  0.00  0.00    +0.000 S 
ATOM     25  C   UNL     1       5.065   4.330  16.936  0.00  0.00    +0.000 C 
ATOM     26  O   UNL     1       5.394   6.920  17.302  0.00  0.00    +0.000 OA
ATOM     27  O   UNL     1       5.187   5.405  19.304  0.00  0.00    +0.000 OA
ENDBRANCH  22  24
ENDBRANCH   7  22
TORSDOF 3
ENDMDL
MODEL 4
REMARK VINA RESULT:      -6.6      5.626     11.010
REMARK  Name = 
REMARK  8 active torsions:
REMARK  status: ('A' for Active; 'I' for Inactive)
REMARK    1  A    between atoms: C_1  and  C_2
REMARK    2  A    between atoms: C_7  and  N_8
REMARK    3  A    between atoms: N_8  and  S_9
REMARK    4  A    between atoms: S_9  and  C_10
REMARK    5  A    between atoms: N_15  and  S_16
REMARK    6  A    between atoms: S_16  and  C_17
REMARK    7  A    between atoms: C_21  and  C_22
REMARK    8  A    between atoms: C_21  and  C_23
REMARK                            x       y       z     vdW  Elec       q    Type
REMARK                         _______ _______ _______ _____ _____    ______ ____
ROOT
ATOM      1  C   UNL     1      -2.421  10.607  16.266  0.00  0.00    +0.000 C 
ATOM      2  C   UNL     1      -2.670  11.205  17.627  0.00  0.00    +0.000 A 
ATOM      3  C   UNL     1      -4.022  11.323  18.027  0.00  0.00    +0.000 A 
ATOM      4  C   UNL     1      -4.348  12.048  19.185  0.00  0.00    +0.000 A 
ATOM      5  C   UNL     1      -3.337  12.653  19.945  0.00  0.00    +0.000 A 
ATOM      6  C   UNL     1      -1.991  12.477  19.569  0.00  0.00    +0.000 A 
ATOM      7  C   UNL     1      -1.654  11.738  18.432  0.00  0.00    +0.000 A 
ATOM      8  C   UNL     1      -3.967  13.394  20.979  0.00  0.00    +0.000 A 
ATOM      9  C   UNL     1      -5.327  13.145  20.912  0.00  0.00    +0.000 A 
ATOM     10  N   UNL     1      -5.555  12.400  19.773  0.00  0.00    +0.000 N 
ATOM     11  C   UNL     1      -6.344  13.682  21.871  0.00  0.00    +0.000 C 
ATOM     12  C   UNL     1      -5.650  14.156  23.183  0.00  0.00    +0.000 C 
ATOM     13  C   UNL     1      -6.647  14.990  24.005  0.00  0.00    +0.000 C 
ATOM     14  C   UNL     1      -5.224  12.944  24.042  0.00  0.00    +0.000 C 
ATOM     15  C   UNL     1      -4.411  15.028  22.845  0.00  0.00    +0.000 C 
ATOM     16  C   UNL     1      -3.396  14.274  21.993  0.00  0.00    +0.000 C 
ATOM     17  O   UNL     1      -2.187  14.452  22.112  0.00  0.00    +0.000 OA
ENDROOT
BRANCH  10  18
ATOM     18  S   UNL     1      -7.105  11.875  19.241  0.00  0.00    +0.000 S 
ATOM     19  C   UNL     1      -7.866  10.958  20.552  0.00  0.00    +0.000 C 
ATOM     20  O   UNL     1      -7.875  13.087  19.039  0.00  0.00    +0.000 OA
ATOM     21  O   UNL     1      -6.871  10.971  18.133  0.00  0.00    +0.000 OA
ENDBRANCH  10  18
BRANCH   7  22
ATOM     22  N   UNL     1      -0.272  11.658  18.103  0.00  0.00    +0.000 N 
ATOM     23  H   UNL     1       0.050  11.933  17.178  0.00  0.00    +0.000 HD
BRANCH  22  24
ATOM     24  S   UNL     1       0.825  10.872  19.090  0.00  0.00    +0.000 S 
ATOM     25  C   UNL     1       2.025  10.197  17.947  0.00  0.00    +0.000 C 
ATOM     26  O   UNL     1       1.490  11.845  19.935  0.00  0.00    +0.000 OA
ATOM     27  O   UNL     1       0.114   9.752  19.659  0.00  0.00    +0.000 OA
ENDBRANCH  22  24
ENDBRANCH   7  22
TORSDOF 3
ENDMDL
MODEL 5
REMARK VINA RESULT:      -6.5      6.230     10.781
REMARK  Name = 
REMARK  8 active torsions:
REMARK  status: ('A' for Active; 'I' for Inactive)
REMARK    1  A    between atoms: C_1  and  C_2
REMARK    2  A    between atoms: C_7  and  N_8
REMARK    3  A    between atoms: N_8  and  S_9
REMARK    4  A    between atoms: S_9  and  C_10
REMARK    5  A    between atoms: N_15  and  S_16
REMARK    6  A    between atoms: S_16  and  C_17
REMARK    7  A    between atoms: C_21  and  C_22
REMARK    8  A    between atoms: C_21  and  C_23
REMARK                            x       y       z     vdW  Elec       q    Type
REMARK                         _______ _______ _______ _____ _____    ______ ____
ROOT
ATOM      1  C   UNL     1      -3.018   9.878  15.945  0.00  0.00    +0.000 C 
ATOM      2  C   UNL     1      -3.029  10.560  17.289  0.00  0.00    +0.000 A 
ATOM      3  C   UNL     1      -4.292  10.961  17.783  0.00  0.00    +0.000 A 
ATOM      4  C   UNL     1      -4.370  11.777  18.925  0.00  0.00    +0.000 A 
ATOM      5  C   UNL     1      -3.199  12.190  19.576  0.00  0.00    +0.000 A 
ATOM      6  C   UNL     1      -1.951  11.732  19.109  0.00  0.00    +0.000 A 
ATOM      7  C   UNL     1      -1.864  10.903  17.988  0.00  0.00    +0.000 A 
ATOM      8  C   UNL     1      -3.580  13.076  20.616  0.00  0.00    +0.000 A 
ATOM      9  C   UNL     1      -4.963  13.106  20.664  0.00  0.00    +0.000 A 
ATOM     10  N   UNL     1      -5.429  12.385  19.584  0.00  0.00    +0.000 N 
ATOM     11  C   UNL     1      -5.770  13.869  21.669  0.00  0.00    +0.000 C 
ATOM     12  C   UNL     1      -4.887  14.237  22.900  0.00  0.00    +0.000 C 
ATOM     13  C   UNL     1      -5.627  15.282  23.752  0.00  0.00    +0.000 C 
ATOM     14  C   UNL     1      -4.641  12.993  23.783  0.00  0.00    +0.000 C 
ATOM     15  C   UNL     1      -3.533  14.829  22.427  0.00  0.00    +0.000 C 
ATOM     16  C   UNL     1      -2.763  13.856  21.539  0.00  0.00    +0.000 C 
ATOM     17  O   UNL     1      -1.537  13.791  21.558  0.00  0.00    +0.000 OA
ENDROOT
BRANCH  10  18
ATOM     18  S   UNL     1      -7.091  12.166  19.197  0.00  0.00    +0.000 S 
ATOM     19  C   UNL     1      -7.875  13.755  19.172  0.00  0.00    +0.000 C 
ATOM     20  O   UNL     1      -7.107  11.639  17.846  0.00  0.00    +0.000 OA
ATOM     21  O   UNL     1      -7.664  11.395  20.283  0.00  0.00    +0.000 OA
ENDBRANCH  10  18
BRANCH   7  22
ATOM     22  N   UNL     1      -0.557  10.534  17.560  0.00  0.00    +0.000 N 
ATOM     23  H   UNL     1      -0.375  10.350  16.577  0.00  0.00    +0.000 HD
BRANCH  22  24
ATOM     24  S   UNL     1       0.644  10.127  18.650  0.00  0.00    +0.000 S 
ATOM     25  C   UNL     1       1.493  11.673  18.951  0.00  0.00    +0.000 C 
ATOM     26  O   UNL     1       0.035   9.686  19.889  0.00  0.00    +0.000 OA
ATOM     27  O   UNL     1       1.563   9.281  17.927  0.00  0.00    +0.000 OA
ENDBRANCH  22  24
ENDBRANCH   7  22
TORSDOF 3
ENDMDL
MODEL 6
REMARK VINA RESULT:      -6.4      5.474      8.146
REMARK  Name = 
REMARK  8 active torsions:
REMARK  status: ('A' for Active; 'I' for Inactive)
REMARK    1  A    between atoms: C_1  and  C_2
REMARK    2  A    between atoms: C_7  and  N_8
REMARK    3  A    between atoms: N_8  and  S_9
REMARK    4  A    between atoms: S_9  and  C_10
REMARK    5  A    between atoms: N_15  and  S_16
REMARK    6  A    between atoms: S_16  and  C_17
REMARK    7  A    between atoms: C_21  and  C_22
REMARK    8  A    between atoms: C_21  and  C_23
REMARK                            x       y       z     vdW  Elec       q    Type
REMARK                         _______ _______ _______ _____ _____    ______ ____
ROOT
ATOM      1  C   UNL     1      -5.591  13.856  21.355  0.00  0.00    +0.000 C 
ATOM      2  C   UNL     1      -4.207  13.319  21.096  0.00  0.00    +0.000 A 
ATOM      3  C   UNL     1      -4.010  12.648  19.867  0.00  0.00    +0.000 A 
ATOM      4  C   UNL     1      -2.814  11.946  19.636  0.00  0.00    +0.000 A 
ATOM      5  C   UNL     1      -1.817  11.913  20.620  0.00  0.00    +0.000 A 
ATOM      6  C   UNL     1      -2.001  12.636  21.816  0.00  0.00    +0.000 A 
ATOM      7  C   UNL     1      -3.176  13.355  22.045  0.00  0.00    +0.000 A 
ATOM      8  C   UNL     1      -0.788  11.054  20.155  0.00  0.00    +0.000 A 
ATOM      9  C   UNL     1      -1.106  10.669  18.863  0.00  0.00    +0.000 A 
ATOM     10  N   UNL     1      -2.374  11.144  18.593  0.00  0.00    +0.000 N 
ATOM     11  C   UNL     1      -0.244   9.815  17.986  0.00  0.00    +0.000 C 
ATOM     12  C   UNL     1       1.221   9.803  18.519  0.00  0.00    +0.000 C 
ATOM     13  C   UNL     1       2.001   8.681  17.813  0.00  0.00    +0.000 C 
ATOM     14  C   UNL     1       1.925  11.142  18.206  0.00  0.00    +0.000 C 
ATOM     15  C   UNL     1       1.228   9.544  20.050  0.00  0.00    +0.000 C 
ATOM     16  C   UNL     1       0.434  10.600  20.812  0.00  0.00    +0.000 C 
ATOM     17  O   UNL     1       0.768  10.985  21.929  0.00  0.00    +0.000 OA
ENDROOT
BRANCH  10  18
ATOM     18  S   UNL     1      -3.220  10.886  17.117  0.00  0.00    +0.000 S 
ATOM     19  C   UNL     1      -4.782  11.717  17.213  0.00  0.00    +0.000 C 
ATOM     20  O   UNL     1      -2.426  11.545  16.097  0.00  0.00    +0.000 OA
ATOM     21  O   UNL     1      -3.469   9.461  17.034  0.00  0.00    +0.000 OA
ENDBRANCH  10  18
BRANCH   7  22
ATOM     22  N   UNL     1      -3.294  14.012  23.303  0.00  0.00    +0.000 N 
ATOM     23  H   UNL     1      -3.880  13.616  24.033  0.00  0.00    +0.000 HD
BRANCH  22  24
ATOM     24  S   UNL     1      -2.715  15.562  23.544  0.00  0.00    +0.000 S 
ATOM     25  C   UNL     1      -1.201  15.316  24.467  0.00  0.00    +0.000 C 
ATOM     26  O   UNL     1      -2.382  16.153  22.263  0.00  0.00    +0.000 OA
ATOM     27  O   UNL     1      -3.650  16.199  24.440  0.00  0.00    +0.000 OA
ENDBRANCH  22  24
ENDBRANCH   7  22
TORSDOF 3
ENDMDL
MODEL 7
REMARK VINA RESULT:      -6.4      5.179     10.470
REMARK  Name = 
REMARK  8 active torsions:
REMARK  status: ('A' for Active; 'I' for Inactive)
REMARK    1  A    between atoms: C_1  and  C_2
REMARK    2  A    between atoms: C_7  and  N_8
REMARK    3  A    between atoms: N_8  and  S_9
REMARK    4  A    between atoms: S_9  and  C_10
REMARK    5  A    between atoms: N_15  and  S_16
REMARK    6  A    between atoms: S_16  and  C_17
REMARK    7  A    between atoms: C_21  and  C_22
REMARK    8  A    between atoms: C_21  and  C_23
REMARK                            x       y       z     vdW  Elec       q    Type
REMARK                         _______ _______ _______ _____ _____    ______ ____
ROOT
ATOM      1  C   UNL     1      -2.667  10.058  15.820  0.00  0.00    +0.000 C 
ATOM      2  C   UNL     1      -2.649  10.606  17.223  0.00  0.00    +0.000 A 
ATOM      3  C   UNL     1      -3.832  11.239  17.670  0.00  0.00    +0.000 A 
ATOM      4  C   UNL     1      -3.831  11.949  18.882  0.00  0.00    +0.000 A 
ATOM      5  C   UNL     1      -2.661  12.029  19.651  0.00  0.00    +0.000 A 
ATOM      6  C   UNL     1      -1.507  11.342  19.224  0.00  0.00    +0.000 A 
ATOM      7  C   UNL     1      -1.504  10.614  18.032  0.00  0.00    +0.000 A 
ATOM      8  C   UNL     1      -2.930  12.885  20.749  0.00  0.00    +0.000 A 
ATOM      9  C   UNL     1      -4.272  13.224  20.706  0.00  0.00    +0.000 A 
ATOM     10  N   UNL     1      -4.786  12.723  19.527  0.00  0.00    +0.000 N 
ATOM     11  C   UNL     1      -4.978  14.061  21.727  0.00  0.00    +0.000 C 
ATOM     12  C   UNL     1      -4.150  14.111  23.047  0.00  0.00    +0.000 C 
ATOM     13  C   UNL     1      -4.715  15.219  23.951  0.00  0.00    +0.000 C 
ATOM     14  C   UNL     1      -4.262  12.772  23.811  0.00  0.00    +0.000 C 
ATOM     15  C   UNL     1      -2.662  14.419  22.731  0.00  0.00    +0.000 C 
ATOM     16  C   UNL     1      -2.047  13.377  21.801  0.00  0.00    +0.000 C 
ATOM     17  O   UNL     1      -0.873  13.034  21.896  0.00  0.00    +0.000 OA
ENDROOT
BRANCH  10  18
ATOM     18  S   UNL     1      -6.414  12.921  19.008  0.00  0.00    +0.000 S 
ATOM     19  C   UNL     1      -7.479  12.136  20.188  0.00  0.00    +0.000 C 
ATOM     20  O   UNL     1      -6.665  14.348  19.060  0.00  0.00    +0.000 OA
ATOM     21  O   UNL     1      -6.530  12.210  17.750  0.00  0.00    +0.000 OA
ENDBRANCH  10  18
BRANCH   7  22
ATOM     22  N   UNL     1      -0.277   9.997  17.657  0.00  0.00    +0.000 N 
ATOM     23  H   UNL     1      -0.237   9.394  16.840  0.00  0.00    +0.000 HD
BRANCH  22  24
ATOM     24  S   UNL     1       1.057  10.007  18.665  0.00  0.00    +0.000 S 
ATOM     25  C   UNL     1       2.220   8.918  17.849  0.00  0.00    +0.000 C 
ATOM     26  O   UNL     1       1.622  11.342  18.697  0.00  0.00    +0.000 OA
ATOM     27  O   UNL     1       0.643   9.343  19.877  0.00  0.00    +0.000 OA
ENDBRANCH  22  24
ENDBRANCH   7  22
TORSDOF 3
ENDMDL
MODEL 8
REMARK VINA RESULT:      -6.4      5.392     10.912
REMARK  Name = 
REMARK  8 active torsions:
REMARK  status: ('A' for Active; 'I' for Inactive)
REMARK    1  A    between atoms: C_1  and  C_2
REMARK    2  A    between atoms: C_7  and  N_8
REMARK    3  A    between atoms: N_8  and  S_9
REMARK    4  A    between atoms: S_9  and  C_10
REMARK    5  A    between atoms: N_15  and  S_16
REMARK    6  A    between atoms: S_16  and  C_17
REMARK    7  A    between atoms: C_21  and  C_22
REMARK    8  A    between atoms: C_21  and  C_23
REMARK                            x       y       z     vdW  Elec       q    Type
REMARK                         _______ _______ _______ _____ _____    ______ ____
ROOT
ATOM      1  C   UNL     1      -2.730   9.959  16.541  0.00  0.00    +0.000 C 
ATOM      2  C   UNL     1      -2.740  10.771  17.810  0.00  0.00    +0.000 A 
ATOM      3  C   UNL     1      -4.009  11.061  18.364  0.00  0.00    +0.000 A 
ATOM      4  C   UNL     1      -4.116  11.976  19.426  0.00  0.00    +0.000 A 
ATOM      5  C   UNL     1      -2.969  12.598  19.938  0.00  0.00    +0.000 A 
ATOM      6  C   UNL     1      -1.706  12.253  19.418  0.00  0.00    +0.000 A 
ATOM      7  C   UNL     1      -1.586  11.328  18.378  0.00  0.00    +0.000 A 
ATOM      8  C   UNL     1      -3.393  13.534  20.916  0.00  0.00    +0.000 A 
ATOM      9  C   UNL     1      -4.762  13.396  21.072  0.00  0.00    +0.000 A 
ATOM     10  N   UNL     1      -5.200  12.513  20.106  0.00  0.00    +0.000 N 
ATOM     11  C   UNL     1      -5.592  14.154  22.061  0.00  0.00    +0.000 C 
ATOM     12  C   UNL     1      -4.685  14.755  23.177  0.00  0.00    +0.000 C 
ATOM     13  C   UNL     1      -5.497  15.784  23.982  0.00  0.00    +0.000 C 
ATOM     14  C   UNL     1      -4.217  13.651  24.152  0.00  0.00    +0.000 C 
ATOM     15  C   UNL     1      -3.456  15.459  22.542  0.00  0.00    +0.000 C 
ATOM     16  C   UNL     1      -2.625  14.502  21.692  0.00  0.00    +0.000 C 
ATOM     17  O   UNL     1      -1.403  14.592  21.618  0.00  0.00    +0.000 OA
ENDROOT
BRANCH  10  18
ATOM     18  S   UNL     1      -6.841  12.049  19.877  0.00  0.00    +0.000 S 
ATOM     19  C   UNL     1      -6.984  11.250  18.303  0.00  0.00    +0.000 C 
ATOM     20  O   UNL     1      -7.110  11.062  20.905  0.00  0.00    +0.000 OA
ATOM     21  O   UNL     1      -7.609  13.278  19.833  0.00  0.00    +0.000 OA
ENDBRANCH  10  18
BRANCH   7  22
ATOM     22  N   UNL     1      -0.274  11.083  17.883  0.00  0.00    +0.000 N 
ATOM     23  H   UNL     1      -0.103  11.057  16.881  0.00  0.00    +0.000 HD
BRANCH  22  24
ATOM     24  S   UNL     1       0.962  10.565  18.884  0.00  0.00    +0.000 S 
ATOM     25  C   UNL     1       1.958   9.518  17.828  0.00  0.00    +0.000 C 
ATOM     26  O   UNL     1       1.760  11.706  19.286  0.00  0.00    +0.000 OA
ATOM     27  O   UNL     1       0.345   9.704  19.863  0.00  0.00    +0.000 OA
ENDBRANCH  22  24
ENDBRANCH   7  22
TORSDOF 3
ENDMDL
MODEL 9
REMARK VINA RESULT:      -6.3      5.499      8.171
REMARK  Name = 
REMARK  8 active torsions:
REMARK  status: ('A' for Active; 'I' for Inactive)
REMARK    1  A    between atoms: C_1  and  C_2
REMARK    2  A    between atoms: C_7  and  N_8
REMARK    3  A    between atoms: N_8  and  S_9
REMARK    4  A    between atoms: S_9  and  C_10
REMARK    5  A    between atoms: N_15  and  S_16
REMARK    6  A    between atoms: S_16  and  C_17
REMARK    7  A    between atoms: C_21  and  C_22
REMARK    8  A    between atoms: C_21  and  C_23
REMARK                            x       y       z     vdW  Elec       q    Type
REMARK                         _______ _______ _______ _____ _____    ______ ____
ROOT
ATOM      1  C   UNL     1      -5.968  13.958  20.512  0.00  0.00    +0.000 C 
ATOM      2  C   UNL     1      -4.548  13.467  20.402  0.00  0.00    +0.000 A 
ATOM      3  C   UNL     1      -4.247  12.648  19.289  0.00  0.00    +0.000 A 
ATOM      4  C   UNL     1      -3.009  11.988  19.220  0.00  0.00    +0.000 A 
ATOM      5  C   UNL     1      -2.070  12.142  20.250  0.00  0.00    +0.000 A 
ATOM      6  C   UNL     1      -2.358  13.010  21.323  0.00  0.00    +0.000 A 
ATOM      7  C   UNL     1      -3.577  13.688  21.389  0.00  0.00    +0.000 A 
ATOM      8  C   UNL     1      -0.976  11.286  19.962  0.00  0.00    +0.000 A 
ATOM      9  C   UNL     1      -1.200  10.713  18.721  0.00  0.00    +0.000 A 
ATOM     10  N   UNL     1      -2.470  11.077  18.322  0.00  0.00    +0.000 N 
ATOM     11  C   UNL     1      -0.249   9.797  18.017  0.00  0.00    +0.000 C 
ATOM     12  C   UNL     1       1.181   9.936  18.621  0.00  0.00    +0.000 C 
ATOM     13  C   UNL     1       2.053   8.774  18.118  0.00  0.00    +0.000 C 
ATOM     14  C   UNL     1       1.839  11.257  18.163  0.00  0.00    +0.000 C 
ATOM     15  C   UNL     1       1.111   9.889  20.171  0.00  0.00    +0.000 C 
ATOM     16  C   UNL     1       0.224  10.993  20.737  0.00  0.00    +0.000 C 
ATOM     17  O   UNL     1       0.474  11.543  21.806  0.00  0.00    +0.000 OA
ENDROOT
BRANCH  10  18
ATOM     18  S   UNL     1      -3.215  10.576  16.854  0.00  0.00    +0.000 S 
ATOM     19  C   UNL     1      -4.794  11.369  16.727  0.00  0.00    +0.000 C 
ATOM     20  O   UNL     1      -2.369  11.093  15.796  0.00  0.00    +0.000 OA
ATOM     21  O   UNL     1      -3.434   9.148  16.976  0.00  0.00    +0.000 OA
ENDBRANCH  10  18
BRANCH   7  22
ATOM     22  N   UNL     1      -3.799  14.502  22.536  0.00  0.00    +0.000 N 
ATOM     23  H   UNL     1      -3.394  15.433  22.588  0.00  0.00    +0.000 HD
BRANCH  22  24
ATOM     24  S   UNL     1      -4.484  13.887  23.933  0.00  0.00    +0.000 S 
ATOM     25  C   UNL     1      -5.993  14.830  24.122  0.00  0.00    +0.000 C 
ATOM     26  O   UNL     1      -4.833  12.496  23.721  0.00  0.00    +0.000 OA
ATOM     27  O   UNL     1      -3.608  14.281  25.010  0.00  0.00    +0.000 OA
ENDBRANCH  22  24
ENDBRANCH   7  22
TORSDOF 3
ENDMDL
