MODEL 1
REMARK VINA RESULT:      -7.2      0.000      0.000
REMARK  Name = 
REMARK  5 active torsions:
REMARK  status: ('A' for Active; 'I' for Inactive)
REMARK    1  A    between atoms: C_2  and  C_23
REMARK    2  A    between atoms: N_3  and  C_4
REMARK    3  A    between atoms: C_5  and  C_6
REMARK    4  A    between atoms: N_16  and  C_17
REMARK    5  A    between atoms: C_26  and  N_27
REMARK                            x       y       z     vdW  Elec       q    Type
REMARK                         _______ _______ _______ _____ _____    ______ ____
ROOT
ATOM      1  C   UNL     1       3.952   5.082  18.038  0.00  0.00    +0.000 A 
ATOM      2  C   UNL     1       4.897   5.003  17.024  0.00  0.00    +0.000 A 
ATOM      3  C   UNL     1       5.112   3.612  16.889  0.00  0.00    +0.000 A 
ATOM      4  N   UNL     1       4.390   2.877  17.732  0.00  0.00    +0.000 NA
ATOM      5  N   UNL     1       3.647   3.779  18.413  0.00  0.00    +0.000 N 
ENDROOT
BRANCH   2   6
ATOM      6  C   UNL     1       5.649   6.110  16.454  0.00  0.00    +0.000 C 
ATOM      7  O   UNL     1       5.167   6.726  15.502  0.00  0.00    +0.000 OA
ATOM      8  N   UNL     1       6.843   6.505  17.043  0.00  0.00    +0.000 N 
ATOM      9  C   UNL     1       7.697   5.737  17.959  0.00  0.00    +0.000 C 
ATOM     10  C   UNL     1       8.054   6.601  19.174  0.00  0.00    +0.000 C 
ATOM     11  O   UNL     1       8.691   7.820  18.760  0.00  0.00    +0.000 OA
ATOM     12  C   UNL     1       7.846   8.582  17.883  0.00  0.00    +0.000 C 
ATOM     13  C   UNL     1       7.462   7.773  16.637  0.00  0.00    +0.000 C 
ENDBRANCH   2   6
BRANCH   5  14
ATOM     14  C   UNL     1       2.701   3.350  19.382  0.00  0.00    +0.000 A 
ATOM     15  C   UNL     1       3.155   2.976  20.653  0.00  0.00    +0.000 A 
ATOM     16  C   UNL     1       2.242   2.584  21.632  0.00  0.00    +0.000 A 
ATOM     17  C   UNL     1       0.880   2.537  21.339  0.00  0.00    +0.000 A 
ATOM     18  C   UNL     1       0.425   2.876  20.066  0.00  0.00    +0.000 A 
ATOM     19  C   UNL     1       1.331   3.284  19.086  0.00  0.00    +0.000 A 
ENDBRANCH   5  14
BRANCH   1  22
ATOM     20  O   UNL     1       1.576   6.388  17.440  0.00  0.00    +0.000 OA
ATOM     21  C   UNL     1       2.290   6.881  18.293  0.00  0.00    +0.000 C 
ATOM     22  N   UNL     1       3.509   6.237  18.688  0.00  0.00    +0.000 N 
ATOM     23  H   UNL     1       3.952   6.479  19.566  0.00  0.00    +0.000 HD
BRANCH  21  24
ATOM     24  C   UNL     1       1.876   8.022  19.148  0.00  0.00    +0.000 A 
ATOM     25  C   UNL     1       1.630   9.266  18.550  0.00  0.00    +0.000 A 
ATOM     26  C   UNL     1       1.214  10.349  19.332  0.00  0.00    +0.000 A 
ATOM     27  C   UNL     1       1.056  10.186  20.716  0.00  0.00    +0.000 A 
ATOM     28  C   UNL     1       1.298   8.940  21.315  0.00  0.00    +0.000 A 
ATOM     29  C   UNL     1       1.706   7.856  20.529  0.00  0.00    +0.000 A 
BRANCH  27  30
ATOM     30  N   UNL     1       0.645  11.327  21.547  0.00  0.00    +0.000 N 
ATOM     31  O   UNL     1       1.099  12.440  21.256  0.00  0.00    +0.000 OA
ATOM     32  O   UNL     1      -0.140  11.103  22.481  0.00  0.00    +0.000 OA
ENDBRANCH  27  30
ENDBRANCH  21  24
ENDBRANCH   1  22
TORSDOF 5
ENDMDL
MODEL 2
REMARK VINA RESULT:      -7.1      0.088      1.039
REMARK  Name = 
REMARK  5 active torsions:
REMARK  status: ('A' for Active; 'I' for Inactive)
REMARK    1  A    between atoms: C_2  and  C_23
REMARK    2  A    between atoms: N_3  and  C_4
REMARK    3  A    between atoms: C_5  and  C_6
REMARK    4  A    between atoms: N_16  and  C_17
REMARK    5  A    between atoms: C_26  and  N_27
REMARK                            x       y       z     vdW  Elec       q    Type
REMARK                         _______ _______ _______ _____ _____    ______ ____
ROOT
ATOM      1  C   UNL     1       3.941   5.110  18.071  0.00  0.00    +0.000 A 
ATOM      2  C   UNL     1       4.891   5.044  17.062  0.00  0.00    +0.000 A 
ATOM      3  C   UNL     1       5.125   3.657  16.926  0.00  0.00    +0.000 A 
ATOM      4  N   UNL     1       4.409   2.911  17.765  0.00  0.00    +0.000 NA
ATOM      5  N   UNL     1       3.651   3.803  18.444  0.00  0.00    +0.000 N 
ENDROOT
BRANCH   2   6
ATOM      6  C   UNL     1       5.631   6.162  16.496  0.00  0.00    +0.000 C 
ATOM      7  O   UNL     1       5.132   6.792  15.562  0.00  0.00    +0.000 OA
ATOM      8  N   UNL     1       6.834   6.551  17.071  0.00  0.00    +0.000 N 
ATOM      9  C   UNL     1       7.705   5.771  17.960  0.00  0.00    +0.000 C 
ATOM     10  C   UNL     1       8.081   6.617  19.182  0.00  0.00    +0.000 C 
ATOM     11  O   UNL     1       8.708   7.844  18.776  0.00  0.00    +0.000 OA
ATOM     12  C   UNL     1       7.847   8.617  17.925  0.00  0.00    +0.000 C 
ATOM     13  C   UNL     1       7.443   7.826  16.674  0.00  0.00    +0.000 C 
ENDBRANCH   2   6
BRANCH   5  14
ATOM     14  C   UNL     1       2.706   3.360  19.408  0.00  0.00    +0.000 A 
ATOM     15  C   UNL     1       3.159   2.996  20.682  0.00  0.00    +0.000 A 
ATOM     16  C   UNL     1       2.246   2.591  21.657  0.00  0.00    +0.000 A 
ATOM     17  C   UNL     1       0.887   2.522  21.355  0.00  0.00    +0.000 A 
ATOM     18  C   UNL     1       0.435   2.851  20.079  0.00  0.00    +0.000 A 
ATOM     19  C   UNL     1       1.339   3.271  19.103  0.00  0.00    +0.000 A 
ENDBRANCH   5  14
BRANCH   1  22
ATOM     20  O   UNL     1       1.543   6.376  17.474  0.00  0.00    +0.000 OA
ATOM     21  C   UNL     1       2.249   6.881  18.326  0.00  0.00    +0.000 C 
ATOM     22  N   UNL     1       3.479   6.258  18.720  0.00  0.00    +0.000 N 
ATOM     23  H   UNL     1       3.919   6.509  19.598  0.00  0.00    +0.000 HD
BRANCH  21  24
ATOM     24  C   UNL     1       1.818   8.017  19.180  0.00  0.00    +0.000 A 
ATOM     25  C   UNL     1       1.684   7.816  20.562  0.00  0.00    +0.000 A 
ATOM     26  C   UNL     1       1.304   8.878  21.390  0.00  0.00    +0.000 A 
ATOM     27  C   UNL     1       1.045  10.137  20.830  0.00  0.00    +0.000 A 
ATOM     28  C   UNL     1       1.183  10.340  19.448  0.00  0.00    +0.000 A 
ATOM     29  C   UNL     1       1.572   9.278  18.622  0.00  0.00    +0.000 A 
BRANCH  27  30
ATOM     30  N   UNL     1       0.619  11.251  21.691  0.00  0.00    +0.000 N 
ATOM     31  O   UNL     1      -0.041  10.973  22.699  0.00  0.00    +0.000 OA
ATOM     32  O   UNL     1       0.958  12.395  21.357  0.00  0.00    +0.000 OA
ENDBRANCH  27  30
ENDBRANCH  21  24
ENDBRANCH   1  22
TORSDOF 5
ENDMDL
MODEL 3
REMARK VINA RESULT:      -7.0      2.382      7.051
REMARK  Name = 
REMARK  5 active torsions:
REMARK  status: ('A' for Active; 'I' for Inactive)
REMARK    1  A    between atoms: C_2  and  C_23
REMARK    2  A    between atoms: N_3  and  C_4
REMARK    3  A    between atoms: C_5  and  C_6
REMARK    4  A    between atoms: N_16  and  C_17
REMARK    5  A    between atoms: C_26  and  N_27
REMARK                            x       y       z     vdW  Elec       q    Type
REMARK                         _______ _______ _______ _____ _____    ______ ____
ROOT
ATOM      1  C   UNL     1       2.079   7.091  19.467  0.00  0.00    +0.000 A 
ATOM      2  C   UNL     1       1.669   8.377  19.792  0.00  0.00    +0.000 A 
ATOM      3  C   UNL     1       0.818   8.175  20.902  0.00  0.00    +0.000 A 
ATOM      4  N   UNL     1       0.688   6.896  21.249  0.00  0.00    +0.000 NA
ATOM      5  N   UNL     1       1.495   6.232  20.389  0.00  0.00    +0.000 N 
ENDROOT
BRANCH   2   6
ATOM      6  C   UNL     1       1.874   9.578  18.997  0.00  0.00    +0.000 C 
ATOM      7  O   UNL     1       2.395   9.472  17.885  0.00  0.00    +0.000 OA
ATOM      8  N   UNL     1       1.404  10.799  19.462  0.00  0.00    +0.000 N 
ATOM      9  C   UNL     1       1.044  11.164  20.839  0.00  0.00    +0.000 C 
ATOM     10  C   UNL     1      -0.328  11.847  20.848  0.00  0.00    +0.000 C 
ATOM     11  O   UNL     1      -0.328  12.994  19.983  0.00  0.00    +0.000 OA
ATOM     12  C   UNL     1       0.000  12.634  18.632  0.00  0.00    +0.000 C 
ATOM     13  C   UNL     1       1.373  11.953  18.556  0.00  0.00    +0.000 C 
ENDBRANCH   2   6
BRANCH   5  14
ATOM     14  C   UNL     1       1.655   4.824  20.492  0.00  0.00    +0.000 A 
ATOM     15  C   UNL     1       1.119   4.007  19.488  0.00  0.00    +0.000 A 
ATOM     16  C   UNL     1       1.294   2.624  19.549  0.00  0.00    +0.000 A 
ATOM     17  C   UNL     1       1.976   2.052  20.621  0.00  0.00    +0.000 A 
ATOM     18  C   UNL     1       2.481   2.857  21.640  0.00  0.00    +0.000 A 
ATOM     19  C   UNL     1       2.325   4.242  21.579  0.00  0.00    +0.000 A 
ENDBRANCH   5  14
BRANCH   1  22
ATOM     20  O   UNL     1       4.551   5.831  19.558  0.00  0.00    +0.000 OA
ATOM     21  C   UNL     1       4.092   6.090  18.461  0.00  0.00    +0.000 C 
ATOM     22  N   UNL     1       2.799   6.698  18.336  0.00  0.00    +0.000 N 
ATOM     23  H   UNL     1       2.301   6.659  17.454  0.00  0.00    +0.000 HD
BRANCH  21  24
ATOM     24  C   UNL     1       4.687   5.609  17.189  0.00  0.00    +0.000 A 
ATOM     25  C   UNL     1       5.012   6.543  16.194  0.00  0.00    +0.000 A 
ATOM     26  C   UNL     1       5.597   6.116  14.997  0.00  0.00    +0.000 A 
ATOM     27  C   UNL     1       5.845   4.750  14.794  0.00  0.00    +0.000 A 
ATOM     28  C   UNL     1       5.524   3.815  15.791  0.00  0.00    +0.000 A 
ATOM     29  C   UNL     1       4.946   4.247  16.991  0.00  0.00    +0.000 A 
BRANCH  27  30
ATOM     30  N   UNL     1       6.436   4.291  13.528  0.00  0.00    +0.000 N 
ATOM     31  O   UNL     1       5.895   3.336  12.958  0.00  0.00    +0.000 OA
ATOM     32  O   UNL     1       7.432   4.898  13.108  0.00  0.00    +0.000 OA
ENDBRANCH  27  30
ENDBRANCH  21  24
ENDBRANCH   1  22
TORSDOF 5
ENDMDL
MODEL 4
REMARK VINA RESULT:      -7.0      0.184      1.035
REMARK  Name = 
REMARK  5 active torsions:
REMARK  status: ('A' for Active; 'I' for Inactive)
REMARK    1  A    between atoms: C_2  and  C_23
REMARK    2  A    between atoms: N_3  and  C_4
REMARK    3  A    between atoms: C_5  and  C_6
REMARK    4  A    between atoms: N_16  and  C_17
REMARK    5  A    between atoms: C_26  and  N_27
REMARK                            x       y       z     vdW  Elec       q    Type
REMARK                         _______ _______ _______ _____ _____    ______ ____
ROOT
ATOM      1  C   UNL     1       3.974   5.122  17.929  0.00  0.00    +0.000 A 
ATOM      2  C   UNL     1       4.937   5.049  16.933  0.00  0.00    +0.000 A 
ATOM      3  C   UNL     1       5.138   3.659  16.776  0.00  0.00    +0.000 A 
ATOM      4  N   UNL     1       4.391   2.917  17.590  0.00  0.00    +0.000 NA
ATOM      5  N   UNL     1       3.645   3.816  18.273  0.00  0.00    +0.000 N 
ENDROOT
BRANCH   2   6
ATOM      6  C   UNL     1       5.714   6.157  16.398  0.00  0.00    +0.000 C 
ATOM      7  O   UNL     1       5.265   6.791  15.441  0.00  0.00    +0.000 OA
ATOM      8  N   UNL     1       6.895   6.534  17.025  0.00  0.00    +0.000 N 
ATOM      9  C   UNL     1       7.717   5.747  17.954  0.00  0.00    +0.000 C 
ATOM     10  C   UNL     1       8.047   6.591  19.190  0.00  0.00    +0.000 C 
ATOM     11  O   UNL     1       8.706   7.810  18.810  0.00  0.00    +0.000 OA
ATOM     12  C   UNL     1       7.892   8.591  17.920  0.00  0.00    +0.000 C 
ATOM     13  C   UNL     1       7.536   7.801  16.654  0.00  0.00    +0.000 C 
ENDBRANCH   2   6
BRANCH   5  14
ATOM     14  C   UNL     1       2.674   3.382  19.215  0.00  0.00    +0.000 A 
ATOM     15  C   UNL     1       1.394   3.042  18.759  0.00  0.00    +0.000 A 
ATOM     16  C   UNL     1       0.433   2.580  19.660  0.00  0.00    +0.000 A 
ATOM     17  C   UNL     1       0.737   2.482  21.016  0.00  0.00    +0.000 A 
ATOM     18  C   UNL     1       1.999   2.850  21.480  0.00  0.00    +0.000 A 
ATOM     19  C   UNL     1       2.970   3.299  20.584  0.00  0.00    +0.000 A 
ENDBRANCH   5  14
BRANCH   1  22
ATOM     20  O   UNL     1       1.538   6.360  17.435  0.00  0.00    +0.000 OA
ATOM     21  C   UNL     1       2.278   6.879  18.250  0.00  0.00    +0.000 C 
ATOM     22  N   UNL     1       3.531   6.270  18.590  0.00  0.00    +0.000 N 
ATOM     23  H   UNL     1       4.009   6.532  19.445  0.00  0.00    +0.000 HD
BRANCH  21  24
ATOM     24  C   UNL     1       1.876   8.016  19.116  0.00  0.00    +0.000 A 
ATOM     25  C   UNL     1       1.586   9.253  18.523  0.00  0.00    +0.000 A 
ATOM     26  C   UNL     1       1.179  10.332  19.315  0.00  0.00    +0.000 A 
ATOM     27  C   UNL     1       1.075  10.172  20.705  0.00  0.00    +0.000 A 
ATOM     28  C   UNL     1       1.360   8.933  21.299  0.00  0.00    +0.000 A 
ATOM     29  C   UNL     1       1.759   7.853  20.503  0.00  0.00    +0.000 A 
BRANCH  27  30
ATOM     30  N   UNL     1       0.674  11.309  21.547  0.00  0.00    +0.000 N 
ATOM     31  O   UNL     1      -0.156  11.095  22.438  0.00  0.00    +0.000 OA
ATOM     32  O   UNL     1       1.201  12.407  21.316  0.00  0.00    +0.000 OA
ENDBRANCH  27  30
ENDBRANCH  21  24
ENDBRANCH   1  22
TORSDOF 5
ENDMDL
MODEL 5
REMARK VINA RESULT:      -7.0      2.382      6.982
REMARK  Name = 
REMARK  5 active torsions:
REMARK  status: ('A' for Active; 'I' for Inactive)
REMARK    1  A    between atoms: C_2  and  C_23
REMARK    2  A    between atoms: N_3  and  C_4
REMARK    3  A    between atoms: C_5  and  C_6
REMARK    4  A    between atoms: N_16  and  C_17
REMARK    5  A    between atoms: C_26  and  N_27
REMARK                            x       y       z     vdW  Elec       q    Type
REMARK                         _______ _______ _______ _____ _____    ______ ____
ROOT
ATOM      1  C   UNL     1       2.078   7.079  19.459  0.00  0.00    +0.000 A 
ATOM      2  C   UNL     1       1.673   8.365  19.792  0.00  0.00    +0.000 A 
ATOM      3  C   UNL     1       0.817   8.160  20.898  0.00  0.00    +0.000 A 
ATOM      4  N   UNL     1       0.678   6.879  21.234  0.00  0.00    +0.000 NA
ATOM      5  N   UNL     1       1.484   6.217  20.374  0.00  0.00    +0.000 N 
ENDROOT
BRANCH   2   6
ATOM      6  C   UNL     1       1.890   9.570  19.007  0.00  0.00    +0.000 C 
ATOM      7  O   UNL     1       2.432   9.471  17.905  0.00  0.00    +0.000 OA
ATOM      8  N   UNL     1       1.405  10.787  19.469  0.00  0.00    +0.000 N 
ATOM      9  C   UNL     1       1.017  11.144  20.840  0.00  0.00    +0.000 C 
ATOM     10  C   UNL     1      -0.358  11.822  20.825  0.00  0.00    +0.000 C 
ATOM     11  O   UNL     1      -0.346  12.973  19.966  0.00  0.00    +0.000 OA
ATOM     12  C   UNL     1       0.011  12.620  18.620  0.00  0.00    +0.000 C 
ATOM     13  C   UNL     1       1.387  11.945  18.567  0.00  0.00    +0.000 C 
ENDBRANCH   2   6
BRANCH   5  14
ATOM     14  C   UNL     1       1.635   4.806  20.466  0.00  0.00    +0.000 A 
ATOM     15  C   UNL     1       2.314   4.270  21.568  0.00  0.00    +0.000 A 
ATOM     16  C   UNL     1       2.445   2.887  21.699  0.00  0.00    +0.000 A 
ATOM     17  C   UNL     1       1.927   2.040  20.721  0.00  0.00    +0.000 A 
ATOM     18  C   UNL     1       1.280   2.570  19.606  0.00  0.00    +0.000 A 
ATOM     19  C   UNL     1       1.131   3.951  19.475  0.00  0.00    +0.000 A 
ENDBRANCH   5  14
BRANCH   1  22
ATOM     20  O   UNL     1       4.564   5.848  19.551  0.00  0.00    +0.000 OA
ATOM     21  C   UNL     1       4.100   6.098  18.455  0.00  0.00    +0.000 C 
ATOM     22  N   UNL     1       2.800   6.690  18.329  0.00  0.00    +0.000 N 
ATOM     23  H   UNL     1       2.301   6.641  17.448  0.00  0.00    +0.000 HD
BRANCH  21  24
ATOM     24  C   UNL     1       4.698   5.619  17.183  0.00  0.00    +0.000 A 
ATOM     25  C   UNL     1       4.988   6.549  16.174  0.00  0.00    +0.000 A 
ATOM     26  C   UNL     1       5.576   6.125  14.978  0.00  0.00    +0.000 A 
ATOM     27  C   UNL     1       5.862   4.764  14.789  0.00  0.00    +0.000 A 
ATOM     28  C   UNL     1       5.577   3.833  15.800  0.00  0.00    +0.000 A 
ATOM     29  C   UNL     1       4.996   4.262  16.999  0.00  0.00    +0.000 A 
BRANCH  27  30
ATOM     30  N   UNL     1       6.456   4.307  13.524  0.00  0.00    +0.000 N 
ATOM     31  O   UNL     1       7.450   4.914  13.107  0.00  0.00    +0.000 OA
ATOM     32  O   UNL     1       5.928   3.337  12.960  0.00  0.00    +0.000 OA
ENDBRANCH  27  30
ENDBRANCH  21  24
ENDBRANCH   1  22
TORSDOF 5
ENDMDL
MODEL 6
REMARK VINA RESULT:      -6.9      0.154      1.236
REMARK  Name = 
REMARK  5 active torsions:
REMARK  status: ('A' for Active; 'I' for Inactive)
REMARK    1  A    between atoms: C_2  and  C_23
REMARK    2  A    between atoms: N_3  and  C_4
REMARK    3  A    between atoms: C_5  and  C_6
REMARK    4  A    between atoms: N_16  and  C_17
REMARK    5  A    between atoms: C_26  and  N_27
REMARK                            x       y       z     vdW  Elec       q    Type
REMARK                         _______ _______ _______ _____ _____    ______ ____
ROOT
ATOM      1  C   UNL     1       3.948   5.153  18.003  0.00  0.00    +0.000 A 
ATOM      2  C   UNL     1       4.906   5.096  17.001  0.00  0.00    +0.000 A 
ATOM      3  C   UNL     1       5.131   3.709  16.846  0.00  0.00    +0.000 A 
ATOM      4  N   UNL     1       4.403   2.956  17.666  0.00  0.00    +0.000 NA
ATOM      5  N   UNL     1       3.646   3.842  18.353  0.00  0.00    +0.000 N 
ENDROOT
BRANCH   2   6
ATOM      6  C   UNL     1       5.658   6.217  16.458  0.00  0.00    +0.000 C 
ATOM      7  O   UNL     1       5.177   6.858  15.523  0.00  0.00    +0.000 OA
ATOM      8  N   UNL     1       6.853   6.596  17.057  0.00  0.00    +0.000 N 
ATOM      9  C   UNL     1       7.706   5.804  17.953  0.00  0.00    +0.000 C 
ATOM     10  C   UNL     1       8.064   6.636  19.190  0.00  0.00    +0.000 C 
ATOM     11  O   UNL     1       8.703   7.865  18.806  0.00  0.00    +0.000 OA
ATOM     12  C   UNL     1       7.858   8.650  17.949  0.00  0.00    +0.000 C 
ATOM     13  C   UNL     1       7.473   7.873  16.684  0.00  0.00    +0.000 C 
ENDBRANCH   2   6
BRANCH   5  14
ATOM     14  C   UNL     1       2.689   3.392  19.302  0.00  0.00    +0.000 A 
ATOM     15  C   UNL     1       1.382   3.128  18.873  0.00  0.00    +0.000 A 
ATOM     16  C   UNL     1       0.434   2.652  19.779  0.00  0.00    +0.000 A 
ATOM     17  C   UNL     1       0.778   2.465  21.117  0.00  0.00    +0.000 A 
ATOM     18  C   UNL     1       2.067   2.758  21.556  0.00  0.00    +0.000 A 
ATOM     19  C   UNL     1       3.026   3.220  20.653  0.00  0.00    +0.000 A 
ENDBRANCH   5  14
BRANCH   1  22
ATOM     20  O   UNL     1       1.530   6.404  17.454  0.00  0.00    +0.000 OA
ATOM     21  C   UNL     1       2.248   6.911  18.296  0.00  0.00    +0.000 C 
ATOM     22  N   UNL     1       3.488   6.295  18.666  0.00  0.00    +0.000 N 
ATOM     23  H   UNL     1       3.942   6.544  19.537  0.00  0.00    +0.000 HD
BRANCH  21  24
ATOM     24  C   UNL     1       1.823   8.038  19.164  0.00  0.00    +0.000 A 
ATOM     25  C   UNL     1       1.730   7.834  20.548  0.00  0.00    +0.000 A 
ATOM     26  C   UNL     1       1.356   8.889  21.388  0.00  0.00    +0.000 A 
ATOM     27  C   UNL     1       1.064  10.145  20.837  0.00  0.00    +0.000 A 
ATOM     28  C   UNL     1       1.161  10.352  19.452  0.00  0.00    +0.000 A 
ATOM     29  C   UNL     1       1.543   9.297  18.615  0.00  0.00    +0.000 A 
BRANCH  27  30
ATOM     30  N   UNL     1       0.645  11.251  21.711  0.00  0.00    +0.000 N 
ATOM     31  O   UNL     1       1.027  12.389  21.416  0.00  0.00    +0.000 OA
ATOM     32  O   UNL     1      -0.073  10.973  22.683  0.00  0.00    +0.000 OA
ENDBRANCH  27  30
ENDBRANCH  21  24
ENDBRANCH   1  22
TORSDOF 5
ENDMDL
MODEL 7
REMARK VINA RESULT:      -6.8      3.989     10.467
REMARK  Name = 
REMARK  5 active torsions:
REMARK  status: ('A' for Active; 'I' for Inactive)
REMARK    1  A    between atoms: C_2  and  C_23
REMARK    2  A    between atoms: N_3  and  C_4
REMARK    3  A    between atoms: C_5  and  C_6
REMARK    4  A    between atoms: N_16  and  C_17
REMARK    5  A    between atoms: C_26  and  N_27
REMARK                            x       y       z     vdW  Elec       q    Type
REMARK                         _______ _______ _______ _____ _____    ______ ____
ROOT
ATOM      1  C   UNL     1       0.713  13.174  21.072  0.00  0.00    +0.000 A 
ATOM      2  C   UNL     1      -0.351  13.527  21.891  0.00  0.00    +0.000 A 
ATOM      3  C   UNL     1      -0.224  14.930  22.002  0.00  0.00    +0.000 A 
ATOM      4  N   UNL     1       0.814  15.426  21.333  0.00  0.00    +0.000 NA
ATOM      5  N   UNL     1       1.369  14.350  20.729  0.00  0.00    +0.000 N 
ENDROOT
BRANCH   2   6
ATOM      6  C   UNL     1      -1.201  12.617  22.644  0.00  0.00    +0.000 C 
ATOM      7  O   UNL     1      -0.679  11.678  23.247  0.00  0.00    +0.000 OA
ATOM      8  N   UNL     1      -2.563  12.873  22.742  0.00  0.00    +0.000 N 
ATOM      9  C   UNL     1      -3.385  13.734  21.881  0.00  0.00    +0.000 C 
ATOM     10  C   UNL     1      -4.237  14.666  22.750  0.00  0.00    +0.000 C 
ATOM     11  O   UNL     1      -5.048  13.907  23.663  0.00  0.00    +0.000 OA
ATOM     12  C   UNL     1      -4.242  13.083  24.521  0.00  0.00    +0.000 C 
ATOM     13  C   UNL     1      -3.370  12.117  23.707  0.00  0.00    +0.000 C 
ENDBRANCH   2   6
BRANCH   5  14
ATOM     14  C   UNL     1       2.491  14.504  19.870  0.00  0.00    +0.000 A 
ATOM     15  C   UNL     1       2.291  14.474  18.484  0.00  0.00    +0.000 A 
ATOM     16  C   UNL     1       3.372  14.657  17.620  0.00  0.00    +0.000 A 
ATOM     17  C   UNL     1       4.654  14.841  18.135  0.00  0.00    +0.000 A 
ATOM     18  C   UNL     1       4.864  14.838  19.513  0.00  0.00    +0.000 A 
ATOM     19  C   UNL     1       3.786  14.671  20.383  0.00  0.00    +0.000 A 
ENDBRANCH   5  14
BRANCH   1  22
ATOM     20  O   UNL     1      -0.261  11.636  18.976  0.00  0.00    +0.000 OA
ATOM     21  C   UNL     1       0.575  11.132  19.703  0.00  0.00    +0.000 C 
ATOM     22  N   UNL     1       1.157  11.883  20.776  0.00  0.00    +0.000 N 
ATOM     23  H   UNL     1       2.029  11.580  21.196  0.00  0.00    +0.000 HD
BRANCH  21  24
ATOM     24  C   UNL     1       1.227   9.828  19.422  0.00  0.00    +0.000 A 
ATOM     25  C   UNL     1       1.308   8.874  20.446  0.00  0.00    +0.000 A 
ATOM     26  C   UNL     1       1.895   7.627  20.198  0.00  0.00    +0.000 A 
ATOM     27  C   UNL     1       2.410   7.345  18.924  0.00  0.00    +0.000 A 
ATOM     28  C   UNL     1       2.324   8.297  17.897  0.00  0.00    +0.000 A 
ATOM     29  C   UNL     1       1.729   9.540  18.146  0.00  0.00    +0.000 A 
BRANCH  27  30
ATOM     30  N   UNL     1       3.051   6.047  18.663  0.00  0.00    +0.000 N 
ATOM     31  O   UNL     1       3.908   5.661  19.467  0.00  0.00    +0.000 OA
ATOM     32  O   UNL     1       2.684   5.418  17.659  0.00  0.00    +0.000 OA
ENDBRANCH  27  30
ENDBRANCH  21  24
ENDBRANCH   1  22
TORSDOF 5
ENDMDL
MODEL 8
REMARK VINA RESULT:      -6.8      3.992     10.439
REMARK  Name = 
REMARK  5 active torsions:
REMARK  status: ('A' for Active; 'I' for Inactive)
REMARK    1  A    between atoms: C_2  and  C_23
REMARK    2  A    between atoms: N_3  and  C_4
REMARK    3  A    between atoms: C_5  and  C_6
REMARK    4  A    between atoms: N_16  and  C_17
REMARK    5  A    between atoms: C_26  and  N_27
REMARK                            x       y       z     vdW  Elec       q    Type
REMARK                         _______ _______ _______ _____ _____    ______ ____
ROOT
ATOM      1  C   UNL     1       0.692  13.183  21.071  0.00  0.00    +0.000 A 
ATOM      2  C   UNL     1      -0.362  13.533  21.903  0.00  0.00    +0.000 A 
ATOM      3  C   UNL     1      -0.231  14.935  22.021  0.00  0.00    +0.000 A 
ATOM      4  N   UNL     1       0.802  15.433  21.345  0.00  0.00    +0.000 NA
ATOM      5  N   UNL     1       1.348  14.359  20.729  0.00  0.00    +0.000 N 
ENDROOT
BRANCH   2   6
ATOM      6  C   UNL     1      -1.207  12.621  22.659  0.00  0.00    +0.000 C 
ATOM      7  O   UNL     1      -0.681  11.682  23.259  0.00  0.00    +0.000 OA
ATOM      8  N   UNL     1      -2.569  12.873  22.763  0.00  0.00    +0.000 N 
ATOM      9  C   UNL     1      -3.397  13.732  21.906  0.00  0.00    +0.000 C 
ATOM     10  C   UNL     1      -4.248  14.662  22.780  0.00  0.00    +0.000 C 
ATOM     11  O   UNL     1      -5.053  13.901  23.695  0.00  0.00    +0.000 OA
ATOM     12  C   UNL     1      -4.241  13.078  24.549  0.00  0.00    +0.000 C 
ATOM     13  C   UNL     1      -3.371  12.115  23.731  0.00  0.00    +0.000 C 
ENDBRANCH   2   6
BRANCH   5  14
ATOM     14  C   UNL     1       2.462  14.515  19.860  0.00  0.00    +0.000 A 
ATOM     15  C   UNL     1       3.731  14.719  20.416  0.00  0.00    +0.000 A 
ATOM     16  C   UNL     1       4.845  14.840  19.584  0.00  0.00    +0.000 A 
ATOM     17  C   UNL     1       4.692  14.787  18.200  0.00  0.00    +0.000 A 
ATOM     18  C   UNL     1       3.427  14.618  17.640  0.00  0.00    +0.000 A 
ATOM     19  C   UNL     1       2.310  14.480  18.465  0.00  0.00    +0.000 A 
ENDBRANCH   5  14
BRANCH   1  22
ATOM     20  O   UNL     1      -0.238  11.695  18.919  0.00  0.00    +0.000 OA
ATOM     21  C   UNL     1       0.571  11.168  19.660  0.00  0.00    +0.000 C 
ATOM     22  N   UNL     1       1.130  11.892  20.764  0.00  0.00    +0.000 N 
ATOM     23  H   UNL     1       1.986  11.572  21.202  0.00  0.00    +0.000 HD
BRANCH  21  24
ATOM     24  C   UNL     1       1.215   9.862  19.372  0.00  0.00    +0.000 A 
ATOM     25  C   UNL     1       1.291   8.902  20.391  0.00  0.00    +0.000 A 
ATOM     26  C   UNL     1       1.871   7.654  20.137  0.00  0.00    +0.000 A 
ATOM     27  C   UNL     1       2.386   7.375  18.862  0.00  0.00    +0.000 A 
ATOM     28  C   UNL     1       2.306   8.334  17.840  0.00  0.00    +0.000 A 
ATOM     29  C   UNL     1       1.718   9.578  18.095  0.00  0.00    +0.000 A 
BRANCH  27  30
ATOM     30  N   UNL     1       3.020   6.076  18.594  0.00  0.00    +0.000 N 
ATOM     31  O   UNL     1       2.515   5.363  17.719  0.00  0.00    +0.000 OA
ATOM     32  O   UNL     1       4.026   5.783  19.256  0.00  0.00    +0.000 OA
ENDBRANCH  27  30
ENDBRANCH  21  24
ENDBRANCH   1  22
TORSDOF 5
ENDMDL
MODEL 9
REMARK VINA RESULT:      -6.8      3.695      8.420
REMARK  Name = 
REMARK  5 active torsions:
REMARK  status: ('A' for Active; 'I' for Inactive)
REMARK    1  A    between atoms: C_2  and  C_23
REMARK    2  A    between atoms: N_3  and  C_4
REMARK    3  A    between atoms: C_5  and  C_6
REMARK    4  A    between atoms: N_16  and  C_17
REMARK    5  A    between atoms: C_26  and  N_27
REMARK                            x       y       z     vdW  Elec       q    Type
REMARK                         _______ _______ _______ _____ _____    ______ ____
ROOT
ATOM      1  C   UNL     1       0.181  12.358  19.523  0.00  0.00    +0.000 A 
ATOM      2  C   UNL     1       0.667  13.494  20.155  0.00  0.00    +0.000 A 
ATOM      3  C   UNL     1      -0.411  14.403  20.066  0.00  0.00    +0.000 A 
ATOM      4  N   UNL     1      -1.475  13.908  19.436  0.00  0.00    +0.000 NA
ATOM      5  N   UNL     1      -1.125  12.636  19.136  0.00  0.00    +0.000 N 
ENDROOT
BRANCH   2   6
ATOM      6  C   UNL     1       2.044  13.737  20.558  0.00  0.00    +0.000 C 
ATOM      7  O   UNL     1       2.555  12.999  21.402  0.00  0.00    +0.000 OA
ATOM      8  N   UNL     1       2.780  14.731  19.926  0.00  0.00    +0.000 N 
ATOM      9  C   UNL     1       2.277  15.868  19.143  0.00  0.00    +0.000 C 
ATOM     10  C   UNL     1       3.037  15.953  17.814  0.00  0.00    +0.000 C 
ATOM     11  O   UNL     1       4.452  16.059  18.046  0.00  0.00    +0.000 OA
ATOM     12  C   UNL     1       4.947  14.934  18.791  0.00  0.00    +0.000 C 
ATOM     13  C   UNL     1       4.230  14.802  20.141  0.00  0.00    +0.000 C 
ENDBRANCH   2   6
BRANCH   5  14
ATOM     14  C   UNL     1      -2.047  11.766  18.494  0.00  0.00    +0.000 A 
ATOM     15  C   UNL     1      -1.561  10.809  17.594  0.00  0.00    +0.000 A 
ATOM     16  C   UNL     1      -2.443   9.921  16.978  0.00  0.00    +0.000 A 
ATOM     17  C   UNL     1      -3.810  10.003  17.234  0.00  0.00    +0.000 A 
ATOM     18  C   UNL     1      -4.303  10.975  18.102  0.00  0.00    +0.000 A 
ATOM     19  C   UNL     1      -3.426  11.857  18.735  0.00  0.00    +0.000 A 
ENDBRANCH   5  14
BRANCH   1  22
ATOM     20  O   UNL     1       0.142  10.002  20.991  0.00  0.00    +0.000 OA
ATOM     21  C   UNL     1       0.865  10.044  20.013  0.00  0.00    +0.000 C 
ATOM     22  N   UNL     1       0.901  11.211  19.181  0.00  0.00    +0.000 N 
ATOM     23  H   UNL     1       1.270  11.154  18.238  0.00  0.00    +0.000 HD
BRANCH  21  24
ATOM     24  C   UNL     1       1.574   8.859  19.466  0.00  0.00    +0.000 A 
ATOM     25  C   UNL     1       2.069   8.908  18.155  0.00  0.00    +0.000 A 
ATOM     26  C   UNL     1       2.763   7.814  17.627  0.00  0.00    +0.000 A 
ATOM     27  C   UNL     1       2.948   6.666  18.411  0.00  0.00    +0.000 A 
ATOM     28  C   UNL     1       2.457   6.617  19.725  0.00  0.00    +0.000 A 
ATOM     29  C   UNL     1       1.771   7.717  20.254  0.00  0.00    +0.000 A 
BRANCH  27  30
ATOM     30  N   UNL     1       3.653   5.502  17.853  0.00  0.00    +0.000 N 
ATOM     31  O   UNL     1       4.888   5.544  17.819  0.00  0.00    +0.000 OA
ATOM     32  O   UNL     1       2.964   4.548  17.463  0.00  0.00    +0.000 OA
ENDBRANCH  27  30
ENDBRANCH  21  24
ENDBRANCH   1  22
TORSDOF 5
ENDMDL
