MODEL 1
REMARK VINA RESULT:      -5.9      0.000      0.000
REMARK  Name = 
REMARK  7 active torsions:
REMARK  status: ('A' for Active; 'I' for Inactive)
REMARK    1  A    between atoms: C_2  and  N_3
REMARK    2  A    between atoms: C_2  and  N_12
REMARK    3  A    between atoms: N_3  and  C_4
REMARK    4  A    between atoms: C_4  and  C_5
REMARK    5  A    between atoms: C_5  and  C_6
REMARK    6  A    between atoms: C_6  and  N_7
REMARK    7  A    between atoms: N_12  and  C_13
REMARK                            x       y       z     vdW  Elec       q    Type
REMARK                         _______ _______ _______ _____ _____    ______ ____
ROOT
ATOM      1  S   UNL     1       3.994   2.170  18.839  0.00  0.00    +0.000 S 
ATOM      2  C   UNL     1       4.126   3.696  18.192  0.00  0.00    +0.000 C 
ENDROOT
BRANCH   2   3
ATOM      3  N   UNL     1       3.108   4.423  17.606  0.00  0.00    +0.000 N 
ATOM      4  H   UNL     1       2.373   3.849  17.225  0.00  0.00    +0.000 HD
BRANCH   3   5
ATOM      5  C   UNL     1       2.764   5.814  17.887  0.00  0.00    +0.000 C 
BRANCH   5   6
ATOM      6  C   UNL     1       3.103   6.179  19.334  0.00  0.00    +0.000 C 
BRANCH   6   7
ATOM      7  C   UNL     1       1.893   5.991  20.253  0.00  0.00    +0.000 C 
BRANCH   7   8
ATOM      8  N   UNL     1       1.769   4.634  20.752  0.00  0.00    +0.000 N 
ATOM      9  C   UNL     1       0.850   3.712  20.357  0.00  0.00    +0.000 A 
ATOM     10  C   UNL     1       1.081   2.621  21.153  0.00  0.00    +0.000 A 
ATOM     11  N   UNL     1       2.111   2.858  22.024  0.00  0.00    +0.000 NA
ATOM     12  C   UNL     1       2.509   4.085  21.756  0.00  0.00    +0.000 A 
ENDBRANCH   7   8
ENDBRANCH   6   7
ENDBRANCH   5   6
ENDBRANCH   3   5
ENDBRANCH   2   3
BRANCH   2  13
ATOM     13  N   UNL     1       5.264   4.468  18.168  0.00  0.00    +0.000 N 
ATOM     14  H   UNL     1       5.485   4.877  19.065  0.00  0.00    +0.000 HD
BRANCH  13  15
ATOM     15  C   UNL     1       6.320   4.534  17.148  0.00  0.00    +0.000 C 
ATOM     16  C   UNL     1       6.132   5.763  16.250  0.00  0.00    +0.000 C 
ATOM     17  C   UNL     1       6.180   7.049  17.074  0.00  0.00    +0.000 C 
ATOM     18  C   UNL     1       7.509   7.177  17.814  0.00  0.00    +0.000 C 
ATOM     19  C   UNL     1       7.858   5.929  18.627  0.00  0.00    +0.000 C 
ATOM     20  C   UNL     1       7.694   4.630  17.832  0.00  0.00    +0.000 C 
ENDBRANCH  13  15
ENDBRANCH   2  13
TORSDOF 7
ENDMDL
MODEL 2
REMARK VINA RESULT:      -5.8      1.587      5.528
REMARK  Name = 
REMARK  7 active torsions:
REMARK  status: ('A' for Active; 'I' for Inactive)
REMARK    1  A    between atoms: C_2  and  N_3
REMARK    2  A    between atoms: C_2  and  N_12
REMARK    3  A    between atoms: N_3  and  C_4
REMARK    4  A    between atoms: C_4  and  C_5
REMARK    5  A    between atoms: C_5  and  C_6
REMARK    6  A    between atoms: C_6  and  N_7
REMARK    7  A    between atoms: N_12  and  C_13
REMARK                            x       y       z     vdW  Elec       q    Type
REMARK                         _______ _______ _______ _____ _____    ______ ____
ROOT
ATOM      1  S   UNL     1       3.837   1.330  18.626  0.00  0.00    +0.000 S 
ATOM      2  C   UNL     1       4.153   2.804  19.328  0.00  0.00    +0.000 C 
ENDROOT
BRANCH   2   3
ATOM      3  N   UNL     1       5.374   3.448  19.354  0.00  0.00    +0.000 N 
ATOM      4  H   UNL     1       6.149   2.848  19.119  0.00  0.00    +0.000 HD
BRANCH   3   5
ATOM      5  C   UNL     1       5.601   4.883  19.213  0.00  0.00    +0.000 C 
BRANCH   5   6
ATOM      6  C   UNL     1       7.090   5.186  19.035  0.00  0.00    +0.000 C 
BRANCH   6   7
ATOM      7  C   UNL     1       7.616   4.635  17.708  0.00  0.00    +0.000 C 
BRANCH   7   8
ATOM      8  N   UNL     1       6.729   4.909  16.592  0.00  0.00    +0.000 N 
ATOM      9  C   UNL     1       6.269   4.003  15.688  0.00  0.00    +0.000 A 
ATOM     10  C   UNL     1       5.534   4.738  14.795  0.00  0.00    +0.000 A 
ATOM     11  N   UNL     1       5.540   6.066  15.130  0.00  0.00    +0.000 NA
ATOM     12  C   UNL     1       6.270   6.138  16.224  0.00  0.00    +0.000 A 
ENDBRANCH   7   8
ENDBRANCH   6   7
ENDBRANCH   5   6
ENDBRANCH   3   5
ENDBRANCH   2   3
BRANCH   2  13
ATOM     13  N   UNL     1       3.237   3.610  19.963  0.00  0.00    +0.000 N 
ATOM     14  H   UNL     1       3.650   4.192  20.678  0.00  0.00    +0.000 HD
BRANCH  13  15
ATOM     15  C   UNL     1       1.865   3.950  19.562  0.00  0.00    +0.000 C 
ATOM     16  C   UNL     1       1.318   5.097  20.421  0.00  0.00    +0.000 C 
ATOM     17  C   UNL     1       2.184   6.347  20.274  0.00  0.00    +0.000 C 
ATOM     18  C   UNL     1       2.243   6.804  18.820  0.00  0.00    +0.000 C 
ATOM     19  C   UNL     1       2.640   5.682  17.859  0.00  0.00    +0.000 C 
ATOM     20  C   UNL     1       1.849   4.390  18.088  0.00  0.00    +0.000 C 
ENDBRANCH  13  15
ENDBRANCH   2  13
TORSDOF 7
ENDMDL
MODEL 3
REMARK VINA RESULT:      -5.8      2.329      2.957
REMARK  Name = 
REMARK  7 active torsions:
REMARK  status: ('A' for Active; 'I' for Inactive)
REMARK    1  A    between atoms: C_2  and  N_3
REMARK    2  A    between atoms: C_2  and  N_12
REMARK    3  A    between atoms: N_3  and  C_4
REMARK    4  A    between atoms: C_4  and  C_5
REMARK    5  A    between atoms: C_5  and  C_6
REMARK    6  A    between atoms: C_6  and  N_7
REMARK    7  A    between atoms: N_12  and  C_13
REMARK                            x       y       z     vdW  Elec       q    Type
REMARK                         _______ _______ _______ _____ _____    ______ ____
ROOT
ATOM      1  S   UNL     1       2.484   8.243  17.844  0.00  0.00    +0.000 S 
ATOM      2  C   UNL     1       3.288   6.836  18.216  0.00  0.00    +0.000 C 
ENDROOT
BRANCH   2   3
ATOM      3  N   UNL     1       3.143   6.097  19.373  0.00  0.00    +0.000 N 
ATOM      4  H   UNL     1       4.019   5.860  19.811  0.00  0.00    +0.000 HD
BRANCH   3   5
ATOM      5  C   UNL     1       1.958   6.045  20.226  0.00  0.00    +0.000 C 
BRANCH   5   6
ATOM      6  C   UNL     1       1.993   4.813  21.134  0.00  0.00    +0.000 C 
BRANCH   6   7
ATOM      7  C   UNL     1       1.414   3.585  20.428  0.00  0.00    +0.000 C 
BRANCH   7   8
ATOM      8  N   UNL     1       2.426   2.788  19.760  0.00  0.00    +0.000 N 
ATOM      9  C   UNL     1       2.271   2.097  18.598  0.00  0.00    +0.000 A 
ATOM     10  C   UNL     1       3.465   1.451  18.409  0.00  0.00    +0.000 A 
ATOM     11  N   UNL     1       4.339   1.728  19.427  0.00  0.00    +0.000 NA
ATOM     12  C   UNL     1       3.682   2.542  20.228  0.00  0.00    +0.000 A 
ENDBRANCH   7   8
ENDBRANCH   6   7
ENDBRANCH   5   6
ENDBRANCH   3   5
ENDBRANCH   2   3
BRANCH   2  13
ATOM     13  N   UNL     1       4.198   6.188  17.413  0.00  0.00    +0.000 N 
ATOM     14  H   UNL     1       4.637   6.799  16.739  0.00  0.00    +0.000 HD
BRANCH  13  15
ATOM     15  C   UNL     1       4.816   4.867  17.590  0.00  0.00    +0.000 C 
ATOM     16  C   UNL     1       4.792   4.077  16.276  0.00  0.00    +0.000 C 
ATOM     17  C   UNL     1       5.555   4.821  15.181  0.00  0.00    +0.000 C 
ATOM     18  C   UNL     1       7.007   5.056  15.588  0.00  0.00    +0.000 C 
ATOM     19  C   UNL     1       7.139   5.712  16.964  0.00  0.00    +0.000 C 
ATOM     20  C   UNL     1       6.279   5.035  18.036  0.00  0.00    +0.000 C 
ENDBRANCH  13  15
ENDBRANCH   2  13
TORSDOF 7
ENDMDL
MODEL 4
REMARK VINA RESULT:      -5.8      1.956      6.033
REMARK  Name = 
REMARK  7 active torsions:
REMARK  status: ('A' for Active; 'I' for Inactive)
REMARK    1  A    between atoms: C_2  and  N_3
REMARK    2  A    between atoms: C_2  and  N_12
REMARK    3  A    between atoms: N_3  and  C_4
REMARK    4  A    between atoms: C_4  and  C_5
REMARK    5  A    between atoms: C_5  and  C_6
REMARK    6  A    between atoms: C_6  and  N_7
REMARK    7  A    between atoms: N_12  and  C_13
REMARK                            x       y       z     vdW  Elec       q    Type
REMARK                         _______ _______ _______ _____ _____    ______ ____
ROOT
ATOM      1  S   UNL     1       2.625   5.909  17.969  0.00  0.00    +0.000 S 
ATOM      2  C   UNL     1       3.522   4.509  18.008  0.00  0.00    +0.000 C 
ENDROOT
BRANCH   2   3
ATOM      3  N   UNL     1       4.100   3.882  16.922  0.00  0.00    +0.000 N 
ATOM      4  H   UNL     1       3.818   2.921  16.818  0.00  0.00    +0.000 HD
BRANCH   3   5
ATOM      5  C   UNL     1       4.638   4.532  15.731  0.00  0.00    +0.000 C 
BRANCH   5   6
ATOM      6  C   UNL     1       5.979   3.912  15.329  0.00  0.00    +0.000 C 
BRANCH   6   7
ATOM      7  C   UNL     1       7.119   4.926  15.447  0.00  0.00    +0.000 C 
BRANCH   7   8
ATOM      8  N   UNL     1       7.355   5.352  16.814  0.00  0.00    +0.000 N 
ATOM      9  C   UNL     1       7.374   6.635  17.266  0.00  0.00    +0.000 A 
ATOM     10  C   UNL     1       7.706   6.537  18.592  0.00  0.00    +0.000 A 
ATOM     11  N   UNL     1       7.894   5.230  18.955  0.00  0.00    +0.000 NA
ATOM     12  C   UNL     1       7.673   4.536  17.858  0.00  0.00    +0.000 A 
ENDBRANCH   7   8
ENDBRANCH   6   7
ENDBRANCH   5   6
ENDBRANCH   3   5
ENDBRANCH   2   3
BRANCH   2  13
ATOM     13  N   UNL     1       3.842   3.786  19.133  0.00  0.00    +0.000 N 
ATOM     14  H   UNL     1       4.188   4.360  19.889  0.00  0.00    +0.000 HD
BRANCH  13  15
ATOM     15  C   UNL     1       3.484   2.404  19.481  0.00  0.00    +0.000 C 
ATOM     16  C   UNL     1       3.482   2.210  21.002  0.00  0.00    +0.000 C 
ATOM     17  C   UNL     1       2.477   3.149  21.668  0.00  0.00    +0.000 C 
ATOM     18  C   UNL     1       1.067   2.905  21.138  0.00  0.00    +0.000 C 
ATOM     19  C   UNL     1       0.993   2.932  19.610  0.00  0.00    +0.000 C 
ATOM     20  C   UNL     1       2.080   2.082  18.943  0.00  0.00    +0.000 C 
ENDBRANCH  13  15
ENDBRANCH   2  13
TORSDOF 7
ENDMDL
MODEL 5
REMARK VINA RESULT:      -5.7      2.037      3.084
REMARK  Name = 
REMARK  7 active torsions:
REMARK  status: ('A' for Active; 'I' for Inactive)
REMARK    1  A    between atoms: C_2  and  N_3
REMARK    2  A    between atoms: C_2  and  N_12
REMARK    3  A    between atoms: N_3  and  C_4
REMARK    4  A    between atoms: C_4  and  C_5
REMARK    5  A    between atoms: C_5  and  C_6
REMARK    6  A    between atoms: C_6  and  N_7
REMARK    7  A    between atoms: N_12  and  C_13
REMARK                            x       y       z     vdW  Elec       q    Type
REMARK                         _______ _______ _______ _____ _____    ______ ____
ROOT
ATOM      1  S   UNL     1       2.554   7.802  18.221  0.00  0.00    +0.000 S 
ATOM      2  C   UNL     1       3.236   6.355  18.676  0.00  0.00    +0.000 C 
ENDROOT
BRANCH   2   3
ATOM      3  N   UNL     1       3.196   5.798  19.939  0.00  0.00    +0.000 N 
ATOM      4  H   UNL     1       4.051   5.917  20.458  0.00  0.00    +0.000 HD
BRANCH   3   5
ATOM      5  C   UNL     1       1.998   5.513  20.723  0.00  0.00    +0.000 C 
BRANCH   5   6
ATOM      6  C   UNL     1       2.117   4.162  21.433  0.00  0.00    +0.000 C 
BRANCH   6   7
ATOM      7  C   UNL     1       1.274   3.091  20.736  0.00  0.00    +0.000 C 
BRANCH   7   8
ATOM      8  N   UNL     1       1.814   2.698  19.447  0.00  0.00    +0.000 N 
ATOM      9  C   UNL     1       2.907   1.916  19.236  0.00  0.00    +0.000 A 
ATOM     10  C   UNL     1       3.063   1.887  17.875  0.00  0.00    +0.000 A 
ATOM     11  N   UNL     1       2.098   2.636  17.255  0.00  0.00    +0.000 NA
ATOM     12  C   UNL     1       1.356   3.113  18.233  0.00  0.00    +0.000 A 
ENDBRANCH   7   8
ENDBRANCH   6   7
ENDBRANCH   5   6
ENDBRANCH   3   5
ENDBRANCH   2   3
BRANCH   2  13
ATOM     13  N   UNL     1       3.919   5.489  17.855  0.00  0.00    +0.000 N 
ATOM     14  H   UNL     1       3.631   5.550  16.888  0.00  0.00    +0.000 HD
BRANCH  13  15
ATOM     15  C   UNL     1       5.158   4.744  18.116  0.00  0.00    +0.000 C 
ATOM     16  C   UNL     1       5.608   3.982  16.864  0.00  0.00    +0.000 C 
ATOM     17  C   UNL     1       5.863   4.945  15.705  0.00  0.00    +0.000 C 
ATOM     18  C   UNL     1       6.933   5.970  16.070  0.00  0.00    +0.000 C 
ATOM     19  C   UNL     1       6.646   6.684  17.392  0.00  0.00    +0.000 C 
ATOM     20  C   UNL     1       6.274   5.721  18.524  0.00  0.00    +0.000 C 
ENDBRANCH  13  15
ENDBRANCH   2  13
TORSDOF 7
ENDMDL
MODEL 6
REMARK VINA RESULT:      -5.7      2.151      3.098
REMARK  Name = 
REMARK  7 active torsions:
REMARK  status: ('A' for Active; 'I' for Inactive)
REMARK    1  A    between atoms: C_2  and  N_3
REMARK    2  A    between atoms: C_2  and  N_12
REMARK    3  A    between atoms: N_3  and  C_4
REMARK    4  A    between atoms: C_4  and  C_5
REMARK    5  A    between atoms: C_5  and  C_6
REMARK    6  A    between atoms: C_6  and  N_7
REMARK    7  A    between atoms: N_12  and  C_13
REMARK                            x       y       z     vdW  Elec       q    Type
REMARK                         _______ _______ _______ _____ _____    ______ ____
ROOT
ATOM      1  S   UNL     1       2.639   8.061  17.971  0.00  0.00    +0.000 S 
ATOM      2  C   UNL     1       3.285   6.537  18.129  0.00  0.00    +0.000 C 
ENDROOT
BRANCH   2   3
ATOM      3  N   UNL     1       3.053   5.659  19.169  0.00  0.00    +0.000 N 
ATOM      4  H   UNL     1       3.791   4.984  19.297  0.00  0.00    +0.000 HD
BRANCH   3   5
ATOM      5  C   UNL     1       2.177   5.884  20.316  0.00  0.00    +0.000 C 
BRANCH   5   6
ATOM      6  C   UNL     1       1.222   4.704  20.512  0.00  0.00    +0.000 C 
BRANCH   6   7
ATOM      7  C   UNL     1       1.919   3.533  21.208  0.00  0.00    +0.000 C 
BRANCH   7   8
ATOM      8  N   UNL     1       2.683   2.706  20.291  0.00  0.00    +0.000 N 
ATOM      9  C   UNL     1       4.011   2.426  20.375  0.00  0.00    +0.000 A 
ATOM     10  C   UNL     1       4.285   1.678  19.260  0.00  0.00    +0.000 A 
ATOM     11  N   UNL     1       3.160   1.502  18.499  0.00  0.00    +0.000 NA
ATOM     12  C   UNL     1       2.206   2.134  19.150  0.00  0.00    +0.000 A 
ENDBRANCH   7   8
ENDBRANCH   6   7
ENDBRANCH   5   6
ENDBRANCH   3   5
ENDBRANCH   2   3
BRANCH   2  13
ATOM     13  N   UNL     1       4.124   5.918  17.233  0.00  0.00    +0.000 N 
ATOM     14  H   UNL     1       3.809   4.995  16.967  0.00  0.00    +0.000 HD
BRANCH  13  15
ATOM     15  C   UNL     1       5.197   6.496  16.414  0.00  0.00    +0.000 C 
ATOM     16  C   UNL     1       6.385   6.913  17.290  0.00  0.00    +0.000 C 
ATOM     17  C   UNL     1       6.952   5.711  18.044  0.00  0.00    +0.000 C 
ATOM     18  C   UNL     1       7.411   4.625  17.075  0.00  0.00    +0.000 C 
ATOM     19  C   UNL     1       6.335   4.243  16.057  0.00  0.00    +0.000 C 
ATOM     20  C   UNL     1       5.684   5.458  15.388  0.00  0.00    +0.000 C 
ENDBRANCH  13  15
ENDBRANCH   2  13
TORSDOF 7
ENDMDL
MODEL 7
REMARK VINA RESULT:      -5.7      2.123      2.938
REMARK  Name = 
REMARK  7 active torsions:
REMARK  status: ('A' for Active; 'I' for Inactive)
REMARK    1  A    between atoms: C_2  and  N_3
REMARK    2  A    between atoms: C_2  and  N_12
REMARK    3  A    between atoms: N_3  and  C_4
REMARK    4  A    between atoms: C_4  and  C_5
REMARK    5  A    between atoms: C_5  and  C_6
REMARK    6  A    between atoms: C_6  and  N_7
REMARK    7  A    between atoms: N_12  and  C_13
REMARK                            x       y       z     vdW  Elec       q    Type
REMARK                         _______ _______ _______ _____ _____    ______ ____
ROOT
ATOM      1  S   UNL     1       6.154   4.203  14.266  0.00  0.00    +0.000 S 
ATOM      2  C   UNL     1       5.948   3.965  15.899  0.00  0.00    +0.000 C 
ENDROOT
BRANCH   2   3
ATOM      3  N   UNL     1       5.210   2.957  16.487  0.00  0.00    +0.000 N 
ATOM      4  H   UNL     1       5.770   2.181  16.803  0.00  0.00    +0.000 HD
BRANCH   3   5
ATOM      5  C   UNL     1       3.889   3.091  17.095  0.00  0.00    +0.000 C 
BRANCH   5   6
ATOM      6  C   UNL     1       3.577   1.890  17.992  0.00  0.00    +0.000 C 
BRANCH   6   7
ATOM      7  C   UNL     1       2.156   1.972  18.556  0.00  0.00    +0.000 C 
BRANCH   7   8
ATOM      8  N   UNL     1       2.041   2.903  19.663  0.00  0.00    +0.000 N 
ATOM      9  C   UNL     1       2.626   2.778  20.885  0.00  0.00    +0.000 A 
ATOM     10  C   UNL     1       2.171   3.851  21.606  0.00  0.00    +0.000 A 
ATOM     11  N   UNL     1       1.321   4.620  20.857  0.00  0.00    +0.000 NA
ATOM     12  C   UNL     1       1.263   4.022  19.684  0.00  0.00    +0.000 A 
ENDBRANCH   7   8
ENDBRANCH   6   7
ENDBRANCH   5   6
ENDBRANCH   3   5
ENDBRANCH   2   3
BRANCH   2  13
ATOM     13  N   UNL     1       6.503   4.722  16.903  0.00  0.00    +0.000 N 
ATOM     14  H   UNL     1       7.510   4.780  16.845  0.00  0.00    +0.000 HD
BRANCH  13  15
ATOM     15  C   UNL     1       5.852   5.663  17.824  0.00  0.00    +0.000 C 
ATOM     16  C   UNL     1       6.406   5.503  19.245  0.00  0.00    +0.000 C 
ATOM     17  C   UNL     1       7.911   5.768  19.274  0.00  0.00    +0.000 C 
ATOM     18  C   UNL     1       8.229   7.175  18.776  0.00  0.00    +0.000 C 
ATOM     19  C   UNL     1       7.590   7.484  17.421  0.00  0.00    +0.000 C 
ATOM     20  C   UNL     1       6.107   7.106  17.357  0.00  0.00    +0.000 C 
ENDBRANCH  13  15
ENDBRANCH   2  13
TORSDOF 7
ENDMDL
MODEL 8
REMARK VINA RESULT:      -5.7      1.829      2.854
REMARK  Name = 
REMARK  7 active torsions:
REMARK  status: ('A' for Active; 'I' for Inactive)
REMARK    1  A    between atoms: C_2  and  N_3
REMARK    2  A    between atoms: C_2  and  N_12
REMARK    3  A    between atoms: N_3  and  C_4
REMARK    4  A    between atoms: C_4  and  C_5
REMARK    5  A    between atoms: C_5  and  C_6
REMARK    6  A    between atoms: C_6  and  N_7
REMARK    7  A    between atoms: N_12  and  C_13
REMARK                            x       y       z     vdW  Elec       q    Type
REMARK                         _______ _______ _______ _____ _____    ______ ____
ROOT
ATOM      1  S   UNL     1       2.517   6.853  18.386  0.00  0.00    +0.000 S 
ATOM      2  C   UNL     1       3.715   5.716  18.193  0.00  0.00    +0.000 C 
ENDROOT
BRANCH   2   3
ATOM      3  N   UNL     1       3.531   4.355  18.055  0.00  0.00    +0.000 N 
ATOM      4  H   UNL     1       3.786   3.830  18.876  0.00  0.00    +0.000 HD
BRANCH   3   5
ATOM      5  C   UNL     1       2.626   3.693  17.120  0.00  0.00    +0.000 C 
BRANCH   5   6
ATOM      6  C   UNL     1       2.300   2.273  17.588  0.00  0.00    +0.000 C 
BRANCH   6   7
ATOM      7  C   UNL     1       3.162   1.871  18.787  0.00  0.00    +0.000 C 
BRANCH   7   8
ATOM      8  N   UNL     1       2.568   2.241  20.058  0.00  0.00    +0.000 N 
ATOM      9  C   UNL     1       1.250   2.484  20.292  0.00  0.00    +0.000 A 
ATOM     10  C   UNL     1       1.189   2.864  21.607  0.00  0.00    +0.000 A 
ATOM     11  N   UNL     1       2.434   2.863  22.176  0.00  0.00    +0.000 NA
ATOM     12  C   UNL     1       3.249   2.480  21.215  0.00  0.00    +0.000 A 
ENDBRANCH   7   8
ENDBRANCH   6   7
ENDBRANCH   5   6
ENDBRANCH   3   5
ENDBRANCH   2   3
BRANCH   2  13
ATOM     13  N   UNL     1       5.065   5.969  18.117  0.00  0.00    +0.000 N 
ATOM     14  H   UNL     1       5.616   5.359  18.704  0.00  0.00    +0.000 HD
BRANCH  13  15
ATOM     15  C   UNL     1       5.807   6.757  17.124  0.00  0.00    +0.000 C 
ATOM     16  C   UNL     1       7.297   6.397  17.149  0.00  0.00    +0.000 C 
ATOM     17  C   UNL     1       7.504   4.915  16.838  0.00  0.00    +0.000 C 
ATOM     18  C   UNL     1       6.934   4.559  15.468  0.00  0.00    +0.000 C 
ATOM     19  C   UNL     1       5.484   5.014  15.291  0.00  0.00    +0.000 C 
ATOM     20  C   UNL     1       5.256   6.468  15.717  0.00  0.00    +0.000 C 
ENDBRANCH  13  15
ENDBRANCH   2  13
TORSDOF 7
ENDMDL
MODEL 9
REMARK VINA RESULT:      -5.7      2.210      2.739
REMARK  Name = 
REMARK  7 active torsions:
REMARK  status: ('A' for Active; 'I' for Inactive)
REMARK    1  A    between atoms: C_2  and  N_3
REMARK    2  A    between atoms: C_2  and  N_12
REMARK    3  A    between atoms: N_3  and  C_4
REMARK    4  A    between atoms: C_4  and  C_5
REMARK    5  A    between atoms: C_5  and  C_6
REMARK    6  A    between atoms: C_6  and  N_7
REMARK    7  A    between atoms: N_12  and  C_13
REMARK                            x       y       z     vdW  Elec       q    Type
REMARK                         _______ _______ _______ _____ _____    ______ ____
ROOT
ATOM      1  S   UNL     1       6.247   3.927  14.250  0.00  0.00    +0.000 S 
ATOM      2  C   UNL     1       5.880   4.066  15.866  0.00  0.00    +0.000 C 
ENDROOT
BRANCH   2   3
ATOM      3  N   UNL     1       4.931   3.333  16.551  0.00  0.00    +0.000 N 
ATOM      4  H   UNL     1       5.308   2.816  17.329  0.00  0.00    +0.000 HD
BRANCH   3   5
ATOM      5  C   UNL     1       3.493   3.587  16.579  0.00  0.00    +0.000 C 
BRANCH   5   6
ATOM      6  C   UNL     1       2.785   2.611  17.521  0.00  0.00    +0.000 C 
BRANCH   6   7
ATOM      7  C   UNL     1       3.598   2.382  18.798  0.00  0.00    +0.000 C 
BRANCH   7   8
ATOM      8  N   UNL     1       2.804   2.519  20.004  0.00  0.00    +0.000 N 
ATOM      9  C   UNL     1       1.478   2.819  20.067  0.00  0.00    +0.000 A 
ATOM     10  C   UNL     1       1.200   2.909  21.406  0.00  0.00    +0.000 A 
ATOM     11  N   UNL     1       2.321   2.678  22.157  0.00  0.00    +0.000 NA
ATOM     12  C   UNL     1       3.276   2.443  21.281  0.00  0.00    +0.000 A 
ENDBRANCH   7   8
ENDBRANCH   6   7
ENDBRANCH   5   6
ENDBRANCH   3   5
ENDBRANCH   2   3
BRANCH   2  13
ATOM     13  N   UNL     1       6.487   4.914  16.763  0.00  0.00    +0.000 N 
ATOM     14  H   UNL     1       7.459   5.088  16.548  0.00  0.00    +0.000 HD
BRANCH  13  15
ATOM     15  C   UNL     1       5.875   5.800  17.762  0.00  0.00    +0.000 C 
ATOM     16  C   UNL     1       6.478   5.551  19.150  0.00  0.00    +0.000 C 
ATOM     17  C   UNL     1       7.985   5.806  19.141  0.00  0.00    +0.000 C 
ATOM     18  C   UNL     1       8.294   7.239  18.719  0.00  0.00    +0.000 C 
ATOM     19  C   UNL     1       7.610   7.634  17.408  0.00  0.00    +0.000 C 
ATOM     20  C   UNL     1       6.123   7.267  17.375  0.00  0.00    +0.000 C 
ENDBRANCH  13  15
ENDBRANCH   2  13
TORSDOF 7
ENDMDL
