MODEL 1
REMARK VINA RESULT:      -8.0      0.000      0.000
REMARK  Name = 
REMARK  3 active torsions:
REMARK  status: ('A' for Active; 'I' for Inactive)
REMARK    1  A    between atoms: S_2  and  N_4
REMARK    2  A    between atoms: S_2  and  C_18
REMARK    3  A    between atoms: N_4  and  C_5
REMARK                            x       y       z     vdW  Elec       q    Type
REMARK                         _______ _______ _______ _____ _____    ______ ____
ROOT
ATOM      1  C   UNL     1       3.601   5.431  18.686  0.00  0.00    +0.000 C 
ATOM      2  C   UNL     1       2.621   5.640  17.556  0.00  0.00    +0.000 C 
ATOM      3  C   UNL     1       2.435   7.371  17.958  0.00  0.00    +0.000 C 
ATOM      4  C   UNL     1       2.637   7.526  19.537  0.00  0.00    +0.000 C 
ATOM      5  C   UNL     1       2.491   6.079  19.806  0.00  0.00    +0.000 C 
ATOM      6  C   UNL     1       1.240   5.433  20.539  0.00  0.00    +0.000 C 
ATOM      7  C   UNL     1       1.343   3.957  20.370  0.00  0.00    +0.000 A 
ATOM      8  C   UNL     1       1.345   3.221  21.562  0.00  0.00    +0.000 A 
ATOM      9  C   UNL     1       2.171   2.125  21.645  0.00  0.00    +0.000 A 
ATOM     10  C   UNL     1       2.872   1.729  20.507  0.00  0.00    +0.000 A 
ATOM     11  C   UNL     1       2.635   2.335  19.245  0.00  0.00    +0.000 A 
ATOM     12  C   UNL     1       1.803   3.462  19.130  0.00  0.00    +0.000 A 
ATOM     13  C   UNL     1       1.675   4.334  17.798  0.00  0.00    +0.000 C 
ENDROOT
BRANCH   1  14
ATOM     14  N   UNL     1       4.747   6.241  18.127  0.00  0.00    +0.000 NA
ATOM     15  H   UNL     1       4.620   6.482  17.134  0.00  0.00    +0.000 HD
BRANCH  14  17
ATOM     16  O   UNL     1       7.177   6.922  18.100  0.00  0.00    +0.000 OA
ATOM     17  S   UNL     1       6.344   5.743  18.067  0.00  0.00    +0.000 S 
ATOM     18  O   UNL     1       6.438   4.683  19.052  0.00  0.00    +0.000 OA
BRANCH  17  19
ATOM     19  C   UNL     1       6.324   4.986  16.469  0.00  0.00    +0.000 A 
ATOM     20  C   UNL     1       5.425   3.941  16.197  0.00  0.00    +0.000 A 
ATOM     21  C   UNL     1       5.420   3.406  14.908  0.00  0.00    +0.000 A 
ATOM     22  C   UNL     1       6.286   3.896  13.936  0.00  0.00    +0.000 A 
ATOM     23  C   UNL     1       7.143   4.957  14.238  0.00  0.00    +0.000 A 
ATOM     24  F   UNL     1       7.979   5.430  13.315  0.00  0.00    +0.000 F 
ATOM     25  C   UNL     1       7.176   5.488  15.503  0.00  0.00    +0.000 A 
ENDBRANCH  17  19
ENDBRANCH  14  17
ENDBRANCH   1  14
TORSDOF 3
ENDMDL
MODEL 2
REMARK VINA RESULT:      -7.8      2.492      3.436
REMARK  Name = 
REMARK  3 active torsions:
REMARK  status: ('A' for Active; 'I' for Inactive)
REMARK    1  A    between atoms: S_2  and  N_4
REMARK    2  A    between atoms: S_2  and  C_18
REMARK    3  A    between atoms: N_4  and  C_5
REMARK                            x       y       z     vdW  Elec       q    Type
REMARK                         _______ _______ _______ _____ _____    ______ ____
ROOT
ATOM      1  C   UNL     1       5.162   5.324  16.427  0.00  0.00    +0.000 C 
ATOM      2  C   UNL     1       4.554   6.675  16.718  0.00  0.00    +0.000 C 
ATOM      3  C   UNL     1       6.144   7.365  17.150  0.00  0.00    +0.000 C 
ATOM      4  C   UNL     1       7.030   6.188  17.772  0.00  0.00    +0.000 C 
ATOM      5  C   UNL     1       5.878   5.283  17.974  0.00  0.00    +0.000 C 
ATOM      6  C   UNL     1       5.284   4.904  19.397  0.00  0.00    +0.000 C 
ATOM      7  C   UNL     1       3.988   4.208  19.163  0.00  0.00    +0.000 A 
ATOM      8  C   UNL     1       3.889   2.930  19.728  0.00  0.00    +0.000 A 
ATOM      9  C   UNL     1       3.240   1.953  19.011  0.00  0.00    +0.000 A 
ATOM     10  C   UNL     1       2.610   2.308  17.819  0.00  0.00    +0.000 A 
ATOM     11  C   UNL     1       2.498   3.664  17.417  0.00  0.00    +0.000 A 
ATOM     12  C   UNL     1       3.159   4.684  18.124  0.00  0.00    +0.000 A 
ATOM     13  C   UNL     1       3.274   6.190  17.604  0.00  0.00    +0.000 C 
ENDROOT
BRANCH   1  14
ATOM     14  N   UNL     1       5.942   5.702  15.190  0.00  0.00    +0.000 NA
ATOM     15  H   UNL     1       5.354   5.745  14.345  0.00  0.00    +0.000 HD
BRANCH  14  17
ATOM     16  O   UNL     1       8.159   5.788  13.986  0.00  0.00    +0.000 OA
ATOM     17  S   UNL     1       7.231   4.840  14.559  0.00  0.00    +0.000 S 
ATOM     18  O   UNL     1       7.602   3.909  15.607  0.00  0.00    +0.000 OA
BRANCH  17  19
ATOM     19  C   UNL     1       6.360   3.930  13.319  0.00  0.00    +0.000 A 
ATOM     20  C   UNL     1       4.980   4.128  13.141  0.00  0.00    +0.000 A 
ATOM     21  C   UNL     1       4.346   3.416  12.122  0.00  0.00    +0.000 A 
ATOM     22  C   UNL     1       5.067   2.537  11.320  0.00  0.00    +0.000 A 
ATOM     23  C   UNL     1       6.443   2.391  11.510  0.00  0.00    +0.000 A 
ATOM     24  F   UNL     1       7.141   1.549  10.750  0.00  0.00    +0.000 F 
ATOM     25  C   UNL     1       7.084   3.070  12.516  0.00  0.00    +0.000 A 
ENDBRANCH  17  19
ENDBRANCH  14  17
ENDBRANCH   1  14
TORSDOF 3
ENDMDL
MODEL 3
REMARK VINA RESULT:      -7.5      4.219      7.138
REMARK  Name = 
REMARK  3 active torsions:
REMARK  status: ('A' for Active; 'I' for Inactive)
REMARK    1  A    between atoms: S_2  and  N_4
REMARK    2  A    between atoms: S_2  and  C_18
REMARK    3  A    between atoms: N_4  and  C_5
REMARK                            x       y       z     vdW  Elec       q    Type
REMARK                         _______ _______ _______ _____ _____    ______ ____
ROOT
ATOM      1  C   UNL     1       3.367   6.556  18.424  0.00  0.00    +0.000 C 
ATOM      2  C   UNL     1       2.897   5.414  17.555  0.00  0.00    +0.000 C 
ATOM      3  C   UNL     1       1.998   4.673  18.909  0.00  0.00    +0.000 C 
ATOM      4  C   UNL     1       2.775   5.032  20.259  0.00  0.00    +0.000 C 
ATOM      5  C   UNL     1       4.007   5.462  19.564  0.00  0.00    +0.000 C 
ATOM      6  C   UNL     1       5.372   4.651  19.589  0.00  0.00    +0.000 C 
ATOM      7  C   UNL     1       6.265   5.258  18.564  0.00  0.00    +0.000 A 
ATOM      8  C   UNL     1       7.505   5.699  19.042  0.00  0.00    +0.000 A 
ATOM      9  C   UNL     1       8.016   6.870  18.533  0.00  0.00    +0.000 A 
ATOM     10  C   UNL     1       7.340   7.494  17.486  0.00  0.00    +0.000 A 
ATOM     11  C   UNL     1       6.236   6.873  16.845  0.00  0.00    +0.000 A 
ATOM     12  C   UNL     1       5.685   5.681  17.347  0.00  0.00    +0.000 A 
ATOM     13  C   UNL     1       4.312   5.053  16.828  0.00  0.00    +0.000 C 
ENDROOT
BRANCH   1  14
ATOM     14  N   UNL     1       2.032   7.236  18.624  0.00  0.00    +0.000 NA
ATOM     15  H   UNL     1       1.281   6.815  18.057  0.00  0.00    +0.000 HD
BRANCH  14  17
ATOM     16  O   UNL     1       2.974   9.509  18.062  0.00  0.00    +0.000 OA
ATOM     17  S   UNL     1       1.713   8.849  18.312  0.00  0.00    +0.000 S 
ATOM     18  O   UNL     1       0.628   8.833  17.350  0.00  0.00    +0.000 OA
BRANCH  17  19
ATOM     19  C   UNL     1       1.029   9.292  19.881  0.00  0.00    +0.000 A 
ATOM     20  C   UNL     1       1.311   8.512  21.016  0.00  0.00    +0.000 A 
ATOM     21  C   UNL     1       0.782   8.926  22.238  0.00  0.00    +0.000 A 
ATOM     22  C   UNL     1      -0.002  10.072  22.316  0.00  0.00    +0.000 A 
ATOM     23  C   UNL     1      -0.234  10.837  21.171  0.00  0.00    +0.000 A 
ATOM     24  F   UNL     1      -0.987  11.934  21.235  0.00  0.00    +0.000 F 
ATOM     25  C   UNL     1       0.264  10.440  19.956  0.00  0.00    +0.000 A 
ENDBRANCH  17  19
ENDBRANCH  14  17
ENDBRANCH   1  14
TORSDOF 3
ENDMDL
MODEL 4
REMARK VINA RESULT:      -7.4      2.338      2.889
REMARK  Name = 
REMARK  3 active torsions:
REMARK  status: ('A' for Active; 'I' for Inactive)
REMARK    1  A    between atoms: S_2  and  N_4
REMARK    2  A    between atoms: S_2  and  C_18
REMARK    3  A    between atoms: N_4  and  C_5
REMARK                            x       y       z     vdW  Elec       q    Type
REMARK                         _______ _______ _______ _____ _____    ______ ____
ROOT
ATOM      1  C   UNL     1       3.107   5.479  18.179  0.00  0.00    +0.000 C 
ATOM      2  C   UNL     1       1.785   5.557  17.453  0.00  0.00    +0.000 C 
ATOM      3  C   UNL     1       1.609   7.294  17.836  0.00  0.00    +0.000 C 
ATOM      4  C   UNL     1       2.328   7.554  19.241  0.00  0.00    +0.000 C 
ATOM      5  C   UNL     1       2.401   6.120  19.591  0.00  0.00    +0.000 C 
ATOM      6  C   UNL     1       1.533   5.439  20.734  0.00  0.00    +0.000 C 
ATOM      7  C   UNL     1       1.692   3.965  20.590  0.00  0.00    +0.000 A 
ATOM      8  C   UNL     1       2.162   3.303  21.731  0.00  0.00    +0.000 A 
ATOM      9  C   UNL     1       3.052   2.268  21.559  0.00  0.00    +0.000 A 
ATOM     10  C   UNL     1       3.349   1.852  20.262  0.00  0.00    +0.000 A 
ATOM     11  C   UNL     1       2.645   2.366  19.142  0.00  0.00    +0.000 A 
ATOM     12  C   UNL     1       1.736   3.429  19.284  0.00  0.00    +0.000 A 
ATOM     13  C   UNL     1       1.088   4.210  18.051  0.00  0.00    +0.000 C 
ENDROOT
BRANCH   1  14
ATOM     14  N   UNL     1       3.922   6.327  17.231  0.00  0.00    +0.000 NA
ATOM     15  H   UNL     1       3.362   6.710  16.455  0.00  0.00    +0.000 HD
BRANCH  14  17
ATOM     16  O   UNL     1       5.173   4.355  16.273  0.00  0.00    +0.000 OA
ATOM     17  S   UNL     1       5.245   5.796  16.353  0.00  0.00    +0.000 S 
ATOM     18  O   UNL     1       5.278   6.649  15.181  0.00  0.00    +0.000 OA
BRANCH  17  19
ATOM     19  C   UNL     1       6.524   6.339  17.446  0.00  0.00    +0.000 A 
ATOM     20  C   UNL     1       7.012   5.475  18.441  0.00  0.00    +0.000 A 
ATOM     21  C   UNL     1       8.050   5.936  19.251  0.00  0.00    +0.000 A 
ATOM     22  C   UNL     1       8.571   7.213  19.073  0.00  0.00    +0.000 A 
ATOM     23  C   UNL     1       8.078   8.030  18.053  0.00  0.00    +0.000 A 
ATOM     24  F   UNL     1       8.568   9.256  17.878  0.00  0.00    +0.000 F 
ATOM     25  C   UNL     1       7.048   7.603  17.254  0.00  0.00    +0.000 A 
ENDBRANCH  17  19
ENDBRANCH  14  17
ENDBRANCH   1  14
TORSDOF 3
ENDMDL
MODEL 5
REMARK VINA RESULT:      -7.4      2.455      3.108
REMARK  Name = 
REMARK  3 active torsions:
REMARK  status: ('A' for Active; 'I' for Inactive)
REMARK    1  A    between atoms: S_2  and  N_4
REMARK    2  A    between atoms: S_2  and  C_18
REMARK    3  A    between atoms: N_4  and  C_5
REMARK                            x       y       z     vdW  Elec       q    Type
REMARK                         _______ _______ _______ _____ _____    ______ ____
ROOT
ATOM      1  C   UNL     1       3.158   5.586  18.162  0.00  0.00    +0.000 C 
ATOM      2  C   UNL     1       1.838   5.667  17.433  0.00  0.00    +0.000 C 
ATOM      3  C   UNL     1       1.634   7.388  17.867  0.00  0.00    +0.000 C 
ATOM      4  C   UNL     1       2.344   7.617  19.281  0.00  0.00    +0.000 C 
ATOM      5  C   UNL     1       2.437   6.174  19.590  0.00  0.00    +0.000 C 
ATOM      6  C   UNL     1       1.575   5.447  20.708  0.00  0.00    +0.000 C 
ATOM      7  C   UNL     1       1.756   3.980  20.520  0.00  0.00    +0.000 A 
ATOM      8  C   UNL     1       2.232   3.292  21.643  0.00  0.00    +0.000 A 
ATOM      9  C   UNL     1       3.138   2.276  21.444  0.00  0.00    +0.000 A 
ATOM     10  C   UNL     1       3.446   1.903  20.137  0.00  0.00    +0.000 A 
ATOM     11  C   UNL     1       2.739   2.440  19.029  0.00  0.00    +0.000 A 
ATOM     12  C   UNL     1       1.814   3.484  19.199  0.00  0.00    +0.000 A 
ATOM     13  C   UNL     1       1.159   4.292  17.987  0.00  0.00    +0.000 C 
ENDROOT
BRANCH   1  14
ATOM     14  N   UNL     1       3.964   6.474  17.243  0.00  0.00    +0.000 NA
ATOM     15  H   UNL     1       3.391   6.913  16.508  0.00  0.00    +0.000 HD
BRANCH  14  17
ATOM     16  O   UNL     1       5.209   4.530  16.223  0.00  0.00    +0.000 OA
ATOM     17  S   UNL     1       5.251   5.972  16.298  0.00  0.00    +0.000 S 
ATOM     18  O   UNL     1       5.203   6.824  15.125  0.00  0.00    +0.000 OA
BRANCH  17  19
ATOM     19  C   UNL     1       6.572   6.548  17.322  0.00  0.00    +0.000 A 
ATOM     20  C   UNL     1       7.077   7.849  17.153  0.00  0.00    +0.000 A 
ATOM     21  C   UNL     1       8.091   8.270  18.013  0.00  0.00    +0.000 A 
ATOM     22  C   UNL     1       8.581   7.419  18.998  0.00  0.00    +0.000 A 
ATOM     23  C   UNL     1       8.031   6.144  19.153  0.00  0.00    +0.000 A 
ATOM     24  F   UNL     1       8.497   5.321  20.091  0.00  0.00    +0.000 F 
ATOM     25  C   UNL     1       7.044   5.704  18.309  0.00  0.00    +0.000 A 
ENDBRANCH  17  19
ENDBRANCH  14  17
ENDBRANCH   1  14
TORSDOF 3
ENDMDL
MODEL 6
REMARK VINA RESULT:      -7.3      4.252      7.211
REMARK  Name = 
REMARK  3 active torsions:
REMARK  status: ('A' for Active; 'I' for Inactive)
REMARK    1  A    between atoms: S_2  and  N_4
REMARK    2  A    between atoms: S_2  and  C_18
REMARK    3  A    between atoms: N_4  and  C_5
REMARK                            x       y       z     vdW  Elec       q    Type
REMARK                         _______ _______ _______ _____ _____    ______ ____
ROOT
ATOM      1  C   UNL     1       3.415   6.820  18.638  0.00  0.00    +0.000 C 
ATOM      2  C   UNL     1       2.835   5.822  17.664  0.00  0.00    +0.000 C 
ATOM      3  C   UNL     1       1.925   4.994  18.959  0.00  0.00    +0.000 C 
ATOM      4  C   UNL     1       2.768   5.139  20.310  0.00  0.00    +0.000 C 
ATOM      5  C   UNL     1       4.006   5.559  19.620  0.00  0.00    +0.000 C 
ATOM      6  C   UNL     1       5.307   4.656  19.500  0.00  0.00    +0.000 C 
ATOM      7  C   UNL     1       6.211   5.313  18.515  0.00  0.00    +0.000 A 
ATOM      8  C   UNL     1       7.495   5.608  18.992  0.00  0.00    +0.000 A 
ATOM      9  C   UNL     1       8.076   6.790  18.598  0.00  0.00    +0.000 A 
ATOM     10  C   UNL     1       7.416   7.577  17.656  0.00  0.00    +0.000 A 
ATOM     11  C   UNL     1       6.250   7.114  16.993  0.00  0.00    +0.000 A 
ATOM     12  C   UNL     1       5.627   5.914  17.378  0.00  0.00    +0.000 A 
ATOM     13  C   UNL     1       4.195   5.448  16.846  0.00  0.00    +0.000 C 
ENDROOT
BRANCH   1  14
ATOM     14  N   UNL     1       2.141   7.564  18.965  0.00  0.00    +0.000 NA
ATOM     15  H   UNL     1       1.296   6.992  18.822  0.00  0.00    +0.000 HD
BRANCH  14  17
ATOM     16  O   UNL     1       2.794   9.663  17.725  0.00  0.00    +0.000 OA
ATOM     17  S   UNL     1       1.626   8.972  18.219  0.00  0.00    +0.000 S 
ATOM     18  O   UNL     1       0.534   8.557  17.361  0.00  0.00    +0.000 OA
BRANCH  17  19
ATOM     19  C   UNL     1       0.923   9.775  19.628  0.00  0.00    +0.000 A 
ATOM     20  C   UNL     1       0.268  11.010  19.480  0.00  0.00    +0.000 A 
ATOM     21  C   UNL     1      -0.306  11.583  20.615  0.00  0.00    +0.000 A 
ATOM     22  C   UNL     1      -0.221  10.945  21.848  0.00  0.00    +0.000 A 
ATOM     23  C   UNL     1       0.411   9.704  21.947  0.00  0.00    +0.000 A 
ATOM     24  F   UNL     1       0.501   9.088  23.125  0.00  0.00    +0.000 F 
ATOM     25  C   UNL     1       0.996   9.129  20.848  0.00  0.00    +0.000 A 
ENDBRANCH  17  19
ENDBRANCH  14  17
ENDBRANCH   1  14
TORSDOF 3
ENDMDL
MODEL 7
REMARK VINA RESULT:      -7.1      5.926      8.087
REMARK  Name = 
REMARK  3 active torsions:
REMARK  status: ('A' for Active; 'I' for Inactive)
REMARK    1  A    between atoms: S_2  and  N_4
REMARK    2  A    between atoms: S_2  and  C_18
REMARK    3  A    between atoms: N_4  and  C_5
REMARK                            x       y       z     vdW  Elec       q    Type
REMARK                         _______ _______ _______ _____ _____    ______ ____
ROOT
ATOM      1  C   UNL     1      -0.309  11.139  19.971  0.00  0.00    +0.000 C 
ATOM      2  C   UNL     1       0.318  12.433  19.512  0.00  0.00    +0.000 C 
ATOM      3  C   UNL     1       0.344  13.082  21.177  0.00  0.00    +0.000 C 
ATOM      4  C   UNL     1      -0.903  12.458  21.958  0.00  0.00    +0.000 C 
ATOM      5  C   UNL     1      -1.577  11.990  20.728  0.00  0.00    +0.000 C 
ATOM      6  C   UNL     1      -2.908  12.630  20.144  0.00  0.00    +0.000 C 
ATOM      7  C   UNL     1      -3.105  12.071  18.778  0.00  0.00    +0.000 A 
ATOM      8  C   UNL     1      -4.333  11.431  18.569  0.00  0.00    +0.000 A 
ATOM      9  C   UNL     1      -4.347  10.290  17.802  0.00  0.00    +0.000 A 
ATOM     10  C   UNL     1      -3.168   9.894  17.173  0.00  0.00    +0.000 A 
ATOM     11  C   UNL     1      -2.011  10.717  17.186  0.00  0.00    +0.000 A 
ATOM     12  C   UNL     1      -1.962  11.884  17.968  0.00  0.00    +0.000 A 
ATOM     13  C   UNL     1      -0.630  12.728  18.218  0.00  0.00    +0.000 C 
ENDROOT
BRANCH   1  14
ATOM     14  N   UNL     1       0.868  10.593  20.746  0.00  0.00    +0.000 NA
ATOM     15  H   UNL     1       1.713  10.487  20.165  0.00  0.00    +0.000 HD
BRANCH  14  17
ATOM     16  O   UNL     1       1.804   9.235  22.656  0.00  0.00    +0.000 OA
ATOM     17  S   UNL     1       0.908   9.115  21.529  0.00  0.00    +0.000 S 
ATOM     18  O   UNL     1      -0.483   8.731  21.666  0.00  0.00    +0.000 OA
BRANCH  17  19
ATOM     19  C   UNL     1       1.605   8.143  20.226  0.00  0.00    +0.000 A 
ATOM     20  C   UNL     1       1.834   8.720  18.965  0.00  0.00    +0.000 A 
ATOM     21  C   UNL     1       2.423   7.923  17.983  0.00  0.00    +0.000 A 
ATOM     22  C   UNL     1       2.762   6.602  18.255  0.00  0.00    +0.000 A 
ATOM     23  C   UNL     1       2.546   6.076  19.530  0.00  0.00    +0.000 A 
ATOM     24  F   UNL     1       2.864   4.810  19.798  0.00  0.00    +0.000 F 
ATOM     25  C   UNL     1       1.954   6.836  20.506  0.00  0.00    +0.000 A 
ENDBRANCH  17  19
ENDBRANCH  14  17
ENDBRANCH   1  14
TORSDOF 3
ENDMDL
MODEL 8
REMARK VINA RESULT:      -7.1      5.837      7.989
REMARK  Name = 
REMARK  3 active torsions:
REMARK  status: ('A' for Active; 'I' for Inactive)
REMARK    1  A    between atoms: S_2  and  N_4
REMARK    2  A    between atoms: S_2  and  C_18
REMARK    3  A    between atoms: N_4  and  C_5
REMARK                            x       y       z     vdW  Elec       q    Type
REMARK                         _______ _______ _______ _____ _____    ______ ____
ROOT
ATOM      1  C   UNL     1      -0.306  11.015  19.897  0.00  0.00    +0.000 C 
ATOM      2  C   UNL     1       0.352  12.309  19.481  0.00  0.00    +0.000 C 
ATOM      3  C   UNL     1       0.471  12.864  21.176  0.00  0.00    +0.000 C 
ATOM      4  C   UNL     1      -0.767  12.244  21.975  0.00  0.00    +0.000 C 
ATOM      5  C   UNL     1      -1.508  11.869  20.752  0.00  0.00    +0.000 C 
ATOM      6  C   UNL     1      -2.835  12.589  20.261  0.00  0.00    +0.000 C 
ATOM      7  C   UNL     1      -3.109  12.113  18.876  0.00  0.00    +0.000 A 
ATOM      8  C   UNL     1      -4.369  11.532  18.686  0.00  0.00    +0.000 A 
ATOM      9  C   UNL     1      -4.459  10.436  17.860  0.00  0.00    +0.000 A 
ATOM     10  C   UNL     1      -3.322  10.032  17.162  0.00  0.00    +0.000 A 
ATOM     11  C   UNL     1      -2.134  10.810  17.169  0.00  0.00    +0.000 A 
ATOM     12  C   UNL     1      -2.009  11.929  18.009  0.00  0.00    +0.000 A 
ATOM     13  C   UNL     1      -0.635  12.709  18.247  0.00  0.00    +0.000 C 
ENDROOT
BRANCH   1  14
ATOM     14  N   UNL     1       0.880  10.385  20.590  0.00  0.00    +0.000 NA
ATOM     15  H   UNL     1       1.624  10.106  19.934  0.00  0.00    +0.000 HD
BRANCH  14  17
ATOM     16  O   UNL     1       1.639   9.222  22.698  0.00  0.00    +0.000 OA
ATOM     17  S   UNL     1       0.829   8.996  21.523  0.00  0.00    +0.000 S 
ATOM     18  O   UNL     1      -0.577   8.648  21.591  0.00  0.00    +0.000 OA
BRANCH  17  19
ATOM     19  C   UNL     1       1.600   7.885  20.386  0.00  0.00    +0.000 A 
ATOM     20  C   UNL     1       1.723   6.522  20.708  0.00  0.00    +0.000 A 
ATOM     21  C   UNL     1       2.302   5.679  19.759  0.00  0.00    +0.000 A 
ATOM     22  C   UNL     1       2.745   6.184  18.541  0.00  0.00    +0.000 A 
ATOM     23  C   UNL     1       2.577   7.539  18.247  0.00  0.00    +0.000 A 
ATOM     24  F   UNL     1       3.002   8.033  17.085  0.00  0.00    +0.000 F 
ATOM     25  C   UNL     1       2.024   8.389  19.171  0.00  0.00    +0.000 A 
ENDBRANCH  17  19
ENDBRANCH  14  17
ENDBRANCH   1  14
TORSDOF 3
ENDMDL
MODEL 9
REMARK VINA RESULT:      -7.1      2.577      3.568
REMARK  Name = 
REMARK  3 active torsions:
REMARK  status: ('A' for Active; 'I' for Inactive)
REMARK    1  A    between atoms: S_2  and  N_4
REMARK    2  A    between atoms: S_2  and  C_18
REMARK    3  A    between atoms: N_4  and  C_5
REMARK                            x       y       z     vdW  Elec       q    Type
REMARK                         _______ _______ _______ _____ _____    ______ ____
ROOT
ATOM      1  C   UNL     1       5.127   5.244  16.353  0.00  0.00    +0.000 C 
ATOM      2  C   UNL     1       4.519   6.594  16.651  0.00  0.00    +0.000 C 
ATOM      3  C   UNL     1       6.114   7.291  17.054  0.00  0.00    +0.000 C 
ATOM      4  C   UNL     1       7.014   6.119  17.662  0.00  0.00    +0.000 C 
ATOM      5  C   UNL     1       5.870   5.210  17.886  0.00  0.00    +0.000 C 
ATOM      6  C   UNL     1       5.302   4.832  19.321  0.00  0.00    +0.000 C 
ATOM      7  C   UNL     1       4.005   4.130  19.111  0.00  0.00    +0.000 A 
ATOM      8  C   UNL     1       3.921   2.853  19.680  0.00  0.00    +0.000 A 
ATOM      9  C   UNL     1       3.263   1.872  18.977  0.00  0.00    +0.000 A 
ATOM     10  C   UNL     1       2.611   2.221  17.795  0.00  0.00    +0.000 A 
ATOM     11  C   UNL     1       2.487   3.577  17.392  0.00  0.00    +0.000 A 
ATOM     12  C   UNL     1       3.156   4.601  18.085  0.00  0.00    +0.000 A 
ATOM     13  C   UNL     1       3.256   6.106  17.560  0.00  0.00    +0.000 C 
ENDROOT
BRANCH   1  14
ATOM     14  N   UNL     1       5.884   5.622  15.101  0.00  0.00    +0.000 NA
ATOM     15  H   UNL     1       5.307   5.556  14.250  0.00  0.00    +0.000 HD
BRANCH  14  17
ATOM     16  O   UNL     1       8.167   5.874  14.053  0.00  0.00    +0.000 OA
ATOM     17  S   UNL     1       7.261   4.856  14.535  0.00  0.00    +0.000 S 
ATOM     18  O   UNL     1       7.616   3.916  15.580  0.00  0.00    +0.000 OA
BRANCH  17  19
ATOM     19  C   UNL     1       6.529   3.937  13.215  0.00  0.00    +0.000 A 
ATOM     20  C   UNL     1       7.337   3.162  12.365  0.00  0.00    +0.000 A 
ATOM     21  C   UNL     1       6.707   2.422  11.364  0.00  0.00    +0.000 A 
ATOM     22  C   UNL     1       5.324   2.463  11.220  0.00  0.00    +0.000 A 
ATOM     23  C   UNL     1       4.554   3.222  12.104  0.00  0.00    +0.000 A 
ATOM     24  F   UNL     1       3.229   3.270  11.970  0.00  0.00    +0.000 F 
ATOM     25  C   UNL     1       5.153   3.969  13.086  0.00  0.00    +0.000 A 
ENDBRANCH  17  19
ENDBRANCH  14  17
ENDBRANCH   1  14
TORSDOF 3
ENDMDL
