MODEL 1
REMARK VINA RESULT:      -6.7      0.000      0.000
REMARK  Name = 
REMARK  7 active torsions:
REMARK  status: ('A' for Active; 'I' for Inactive)
REMARK    1  A    between atoms: C_1  and  N_2
REMARK    2  A    between atoms: N_2  and  C_3
REMARK    3  A    between atoms: N_2  and  C_17
REMARK    4  A    between atoms: N_6  and  C_7
REMARK    5  A    between atoms: N_10  and  C_11
REMARK    6  A    between atoms: C_25  and  C_27
REMARK    7  A    between atoms: C_27  and  C_28
REMARK                            x       y       z     vdW  Elec       q    Type
REMARK                         _______ _______ _______ _____ _____    ______ ____
ROOT
ATOM      1  C   UNL     1       1.177   5.715  17.586  0.00  0.00    +0.000 C 
ATOM      2  N   UNL     1       2.150   5.969  18.637  0.00  0.00    +0.000 N 
ENDROOT
BRANCH   2   3
ATOM      3  C   UNL     1       2.306   7.318  19.204  0.00  0.00    +0.000 C 
ATOM      4  C   UNL     1       1.218   7.735  20.197  0.00  0.00    +0.000 C 
ATOM      5  C   UNL     1       1.244   9.253  20.155  0.00  0.00    +0.000 C 
ATOM      6  C   UNL     1       1.474   9.601  18.669  0.00  0.00    +0.000 C 
ATOM      7  C   UNL     1       2.282  10.909  18.525  0.00  0.00    +0.000 C 
ATOM      8  C   UNL     1       1.475  12.132  18.964  0.00  0.00    +0.000 C 
ATOM      9  C   UNL     1       0.145  12.213  18.218  0.00  0.00    +0.000 C 
ATOM     10  N   UNL     1      -0.596  10.960  18.353  0.00  0.00    +0.000 N 
ATOM     11  C   UNL     1      -1.907  10.831  18.808  0.00  0.00    +0.000 C 
ATOM     12  O   UNL     1      -2.457   9.727  18.861  0.00  0.00    +0.000 OA
ATOM     13  C   UNL     1       0.131   9.762  17.915  0.00  0.00    +0.000 C 
ATOM     14  C   UNL     1       2.255   8.389  18.100  0.00  0.00    +0.000 C 
BRANCH  11  15
ATOM     15  C   UNL     1      -2.629  12.094  19.250  0.00  0.00    +0.000 C 
BRANCH  15  16
ATOM     16  C   UNL     1      -4.126  11.972  19.018  0.00  0.00    +0.000 C 
ATOM     17  N   UNL     1      -5.367  11.871  18.826  0.00  0.00    +0.000 NA
ENDBRANCH  15  16
ENDBRANCH  11  15
ENDBRANCH   2   3
BRANCH   2  18
ATOM     18  C   UNL     1       3.013   4.966  19.075  0.00  0.00    +0.000 A 
ATOM     19  N   UNL     1       4.221   4.911  18.470  0.00  0.00    +0.000 NA
ATOM     20  C   UNL     1       5.153   4.033  18.886  0.00  0.00    +0.000 A 
ATOM     21  N   UNL     1       6.375   3.912  18.221  0.00  0.00    +0.000 N 
ATOM     22  N   UNL     1       4.964   3.182  19.900  0.00  0.00    +0.000 NA
ATOM     23  C   UNL     1       3.739   3.197  20.458  0.00  0.00    +0.000 A 
ATOM     24  C   UNL     1       2.717   4.046  20.078  0.00  0.00    +0.000 A 
ATOM     25 CL   UNL     1       1.165   3.785  20.783  0.00  0.00    +0.000 Cl
ATOM     26  H   UNL     1       6.904   3.174  18.667  0.00  0.00    +0.000 HD
BRANCH  21  27
ATOM     27  C   UNL     1       6.734   4.409  17.020  0.00  0.00    +0.000 A 
ATOM     28  C   UNL     1       7.424   5.598  16.705  0.00  0.00    +0.000 A 
ATOM     29  N   UNL     1       7.549   5.783  15.388  0.00  0.00    +0.000 NA
ATOM     30  N   UNL     1       6.965   4.692  14.866  0.00  0.00    +0.000 N 
ATOM     31  C   UNL     1       6.940   4.516  13.435  0.00  0.00    +0.000 C 
ATOM     32  C   UNL     1       6.462   3.832  15.802  0.00  0.00    +0.000 A 
ENDBRANCH  21  27
ENDBRANCH   2  18
TORSDOF 5
ENDMDL
MODEL 2
REMARK VINA RESULT:      -6.4      4.051      6.997
REMARK  Name = 
REMARK  7 active torsions:
REMARK  status: ('A' for Active; 'I' for Inactive)
REMARK    1  A    between atoms: C_1  and  N_2
REMARK    2  A    between atoms: N_2  and  C_3
REMARK    3  A    between atoms: N_2  and  C_17
REMARK    4  A    between atoms: N_6  and  C_7
REMARK    5  A    between atoms: N_10  and  C_11
REMARK    6  A    between atoms: C_25  and  C_27
REMARK    7  A    between atoms: C_27  and  C_28
REMARK                            x       y       z     vdW  Elec       q    Type
REMARK                         _______ _______ _______ _____ _____    ______ ____
ROOT
ATOM      1  C   UNL     1      -1.927  10.548  18.420  0.00  0.00    +0.000 C 
ATOM      2  N   UNL     1      -0.743  11.059  19.092  0.00  0.00    +0.000 N 
ENDROOT
BRANCH   2   3
ATOM      3  C   UNL     1       0.079  12.108  18.468  0.00  0.00    +0.000 C 
ATOM      4  C   UNL     1       1.592  11.907  18.590  0.00  0.00    +0.000 C 
ATOM      5  C   UNL     1       2.162  13.308  18.443  0.00  0.00    +0.000 C 
ATOM      6  C   UNL     1       1.175  14.215  19.208  0.00  0.00    +0.000 C 
ATOM      7  C   UNL     1       1.098  15.617  18.565  0.00  0.00    +0.000 C 
ATOM      8  C   UNL     1       2.393  16.408  18.758  0.00  0.00    +0.000 C 
ATOM      9  C   UNL     1       2.773  16.493  20.233  0.00  0.00    +0.000 C 
ATOM     10  N   UNL     1       2.824  15.158  20.828  0.00  0.00    +0.000 N 
ATOM     11  C   UNL     1       3.901  14.615  21.526  0.00  0.00    +0.000 C 
ATOM     12  O   UNL     1       3.838  13.483  22.015  0.00  0.00    +0.000 OA
ATOM     13  C   UNL     1       1.591  14.373  20.692  0.00  0.00    +0.000 C 
ATOM     14  C   UNL     1      -0.185  13.477  19.119  0.00  0.00    +0.000 C 
BRANCH  11  15
ATOM     15  C   UNL     1       5.161  15.457  21.648  0.00  0.00    +0.000 C 
BRANCH  15  16
ATOM     16  C   UNL     1       6.173  14.790  22.564  0.00  0.00    +0.000 C 
ATOM     17  N   UNL     1       7.012  14.236  23.324  0.00  0.00    +0.000 NA
ENDBRANCH  15  16
ENDBRANCH  11  15
ENDBRANCH   2   3
BRANCH   2  18
ATOM     18  C   UNL     1      -0.311  10.515  20.300  0.00  0.00    +0.000 A 
ATOM     19  N   UNL     1       0.535   9.464  20.213  0.00  0.00    +0.000 NA
ATOM     20  C   UNL     1       1.074   8.928  21.324  0.00  0.00    +0.000 A 
ATOM     21  N   UNL     1       1.886   7.794  21.255  0.00  0.00    +0.000 N 
ATOM     22  N   UNL     1       0.828   9.384  22.557  0.00  0.00    +0.000 NA
ATOM     23  C   UNL     1      -0.064  10.389  22.644  0.00  0.00    +0.000 A 
ATOM     24  C   UNL     1      -0.682  10.982  21.559  0.00  0.00    +0.000 A 
ATOM     25 CL   UNL     1      -1.931  12.125  21.885  0.00  0.00    +0.000 Cl
ATOM     26  H   UNL     1       2.148   7.537  22.198  0.00  0.00    +0.000 HD
BRANCH  21  27
ATOM     27  C   UNL     1       2.075   6.954  20.217  0.00  0.00    +0.000 A 
ATOM     28  C   UNL     1       2.554   7.218  18.918  0.00  0.00    +0.000 A 
ATOM     29  N   UNL     1       2.549   6.132  18.140  0.00  0.00    +0.000 NA
ATOM     30  N   UNL     1       2.096   5.168  18.959  0.00  0.00    +0.000 N 
ATOM     31  C   UNL     1       1.989   3.815  18.471  0.00  0.00    +0.000 C 
ATOM     32  C   UNL     1       1.800   5.607  20.219  0.00  0.00    +0.000 A 
ENDBRANCH  21  27
ENDBRANCH   2  18
TORSDOF 5
ENDMDL
MODEL 3
REMARK VINA RESULT:      -6.3      1.457      2.012
REMARK  Name = 
REMARK  7 active torsions:
REMARK  status: ('A' for Active; 'I' for Inactive)
REMARK    1  A    between atoms: C_1  and  N_2
REMARK    2  A    between atoms: N_2  and  C_3
REMARK    3  A    between atoms: N_2  and  C_17
REMARK    4  A    between atoms: N_6  and  C_7
REMARK    5  A    between atoms: N_10  and  C_11
REMARK    6  A    between atoms: C_25  and  C_27
REMARK    7  A    between atoms: C_27  and  C_28
REMARK                            x       y       z     vdW  Elec       q    Type
REMARK                         _______ _______ _______ _____ _____    ______ ____
ROOT
ATOM      1  C   UNL     1       2.620   7.230  18.357  0.00  0.00    +0.000 C 
ATOM      2  N   UNL     1       2.397   6.373  19.511  0.00  0.00    +0.000 N 
ENDROOT
BRANCH   2   3
ATOM      3  C   UNL     1       1.518   6.808  20.608  0.00  0.00    +0.000 C 
ATOM      4  C   UNL     1       0.051   7.016  20.222  0.00  0.00    +0.000 C 
ATOM      5  C   UNL     1      -0.471   7.984  21.269  0.00  0.00    +0.000 C 
ATOM      6  C   UNL     1       0.688   8.978  21.497  0.00  0.00    +0.000 C 
ATOM      7  C   UNL     1       0.702   9.489  22.954  0.00  0.00    +0.000 C 
ATOM      8  C   UNL     1      -0.493  10.397  23.254  0.00  0.00    +0.000 C 
ATOM      9  C   UNL     1      -0.571  11.553  22.260  0.00  0.00    +0.000 C 
ATOM     10  N   UNL     1      -0.565  11.050  20.887  0.00  0.00    +0.000 N 
ATOM     11  C   UNL     1      -1.508  11.346  19.905  0.00  0.00    +0.000 C 
ATOM     12  O   UNL     1      -1.402  10.891  18.761  0.00  0.00    +0.000 OA
ATOM     13  C   UNL     1       0.580  10.196  20.546  0.00  0.00    +0.000 C 
ATOM     14  C   UNL     1       1.968   8.168  21.170  0.00  0.00    +0.000 C 
BRANCH  11  15
ATOM     15  C   UNL     1      -2.678  12.235  20.293  0.00  0.00    +0.000 C 
BRANCH  15  16
ATOM     16  C   UNL     1      -3.816  12.101  19.295  0.00  0.00    +0.000 C 
ATOM     17  N   UNL     1      -4.759  11.990  18.466  0.00  0.00    +0.000 NA
ENDBRANCH  15  16
ENDBRANCH  11  15
ENDBRANCH   2   3
BRANCH   2  18
ATOM     18  C   UNL     1       3.071   5.161  19.647  0.00  0.00    +0.000 A 
ATOM     19  N   UNL     1       4.253   5.060  18.997  0.00  0.00    +0.000 NA
ATOM     20  C   UNL     1       5.017   3.960  19.140  0.00  0.00    +0.000 A 
ATOM     21  N   UNL     1       6.200   3.807  18.415  0.00  0.00    +0.000 N 
ATOM     22  N   UNL     1       4.680   2.923  19.915  0.00  0.00    +0.000 NA
ATOM     23  C   UNL     1       3.475   3.002  20.509  0.00  0.00    +0.000 A 
ATOM     24  C   UNL     1       2.618   4.080  20.398  0.00  0.00    +0.000 A 
ATOM     25 CL   UNL     1       1.042   3.914  21.080  0.00  0.00    +0.000 Cl
ATOM     26  H   UNL     1       6.592   2.902  18.639  0.00  0.00    +0.000 HD
BRANCH  21  27
ATOM     27  C   UNL     1       6.643   4.526  17.363  0.00  0.00    +0.000 A 
ATOM     28  C   UNL     1       7.205   5.819  17.326  0.00  0.00    +0.000 A 
ATOM     29  N   UNL     1       7.475   6.225  16.082  0.00  0.00    +0.000 NA
ATOM     30  N   UNL     1       7.113   5.172  15.329  0.00  0.00    +0.000 N 
ATOM     31  C   UNL     1       7.298   5.224  13.900  0.00  0.00    +0.000 C 
ATOM     32  C   UNL     1       6.611   4.124  16.049  0.00  0.00    +0.000 A 
ENDBRANCH  21  27
ENDBRANCH   2  18
TORSDOF 5
ENDMDL
MODEL 4
REMARK VINA RESULT:      -6.2      4.238      6.600
REMARK  Name = 
REMARK  7 active torsions:
REMARK  status: ('A' for Active; 'I' for Inactive)
REMARK    1  A    between atoms: C_1  and  N_2
REMARK    2  A    between atoms: N_2  and  C_3
REMARK    3  A    between atoms: N_2  and  C_17
REMARK    4  A    between atoms: N_6  and  C_7
REMARK    5  A    between atoms: N_10  and  C_11
REMARK    6  A    between atoms: C_25  and  C_27
REMARK    7  A    between atoms: C_27  and  C_28
REMARK                            x       y       z     vdW  Elec       q    Type
REMARK                         _______ _______ _______ _____ _____    ______ ____
ROOT
ATOM      1  C   UNL     1      -1.153  10.408  17.982  0.00  0.00    +0.000 C 
ATOM      2  N   UNL     1      -0.284  10.991  18.994  0.00  0.00    +0.000 N 
ENDROOT
BRANCH   2   3
ATOM      3  C   UNL     1       0.391  12.275  18.751  0.00  0.00    +0.000 C 
ATOM      4  C   UNL     1       1.367  12.714  19.847  0.00  0.00    +0.000 C 
ATOM      5  C   UNL     1       1.444  14.222  19.688  0.00  0.00    +0.000 C 
ATOM      6  C   UNL     1       0.000  14.657  19.358  0.00  0.00    +0.000 C 
ATOM      7  C   UNL     1      -0.008  15.895  18.435  0.00  0.00    +0.000 C 
ATOM      8  C   UNL     1       0.490  17.149  19.155  0.00  0.00    +0.000 C 
ATOM      9  C   UNL     1      -0.303  17.403  20.434  0.00  0.00    +0.000 C 
ATOM     10  N   UNL     1      -0.297  16.214  21.286  0.00  0.00    +0.000 N 
ATOM     11  C   UNL     1       0.091  16.169  22.624  0.00  0.00    +0.000 C 
ATOM     12  O   UNL     1       0.036  15.117  23.269  0.00  0.00    +0.000 OA
ATOM     13  C   UNL     1      -0.795  14.991  20.644  0.00  0.00    +0.000 C 
ATOM     14  C   UNL     1      -0.628  13.425  18.657  0.00  0.00    +0.000 C 
BRANCH  11  15
ATOM     15  C   UNL     1       0.599  17.455  23.255  0.00  0.00    +0.000 C 
BRANCH  15  16
ATOM     16  C   UNL     1       1.795  17.183  24.152  0.00  0.00    +0.000 C 
ATOM     17  N   UNL     1       2.787  16.957  24.896  0.00  0.00    +0.000 NA
ENDBRANCH  15  16
ENDBRANCH  11  15
ENDBRANCH   2   3
BRANCH   2  18
ATOM     18  C   UNL     1      -0.006  10.313  20.179  0.00  0.00    +0.000 A 
ATOM     19  N   UNL     1       0.782   9.220  20.070  0.00  0.00    +0.000 NA
ATOM     20  C   UNL     1       1.177   8.552  21.170  0.00  0.00    +0.000 A 
ATOM     21  N   UNL     1       1.926   7.378  21.069  0.00  0.00    +0.000 N 
ATOM     22  N   UNL     1       0.837   8.910  22.413  0.00  0.00    +0.000 NA
ATOM     23  C   UNL     1       0.000   9.961  22.512  0.00  0.00    +0.000 A 
ATOM     24  C   UNL     1      -0.472  10.688  21.437  0.00  0.00    +0.000 A 
ATOM     25 CL   UNL     1      -1.681  11.878  21.753  0.00  0.00    +0.000 Cl
ATOM     26  H   UNL     1       2.078   7.020  22.003  0.00  0.00    +0.000 HD
BRANCH  21  27
ATOM     27  C   UNL     1       2.168   6.624  19.977  0.00  0.00    +0.000 A 
ATOM     28  C   UNL     1       2.822   6.960  18.774  0.00  0.00    +0.000 A 
ATOM     29  N   UNL     1       2.821   5.957  17.893  0.00  0.00    +0.000 NA
ATOM     30  N   UNL     1       2.192   4.969  18.551  0.00  0.00    +0.000 N 
ATOM     31  C   UNL     1       2.031   3.684  17.916  0.00  0.00    +0.000 C 
ATOM     32  C   UNL     1       1.783   5.315  19.808  0.00  0.00    +0.000 A 
ENDBRANCH  21  27
ENDBRANCH   2  18
TORSDOF 5
ENDMDL
MODEL 5
REMARK VINA RESULT:      -6.2      6.801     10.084
REMARK  Name = 
REMARK  7 active torsions:
REMARK  status: ('A' for Active; 'I' for Inactive)
REMARK    1  A    between atoms: C_1  and  N_2
REMARK    2  A    between atoms: N_2  and  C_3
REMARK    3  A    between atoms: N_2  and  C_17
REMARK    4  A    between atoms: N_6  and  C_7
REMARK    5  A    between atoms: N_10  and  C_11
REMARK    6  A    between atoms: C_25  and  C_27
REMARK    7  A    between atoms: C_27  and  C_28
REMARK                            x       y       z     vdW  Elec       q    Type
REMARK                         _______ _______ _______ _____ _____    ______ ____
ROOT
ATOM      1  C   UNL     1       0.560  10.345  21.627  0.00  0.00    +0.000 C 
ATOM      2  N   UNL     1       0.126  11.557  20.950  0.00  0.00    +0.000 N 
ENDROOT
BRANCH   2   3
ATOM      3  C   UNL     1      -0.158  11.549  19.507  0.00  0.00    +0.000 C 
ATOM      4  C   UNL     1      -0.891  12.786  18.981  0.00  0.00    +0.000 C 
ATOM      5  C   UNL     1      -1.570  12.299  17.712  0.00  0.00    +0.000 C 
ATOM      6  C   UNL     1      -2.059  10.874  18.050  0.00  0.00    +0.000 C 
ATOM      7  C   UNL     1      -2.037   9.970  16.799  0.00  0.00    +0.000 C 
ATOM      8  C   UNL     1      -3.098  10.381  15.776  0.00  0.00    +0.000 C 
ATOM      9  C   UNL     1      -4.487  10.424  16.408  0.00  0.00    +0.000 C 
ATOM     10  N   UNL     1      -4.482  11.271  17.600  0.00  0.00    +0.000 N 
ATOM     11  C   UNL     1      -5.340  12.341  17.846  0.00  0.00    +0.000 C 
ATOM     12  O   UNL     1      -5.275  12.982  18.899  0.00  0.00    +0.000 OA
ATOM     13  C   UNL     1      -3.498  10.895  18.622  0.00  0.00    +0.000 C 
ATOM     14  C   UNL     1      -1.070  10.368  19.130  0.00  0.00    +0.000 C 
BRANCH  11  15
ATOM     15  C   UNL     1      -6.348  12.700  16.766  0.00  0.00    +0.000 C 
BRANCH  15  16
ATOM     16  C   UNL     1      -6.717  14.173  16.837  0.00  0.00    +0.000 C 
ATOM     17  N   UNL     1      -7.024  15.394  16.896  0.00  0.00    +0.000 NA
ENDBRANCH  15  16
ENDBRANCH  11  15
ENDBRANCH   2   3
BRANCH   2  18
ATOM     18  C   UNL     1       0.047  12.771  21.631  0.00  0.00    +0.000 A 
ATOM     19  N   UNL     1      -1.035  12.940  22.424  0.00  0.00    +0.000 NA
ATOM     20  C   UNL     1      -1.154  14.043  23.188  0.00  0.00    +0.000 A 
ATOM     21  N   UNL     1      -2.301  14.269  23.951  0.00  0.00    +0.000 N 
ATOM     22  N   UNL     1      -0.239  15.017  23.225  0.00  0.00    +0.000 NA
ATOM     23  C   UNL     1       0.805  14.873  22.387  0.00  0.00    +0.000 A 
ATOM     24  C   UNL     1       0.994  13.788  21.552  0.00  0.00    +0.000 A 
ATOM     25 CL   UNL     1       2.292  13.875  20.419  0.00  0.00    +0.000 Cl
ATOM     26  H   UNL     1      -2.202  15.165  24.411  0.00  0.00    +0.000 HD
BRANCH  21  27
ATOM     27  C   UNL     1      -3.489  13.633  23.896  0.00  0.00    +0.000 A 
ATOM     28  C   UNL     1      -3.975  12.559  24.671  0.00  0.00    +0.000 A 
ATOM     29  N   UNL     1      -5.189  12.158  24.284  0.00  0.00    +0.000 NA
ATOM     30  N   UNL     1      -5.488  13.001  23.282  0.00  0.00    +0.000 N 
ATOM     31  C   UNL     1      -6.768  12.897  22.625  0.00  0.00    +0.000 C 
ATOM     32  C   UNL     1      -4.503  13.909  23.010  0.00  0.00    +0.000 A 
ENDBRANCH  21  27
ENDBRANCH   2  18
TORSDOF 5
ENDMDL
MODEL 6
REMARK VINA RESULT:      -6.0      4.265      7.005
REMARK  Name = 
REMARK  7 active torsions:
REMARK  status: ('A' for Active; 'I' for Inactive)
REMARK    1  A    between atoms: C_1  and  N_2
REMARK    2  A    between atoms: N_2  and  C_3
REMARK    3  A    between atoms: N_2  and  C_17
REMARK    4  A    between atoms: N_6  and  C_7
REMARK    5  A    between atoms: N_10  and  C_11
REMARK    6  A    between atoms: C_25  and  C_27
REMARK    7  A    between atoms: C_27  and  C_28
REMARK                            x       y       z     vdW  Elec       q    Type
REMARK                         _______ _______ _______ _____ _____    ______ ____
ROOT
ATOM      1  C   UNL     1      -1.588  10.551  17.988  0.00  0.00    +0.000 C 
ATOM      2  N   UNL     1      -0.608  11.219  18.832  0.00  0.00    +0.000 N 
ENDROOT
BRANCH   2   3
ATOM      3  C   UNL     1       0.117  12.403  18.344  0.00  0.00    +0.000 C 
ATOM      4  C   UNL     1       1.575  12.504  18.799  0.00  0.00    +0.000 C 
ATOM      5  C   UNL     1       1.887  13.988  18.705  0.00  0.00    +0.000 C 
ATOM      6  C   UNL     1       0.602  14.691  19.192  0.00  0.00    +0.000 C 
ATOM      7  C   UNL     1       0.405  16.044  18.475  0.00  0.00    +0.000 C 
ATOM      8  C   UNL     1       1.452  17.076  18.900  0.00  0.00    +0.000 C 
ATOM      9  C   UNL     1       1.473  17.247  20.417  0.00  0.00    +0.000 C 
ATOM     10  N   UNL     1       1.643  15.954  21.077  0.00  0.00    +0.000 N 
ATOM     11  C   UNL     1       2.623  15.639  22.017  0.00  0.00    +0.000 C 
ATOM     12  O   UNL     1       2.669  14.521  22.540  0.00  0.00    +0.000 OA
ATOM     13  C   UNL     1       0.643  14.941  20.720  0.00  0.00    +0.000 C 
ATOM     14  C   UNL     1      -0.539  13.699  18.852  0.00  0.00    +0.000 C 
BRANCH  11  15
ATOM     15  C   UNL     1       3.641  16.714  22.364  0.00  0.00    +0.000 C 
BRANCH  15  16
ATOM     16  C   UNL     1       3.319  17.355  23.703  0.00  0.00    +0.000 C 
ATOM     17  N   UNL     1       3.051  17.886  24.815  0.00  0.00    +0.000 NA
ENDBRANCH  15  16
ENDBRANCH  11  15
ENDBRANCH   2   3
BRANCH   2  18
ATOM     18  C   UNL     1      -0.273  10.710  20.085  0.00  0.00    +0.000 A 
ATOM     19  N   UNL     1       0.552   9.639  20.092  0.00  0.00    +0.000 NA
ATOM     20  C   UNL     1       1.000   9.132  21.256  0.00  0.00    +0.000 A 
ATOM     21  N   UNL     1       1.789   7.980  21.284  0.00  0.00    +0.000 N 
ATOM     22  N   UNL     1       0.681   9.637  22.453  0.00  0.00    +0.000 NA
ATOM     23  C   UNL     1      -0.191  10.663  22.443  0.00  0.00    +0.000 A 
ATOM     24  C   UNL     1      -0.719  11.229  21.298  0.00  0.00    +0.000 A 
ATOM     25 CL   UNL     1      -1.961  12.409  21.496  0.00  0.00    +0.000 Cl
ATOM     26  H   UNL     1       1.979   7.751  22.250  0.00  0.00    +0.000 HD
BRANCH  21  27
ATOM     27  C   UNL     1       2.029   7.099  20.291  0.00  0.00    +0.000 A 
ATOM     28  C   UNL     1       2.513   7.320  18.985  0.00  0.00    +0.000 A 
ATOM     29  N   UNL     1       2.567   6.198  18.262  0.00  0.00    +0.000 NA
ATOM     30  N   UNL     1       2.147   5.256  19.123  0.00  0.00    +0.000 N 
ATOM     31  C   UNL     1       2.108   3.877  18.702  0.00  0.00    +0.000 C 
ATOM     32  C   UNL     1       1.815   5.743  20.356  0.00  0.00    +0.000 A 
ENDBRANCH  21  27
ENDBRANCH   2  18
TORSDOF 5
ENDMDL
MODEL 7
REMARK VINA RESULT:      -6.0      6.439      8.712
REMARK  Name = 
REMARK  7 active torsions:
REMARK  status: ('A' for Active; 'I' for Inactive)
REMARK    1  A    between atoms: C_1  and  N_2
REMARK    2  A    between atoms: N_2  and  C_3
REMARK    3  A    between atoms: N_2  and  C_17
REMARK    4  A    between atoms: N_6  and  C_7
REMARK    5  A    between atoms: N_10  and  C_11
REMARK    6  A    between atoms: C_25  and  C_27
REMARK    7  A    between atoms: C_27  and  C_28
REMARK                            x       y       z     vdW  Elec       q    Type
REMARK                         _______ _______ _______ _____ _____    ______ ____
ROOT
ATOM      1  C   UNL     1       6.140  14.478  21.992  0.00  0.00    +0.000 C 
ATOM      2  N   UNL     1       5.773  15.411  20.938  0.00  0.00    +0.000 N 
ENDROOT
BRANCH   2   3
ATOM      3  C   UNL     1       4.376  15.840  20.770  0.00  0.00    +0.000 C 
ATOM      4  C   UNL     1       3.401  15.307  21.823  0.00  0.00    +0.000 C 
ATOM      5  C   UNL     1       2.048  15.361  21.133  0.00  0.00    +0.000 C 
ATOM      6  C   UNL     1       2.332  14.932  19.678  0.00  0.00    +0.000 C 
ATOM      7  C   UNL     1       1.374  15.638  18.695  0.00  0.00    +0.000 C 
ATOM      8  C   UNL     1      -0.066  15.141  18.843  0.00  0.00    +0.000 C 
ATOM      9  C   UNL     1      -0.144  13.623  18.704  0.00  0.00    +0.000 C 
ATOM     10  N   UNL     1       0.784  12.975  19.631  0.00  0.00    +0.000 N 
ATOM     11  C   UNL     1       0.455  11.989  20.559  0.00  0.00    +0.000 C 
ATOM     12  O   UNL     1       1.318  11.482  21.283  0.00  0.00    +0.000 OA
ATOM     13  C   UNL     1       2.183  13.400  19.504  0.00  0.00    +0.000 C 
ATOM     14  C   UNL     1       3.805  15.348  19.428  0.00  0.00    +0.000 C 
BRANCH  11  15
ATOM     15  C   UNL     1      -1.003  11.572  20.661  0.00  0.00    +0.000 C 
BRANCH  15  16
ATOM     16  C   UNL     1      -1.490  11.649  22.099  0.00  0.00    +0.000 C 
ATOM     17  N   UNL     1      -1.893  11.712  23.291  0.00  0.00    +0.000 NA
ENDBRANCH  15  16
ENDBRANCH  11  15
ENDBRANCH   2   3
BRANCH   2  18
ATOM     18  C   UNL     1       6.715  15.856  20.013  0.00  0.00    +0.000 A 
ATOM     19  N   UNL     1       7.395  14.897  19.345  0.00  0.00    +0.000 NA
ATOM     20  C   UNL     1       8.263  15.230  18.370  0.00  0.00    +0.000 A 
ATOM     21  N   UNL     1       9.029  14.257  17.726  0.00  0.00    +0.000 N 
ATOM     22  N   UNL     1       8.503  16.491  17.996  0.00  0.00    +0.000 NA
ATOM     23  C   UNL     1       7.872  17.445  18.706  0.00  0.00    +0.000 A 
ATOM     24  C   UNL     1       6.986  17.194  19.736  0.00  0.00    +0.000 A 
ATOM     25 CL   UNL     1       6.424  18.548  20.646  0.00  0.00    +0.000 Cl
ATOM     26  H   UNL     1       9.637  14.722  17.065  0.00  0.00    +0.000 HD
BRANCH  21  27
ATOM     27  C   UNL     1       9.221  12.968  18.075  0.00  0.00    +0.000 A 
ATOM     28  C   UNL     1      10.262  12.381  18.824  0.00  0.00    +0.000 A 
ATOM     29  N   UNL     1      10.139  11.054  18.917  0.00  0.00    +0.000 NA
ATOM     30  N   UNL     1       9.000  10.801  18.252  0.00  0.00    +0.000 N 
ATOM     31  C   UNL     1       8.511   9.447  18.170  0.00  0.00    +0.000 C 
ATOM     32  C   UNL     1       8.406  11.916  17.730  0.00  0.00    +0.000 A 
ENDBRANCH  21  27
ENDBRANCH   2  18
TORSDOF 5
ENDMDL
MODEL 8
REMARK VINA RESULT:      -6.0      2.235      3.024
REMARK  Name = 
REMARK  7 active torsions:
REMARK  status: ('A' for Active; 'I' for Inactive)
REMARK    1  A    between atoms: C_1  and  N_2
REMARK    2  A    between atoms: N_2  and  C_3
REMARK    3  A    between atoms: N_2  and  C_17
REMARK    4  A    between atoms: N_6  and  C_7
REMARK    5  A    between atoms: N_10  and  C_11
REMARK    6  A    between atoms: C_25  and  C_27
REMARK    7  A    between atoms: C_27  and  C_28
REMARK                            x       y       z     vdW  Elec       q    Type
REMARK                         _______ _______ _______ _____ _____    ______ ____
ROOT
ATOM      1  C   UNL     1       3.421   8.404  17.564  0.00  0.00    +0.000 C 
ATOM      2  N   UNL     1       2.590   7.628  18.471  0.00  0.00    +0.000 N 
ENDROOT
BRANCH   2   3
ATOM      3  C   UNL     1       1.346   8.194  19.017  0.00  0.00    +0.000 C 
ATOM      4  C   UNL     1       0.613   9.168  18.091  0.00  0.00    +0.000 C 
ATOM      5  C   UNL     1      -0.214  10.022  19.035  0.00  0.00    +0.000 C 
ATOM      6  C   UNL     1       0.698  10.250  20.259  0.00  0.00    +0.000 C 
ATOM      7  C   UNL     1      -0.132  10.368  21.555  0.00  0.00    +0.000 C 
ATOM      8  C   UNL     1      -0.956  11.657  21.592  0.00  0.00    +0.000 C 
ATOM      9  C   UNL     1      -0.071  12.884  21.384  0.00  0.00    +0.000 C 
ATOM     10  N   UNL     1       0.719  12.744  20.162  0.00  0.00    +0.000 N 
ATOM     11  C   UNL     1       0.774  13.663  19.115  0.00  0.00    +0.000 C 
ATOM     12  O   UNL     1       1.495  13.467  18.132  0.00  0.00    +0.000 OA
ATOM     13  C   UNL     1       1.548  11.535  20.096  0.00  0.00    +0.000 C 
ATOM     14  C   UNL     1       1.624   9.007  20.293  0.00  0.00    +0.000 C 
BRANCH  11  15
ATOM     15  C   UNL     1      -0.096  14.905  19.219  0.00  0.00    +0.000 C 
BRANCH  15  16
ATOM     16  C   UNL     1       0.652  16.134  18.729  0.00  0.00    +0.000 C 
ATOM     17  N   UNL     1       1.273  17.153  18.324  0.00  0.00    +0.000 NA
ENDBRANCH  15  16
ENDBRANCH  11  15
ENDBRANCH   2   3
BRANCH   2  18
ATOM     18  C   UNL     1       2.988   6.366  18.908  0.00  0.00    +0.000 A 
ATOM     19  N   UNL     1       4.070   5.836  18.295  0.00  0.00    +0.000 NA
ATOM     20  C   UNL     1       4.581   4.661  18.709  0.00  0.00    +0.000 A 
ATOM     21  N   UNL     1       5.649   4.064  18.037  0.00  0.00    +0.000 N 
ATOM     22  N   UNL     1       4.079   3.957  19.729  0.00  0.00    +0.000 NA
ATOM     23  C   UNL     1       2.964   4.456  20.294  0.00  0.00    +0.000 A 
ATOM     24  C   UNL     1       2.360   5.640  19.918  0.00  0.00    +0.000 A 
ATOM     25 CL   UNL     1       0.836   6.017  20.634  0.00  0.00    +0.000 Cl
ATOM     26  H   UNL     1       5.847   3.178  18.483  0.00  0.00    +0.000 HD
BRANCH  21  27
ATOM     27  C   UNL     1       6.167   4.377  16.831  0.00  0.00    +0.000 A 
ATOM     28  C   UNL     1       7.095   5.378  16.479  0.00  0.00    +0.000 A 
ATOM     29  N   UNL     1       7.328   5.420  15.164  0.00  0.00    +0.000 NA
ATOM     30  N   UNL     1       6.569   4.421  14.684  0.00  0.00    +0.000 N 
ATOM     31  C   UNL     1       6.590   4.130  13.272  0.00  0.00    +0.000 C 
ATOM     32  C   UNL     1       5.854   3.760  15.643  0.00  0.00    +0.000 A 
ENDBRANCH  21  27
ENDBRANCH   2  18
TORSDOF 5
ENDMDL
MODEL 9
REMARK VINA RESULT:      -5.9      6.673     10.725
REMARK  Name = 
REMARK  7 active torsions:
REMARK  status: ('A' for Active; 'I' for Inactive)
REMARK    1  A    between atoms: C_1  and  N_2
REMARK    2  A    between atoms: N_2  and  C_3
REMARK    3  A    between atoms: N_2  and  C_17
REMARK    4  A    between atoms: N_6  and  C_7
REMARK    5  A    between atoms: N_10  and  C_11
REMARK    6  A    between atoms: C_25  and  C_27
REMARK    7  A    between atoms: C_27  and  C_28
REMARK                            x       y       z     vdW  Elec       q    Type
REMARK                         _______ _______ _______ _____ _____    ______ ____
ROOT
ATOM      1  C   UNL     1      -0.061  10.558  20.302  0.00  0.00    +0.000 C 
ATOM      2  N   UNL     1      -0.609  11.552  19.392  0.00  0.00    +0.000 N 
ENDROOT
BRANCH   2   3
ATOM      3  C   UNL     1       0.277  12.500  18.697  0.00  0.00    +0.000 C 
ATOM      4  C   UNL     1       1.771  12.177  18.784  0.00  0.00    +0.000 C 
ATOM      5  C   UNL     1       2.450  13.517  18.558  0.00  0.00    +0.000 C 
ATOM      6  C   UNL     1       1.568  14.536  19.311  0.00  0.00    +0.000 C 
ATOM      7  C   UNL     1       1.587  15.911  18.608  0.00  0.00    +0.000 C 
ATOM      8  C   UNL     1       2.949  16.597  18.727  0.00  0.00    +0.000 C 
ATOM      9  C   UNL     1       3.384  16.711  20.185  0.00  0.00    +0.000 C 
ATOM     10  N   UNL     1       3.343  15.403  20.837  0.00  0.00    +0.000 N 
ATOM     11  C   UNL     1       4.393  14.801  21.527  0.00  0.00    +0.000 C 
ATOM     12  O   UNL     1       4.252  13.700  22.068  0.00  0.00    +0.000 OA
ATOM     13  C   UNL     1       2.045  14.720  20.773  0.00  0.00    +0.000 C 
ATOM     14  C   UNL     1       0.149  13.912  19.295  0.00  0.00    +0.000 C 
BRANCH  11  15
ATOM     15  C   UNL     1       5.722  15.538  21.575  0.00  0.00    +0.000 C 
BRANCH  15  16
ATOM     16  C   UNL     1       6.687  14.984  20.540  0.00  0.00    +0.000 C 
ATOM     17  N   UNL     1       7.488  14.525  19.682  0.00  0.00    +0.000 NA
ENDBRANCH  15  16
ENDBRANCH  11  15
ENDBRANCH   2   3
BRANCH   2  18
ATOM     18  C   UNL     1      -1.985  11.685  19.217  0.00  0.00    +0.000 A 
ATOM     19  N   UNL     1      -2.643  12.376  20.176  0.00  0.00    +0.000 NA
ATOM     20  C   UNL     1      -3.959  12.632  20.049  0.00  0.00    +0.000 A 
ATOM     21  N   UNL     1      -4.668  13.274  21.066  0.00  0.00    +0.000 N 
ATOM     22  N   UNL     1      -4.688  12.243  18.998  0.00  0.00    +0.000 NA
ATOM     23  C   UNL     1      -4.043  11.502  18.078  0.00  0.00    +0.000 A 
ATOM     24  C   UNL     1      -2.702  11.172  18.140  0.00  0.00    +0.000 A 
ATOM     25 CL   UNL     1      -2.103  10.060  16.965  0.00  0.00    +0.000 Cl
ATOM     26  H   UNL     1      -5.639  13.329  20.787  0.00  0.00    +0.000 HD
BRANCH  21  27
ATOM     27  C   UNL     1      -4.285  13.519  22.336  0.00  0.00    +0.000 A 
ATOM     28  C   UNL     1      -4.222  12.649  23.443  0.00  0.00    +0.000 A 
ATOM     29  N   UNL     1      -3.844  13.271  24.563  0.00  0.00    +0.000 NA
ATOM     30  N   UNL     1      -3.634  14.535  24.157  0.00  0.00    +0.000 N 
ATOM     31  C   UNL     1      -3.168  15.516  25.105  0.00  0.00    +0.000 C 
ATOM     32  C   UNL     1      -3.881  14.737  22.828  0.00  0.00    +0.000 A 
ENDBRANCH  21  27
ENDBRANCH   2  18
TORSDOF 5
ENDMDL
