MODEL 1
REMARK VINA RESULT:      -7.8      0.000      0.000
REMARK  Name = 
REMARK  1 active torsions:
REMARK  status: ('A' for Active; 'I' for Inactive)
REMARK    1  A    between atoms: C_7  and  N_8
REMARK                            x       y       z     vdW  Elec       q    Type
REMARK                         _______ _______ _______ _____ _____    ______ ____
ROOT
ATOM      1  N   UNL     1       5.189   4.466  18.915  0.00  0.00    +0.000 N 
ATOM      2  N   UNL     1       6.331   4.770  19.596  0.00  0.00    +0.000 NA
ATOM      3  N   UNL     1       7.330   4.907  18.732  0.00  0.00    +0.000 NA
ATOM      4  C   UNL     1       6.833   4.704  17.482  0.00  0.00    +0.000 A 
ATOM      5  C   UNL     1       7.441   4.743  16.222  0.00  0.00    +0.000 A 
ATOM      6  C   UNL     1       6.627   4.501  15.114  0.00  0.00    +0.000 A 
ATOM      7  C   UNL     1       5.279   4.231  15.309  0.00  0.00    +0.000 A 
ATOM      8  N   UNL     1       4.653   4.175  16.506  0.00  0.00    +0.000 NA
ATOM      9  C   UNL     1       5.476   4.419  17.553  0.00  0.00    +0.000 A 
ENDROOT
BRANCH   1  16
ATOM     10  F   UNL     1       1.098   6.112  20.854  0.00  0.00    +0.000 F 
ATOM     11  C   UNL     1       1.897   5.079  20.556  0.00  0.00    +0.000 A 
ATOM     12  C   UNL     1       1.504   3.792  20.899  0.00  0.00    +0.000 A 
ATOM     13  C   UNL     1       2.336   2.723  20.580  0.00  0.00    +0.000 A 
ATOM     14  C   UNL     1       3.548   2.949  19.923  0.00  0.00    +0.000 A 
ATOM     15  F   UNL     1       4.302   1.874  19.656  0.00  0.00    +0.000 F 
ATOM     16  C   UNL     1       3.952   4.246  19.578  0.00  0.00    +0.000 A 
ATOM     17  C   UNL     1       3.104   5.317  19.904  0.00  0.00    +0.000 A 
ENDBRANCH   1  16
TORSDOF 1
ENDMDL
MODEL 2
REMARK VINA RESULT:      -7.7      2.710      5.541
REMARK  Name = 
REMARK  1 active torsions:
REMARK  status: ('A' for Active; 'I' for Inactive)
REMARK    1  A    between atoms: C_7  and  N_8
REMARK                            x       y       z     vdW  Elec       q    Type
REMARK                         _______ _______ _______ _____ _____    ______ ____
ROOT
ATOM      1  N   UNL     1       4.097   4.612  17.946  0.00  0.00    +0.000 N 
ATOM      2  N   UNL     1       3.749   3.870  16.857  0.00  0.00    +0.000 NA
ATOM      3  N   UNL     1       2.594   3.259  17.096  0.00  0.00    +0.000 NA
ATOM      4  C   UNL     1       2.183   3.617  18.342  0.00  0.00    +0.000 A 
ATOM      5  C   UNL     1       1.042   3.279  19.079  0.00  0.00    +0.000 A 
ATOM      6  C   UNL     1       0.911   3.843  20.349  0.00  0.00    +0.000 A 
ATOM      7  C   UNL     1       1.904   4.694  20.818  0.00  0.00    +0.000 A 
ATOM      8  N   UNL     1       3.024   5.040  20.145  0.00  0.00    +0.000 NA
ATOM      9  C   UNL     1       3.110   4.475  18.919  0.00  0.00    +0.000 A 
ENDROOT
BRANCH   1  16
ATOM     10  F   UNL     1       8.517   5.408  19.689  0.00  0.00    +0.000 F 
ATOM     11  C   UNL     1       7.520   5.769  18.870  0.00  0.00    +0.000 A 
ATOM     12  C   UNL     1       7.672   6.887  18.062  0.00  0.00    +0.000 A 
ATOM     13  C   UNL     1       6.635   7.252  17.209  0.00  0.00    +0.000 A 
ATOM     14  C   UNL     1       5.459   6.498  17.171  0.00  0.00    +0.000 A 
ATOM     15  F   UNL     1       4.499   6.913  16.334  0.00  0.00    +0.000 F 
ATOM     16  C   UNL     1       5.298   5.370  17.988  0.00  0.00    +0.000 A 
ATOM     17  C   UNL     1       6.352   5.011  18.844  0.00  0.00    +0.000 A 
ENDBRANCH   1  16
TORSDOF 1
ENDMDL
MODEL 3
REMARK VINA RESULT:      -7.6      2.194      3.635
REMARK  Name = 
REMARK  1 active torsions:
REMARK  status: ('A' for Active; 'I' for Inactive)
REMARK    1  A    between atoms: C_7  and  N_8
REMARK                            x       y       z     vdW  Elec       q    Type
REMARK                         _______ _______ _______ _____ _____    ______ ____
ROOT
ATOM      1  N   UNL     1       4.724   5.243  17.335  0.00  0.00    +0.000 N 
ATOM      2  N   UNL     1       4.613   5.968  16.186  0.00  0.00    +0.000 NA
ATOM      3  N   UNL     1       5.636   6.810  16.099  0.00  0.00    +0.000 NA
ATOM      4  C   UNL     1       6.425   6.621  17.192  0.00  0.00    +0.000 A 
ATOM      5  C   UNL     1       7.623   7.226  17.590  0.00  0.00    +0.000 A 
ATOM      6  C   UNL     1       8.197   6.781  18.782  0.00  0.00    +0.000 A 
ATOM      7  C   UNL     1       7.562   5.782  19.509  0.00  0.00    +0.000 A 
ATOM      8  N   UNL     1       6.402   5.178  19.167  0.00  0.00    +0.000 NA
ATOM      9  C   UNL     1       5.881   5.635  18.004  0.00  0.00    +0.000 A 
ENDROOT
BRANCH   1  16
ATOM     10  F   UNL     1       3.526   0.701  18.402  0.00  0.00    +0.000 F 
ATOM     11  C   UNL     1       3.162   1.979  18.239  0.00  0.00    +0.000 A 
ATOM     12  C   UNL     1       1.837   2.341  18.439  0.00  0.00    +0.000 A 
ATOM     13  C   UNL     1       1.468   3.673  18.274  0.00  0.00    +0.000 A 
ATOM     14  C   UNL     1       2.423   4.627  17.914  0.00  0.00    +0.000 A 
ATOM     15  F   UNL     1       1.994   5.888  17.763  0.00  0.00    +0.000 F 
ATOM     16  C   UNL     1       3.762   4.266  17.706  0.00  0.00    +0.000 A 
ATOM     17  C   UNL     1       4.123   2.920  17.876  0.00  0.00    +0.000 A 
ENDBRANCH   1  16
TORSDOF 1
ENDMDL
MODEL 4
REMARK VINA RESULT:      -7.6      2.408      5.302
REMARK  Name = 
REMARK  1 active torsions:
REMARK  status: ('A' for Active; 'I' for Inactive)
REMARK    1  A    between atoms: C_7  and  N_8
REMARK                            x       y       z     vdW  Elec       q    Type
REMARK                         _______ _______ _______ _____ _____    ______ ____
ROOT
ATOM      1  N   UNL     1       4.777   3.937  19.247  0.00  0.00    +0.000 N 
ATOM      2  N   UNL     1       5.209   2.701  19.628  0.00  0.00    +0.000 NA
ATOM      3  N   UNL     1       4.247   2.093  20.313  0.00  0.00    +0.000 NA
ATOM      4  C   UNL     1       3.179   2.934  20.367  0.00  0.00    +0.000 A 
ATOM      5  C   UNL     1       1.912   2.792  20.946  0.00  0.00    +0.000 A 
ATOM      6  C   UNL     1       1.023   3.859  20.803  0.00  0.00    +0.000 A 
ATOM      7  C   UNL     1       1.429   4.993  20.112  0.00  0.00    +0.000 A 
ATOM      8  N   UNL     1       2.643   5.175  19.546  0.00  0.00    +0.000 NA
ATOM      9  C   UNL     1       3.473   4.118  19.704  0.00  0.00    +0.000 A 
ENDROOT
BRANCH   1  16
ATOM     10  F   UNL     1       8.514   6.962  18.958  0.00  0.00    +0.000 F 
ATOM     11  C   UNL     1       7.479   6.352  18.368  0.00  0.00    +0.000 A 
ATOM     12  C   UNL     1       7.218   6.597  17.026  0.00  0.00    +0.000 A 
ATOM     13  C   UNL     1       6.144   5.955  16.417  0.00  0.00    +0.000 A 
ATOM     14  C   UNL     1       5.343   5.076  17.152  0.00  0.00    +0.000 A 
ATOM     15  F   UNL     1       4.321   4.502  16.504  0.00  0.00    +0.000 F 
ATOM     16  C   UNL     1       5.599   4.828  18.508  0.00  0.00    +0.000 A 
ATOM     17  C   UNL     1       6.686   5.481  19.111  0.00  0.00    +0.000 A 
ENDBRANCH   1  16
TORSDOF 1
ENDMDL
MODEL 5
REMARK VINA RESULT:      -7.5      1.053      1.994
REMARK  Name = 
REMARK  1 active torsions:
REMARK  status: ('A' for Active; 'I' for Inactive)
REMARK    1  A    between atoms: C_7  and  N_8
REMARK                            x       y       z     vdW  Elec       q    Type
REMARK                         _______ _______ _______ _____ _____    ______ ____
ROOT
ATOM      1  N   UNL     1       5.055   4.623  18.909  0.00  0.00    +0.000 N 
ATOM      2  N   UNL     1       6.178   4.867  19.643  0.00  0.00    +0.000 NA
ATOM      3  N   UNL     1       7.228   4.916  18.832  0.00  0.00    +0.000 NA
ATOM      4  C   UNL     1       6.785   4.714  17.562  0.00  0.00    +0.000 A 
ATOM      5  C   UNL     1       7.458   4.681  16.336  0.00  0.00    +0.000 A 
ATOM      6  C   UNL     1       6.689   4.465  15.191  0.00  0.00    +0.000 A 
ATOM      7  C   UNL     1       5.317   4.290  15.319  0.00  0.00    +0.000 A 
ATOM      8  N   UNL     1       4.628   4.307  16.482  0.00  0.00    +0.000 NA
ATOM      9  C   UNL     1       5.410   4.522  17.566  0.00  0.00    +0.000 A 
ENDROOT
BRANCH   1  16
ATOM     10  F   UNL     1       1.636   1.991  21.051  0.00  0.00    +0.000 F 
ATOM     11  C   UNL     1       2.055   3.174  20.583  0.00  0.00    +0.000 A 
ATOM     12  C   UNL     1       1.225   4.282  20.694  0.00  0.00    +0.000 A 
ATOM     13  C   UNL     1       1.669   5.510  20.212  0.00  0.00    +0.000 A 
ATOM     14  C   UNL     1       2.934   5.619  19.627  0.00  0.00    +0.000 A 
ATOM     15  F   UNL     1       3.291   6.829  19.177  0.00  0.00    +0.000 F 
ATOM     16  C   UNL     1       3.773   4.503  19.509  0.00  0.00    +0.000 A 
ATOM     17  C   UNL     1       3.315   3.270  20.000  0.00  0.00    +0.000 A 
ENDBRANCH   1  16
TORSDOF 1
ENDMDL
MODEL 6
REMARK VINA RESULT:      -7.5      2.303      5.429
REMARK  Name = 
REMARK  1 active torsions:
REMARK  status: ('A' for Active; 'I' for Inactive)
REMARK    1  A    between atoms: C_7  and  N_8
REMARK                            x       y       z     vdW  Elec       q    Type
REMARK                         _______ _______ _______ _____ _____    ______ ____
ROOT
ATOM      1  N   UNL     1       4.349   3.693  18.772  0.00  0.00    +0.000 N 
ATOM      2  N   UNL     1       5.263   2.933  19.439  0.00  0.00    +0.000 NA
ATOM      3  N   UNL     1       4.683   2.380  20.498  0.00  0.00    +0.000 NA
ATOM      4  C   UNL     1       3.380   2.774  20.512  0.00  0.00    +0.000 A 
ATOM      5  C   UNL     1       2.328   2.477  21.386  0.00  0.00    +0.000 A 
ATOM      6  C   UNL     1       1.084   3.041  21.102  0.00  0.00    +0.000 A 
ATOM      7  C   UNL     1       0.950   3.861  19.989  0.00  0.00    +0.000 A 
ATOM      8  N   UNL     1       1.939   4.180  19.124  0.00  0.00    +0.000 NA
ATOM      9  C   UNL     1       3.127   3.610  19.433  0.00  0.00    +0.000 A 
ENDROOT
BRANCH   1  16
ATOM     10  F   UNL     1       5.860   3.851  14.201  0.00  0.00    +0.000 F 
ATOM     11  C   UNL     1       5.450   4.496  15.301  0.00  0.00    +0.000 A 
ATOM     12  C   UNL     1       5.357   5.881  15.283  0.00  0.00    +0.000 A 
ATOM     13  C   UNL     1       4.924   6.544  16.428  0.00  0.00    +0.000 A 
ATOM     14  C   UNL     1       4.590   5.820  17.575  0.00  0.00    +0.000 A 
ATOM     15  F   UNL     1       4.191   6.524  18.643  0.00  0.00    +0.000 F 
ATOM     16  C   UNL     1       4.687   4.421  17.600  0.00  0.00    +0.000 A 
ATOM     17  C   UNL     1       5.123   3.763  16.439  0.00  0.00    +0.000 A 
ENDBRANCH   1  16
TORSDOF 1
ENDMDL
MODEL 7
REMARK VINA RESULT:      -7.5      2.269      5.462
REMARK  Name = 
REMARK  1 active torsions:
REMARK  status: ('A' for Active; 'I' for Inactive)
REMARK    1  A    between atoms: C_7  and  N_8
REMARK                            x       y       z     vdW  Elec       q    Type
REMARK                         _______ _______ _______ _____ _____    ______ ____
ROOT
ATOM      1  N   UNL     1       3.878   5.068  18.499  0.00  0.00    +0.000 N 
ATOM      2  N   UNL     1       3.491   6.334  18.826  0.00  0.00    +0.000 NA
ATOM      3  N   UNL     1       2.414   6.276  19.600  0.00  0.00    +0.000 NA
ATOM      4  C   UNL     1       2.106   4.964  19.788  0.00  0.00    +0.000 A 
ATOM      5  C   UNL     1       1.089   4.344  20.523  0.00  0.00    +0.000 A 
ATOM      6  C   UNL     1       1.063   2.948  20.524  0.00  0.00    +0.000 A 
ATOM      7  C   UNL     1       2.026   2.252  19.804  0.00  0.00    +0.000 A 
ATOM      8  N   UNL     1       3.019   2.809  19.077  0.00  0.00    +0.000 NA
ATOM      9  C   UNL     1       3.010   4.162  19.105  0.00  0.00    +0.000 A 
ENDROOT
BRANCH   1  16
ATOM     10  F   UNL     1       5.769   3.829  14.246  0.00  0.00    +0.000 F 
ATOM     11  C   UNL     1       5.947   4.187  15.524  0.00  0.00    +0.000 A 
ATOM     12  C   UNL     1       7.236   4.310  16.025  0.00  0.00    +0.000 A 
ATOM     13  C   UNL     1       7.412   4.688  17.352  0.00  0.00    +0.000 A 
ATOM     14  C   UNL     1       6.303   4.941  18.164  0.00  0.00    +0.000 A 
ATOM     15  F   UNL     1       6.548   5.291  19.434  0.00  0.00    +0.000 F 
ATOM     16  C   UNL     1       4.999   4.814  17.665  0.00  0.00    +0.000 A 
ATOM     17  C   UNL     1       4.833   4.432  16.324  0.00  0.00    +0.000 A 
ENDBRANCH   1  16
TORSDOF 1
ENDMDL
MODEL 8
REMARK VINA RESULT:      -7.4      1.850      3.237
REMARK  Name = 
REMARK  1 active torsions:
REMARK  status: ('A' for Active; 'I' for Inactive)
REMARK    1  A    between atoms: C_7  and  N_8
REMARK                            x       y       z     vdW  Elec       q    Type
REMARK                         _______ _______ _______ _____ _____    ______ ____
ROOT
ATOM      1  N   UNL     1       4.140   5.483  18.251  0.00  0.00    +0.000 N 
ATOM      2  N   UNL     1       3.877   6.110  17.069  0.00  0.00    +0.000 NA
ATOM      3  N   UNL     1       4.982   6.707  16.637  0.00  0.00    +0.000 NA
ATOM      4  C   UNL     1       5.971   6.456  17.536  0.00  0.00    +0.000 A 
ATOM      5  C   UNL     1       7.320   6.829  17.563  0.00  0.00    +0.000 A 
ATOM      6  C   UNL     1       8.084   6.383  18.643  0.00  0.00    +0.000 A 
ATOM      7  C   UNL     1       7.480   5.609  19.626  0.00  0.00    +0.000 A 
ATOM      8  N   UNL     1       6.182   5.233  19.644  0.00  0.00    +0.000 NA
ATOM      9  C   UNL     1       5.479   5.683  18.579  0.00  0.00    +0.000 A 
ENDROOT
BRANCH   1  16
ATOM     10  F   UNL     1       1.774   1.404  19.237  0.00  0.00    +0.000 F 
ATOM     11  C   UNL     1       1.950   2.714  19.453  0.00  0.00    +0.000 A 
ATOM     12  C   UNL     1       1.148   3.365  20.381  0.00  0.00    +0.000 A 
ATOM     13  C   UNL     1       1.340   4.725  20.605  0.00  0.00    +0.000 A 
ATOM     14  C   UNL     1       2.330   5.419  19.904  0.00  0.00    +0.000 A 
ATOM     15  F   UNL     1       2.452   6.728  20.164  0.00  0.00    +0.000 F 
ATOM     16  C   UNL     1       3.140   4.768  18.963  0.00  0.00    +0.000 A 
ATOM     17  C   UNL     1       2.937   3.396  18.746  0.00  0.00    +0.000 A 
ENDBRANCH   1  16
TORSDOF 1
ENDMDL
MODEL 9
REMARK VINA RESULT:      -7.4      1.883      2.727
REMARK  Name = 
REMARK  1 active torsions:
REMARK  status: ('A' for Active; 'I' for Inactive)
REMARK    1  A    between atoms: C_7  and  N_8
REMARK                            x       y       z     vdW  Elec       q    Type
REMARK                         _______ _______ _______ _____ _____    ______ ____
ROOT
ATOM      1  N   UNL     1       4.381   5.274  17.870  0.00  0.00    +0.000 N 
ATOM      2  N   UNL     1       4.187   5.978  16.718  0.00  0.00    +0.000 NA
ATOM      3  N   UNL     1       5.260   6.722  16.476  0.00  0.00    +0.000 NA
ATOM      4  C   UNL     1       6.162   6.490  17.468  0.00  0.00    +0.000 A 
ATOM      5  C   UNL     1       7.448   6.994  17.693  0.00  0.00    +0.000 A 
ATOM      6  C   UNL     1       8.128   6.529  18.820  0.00  0.00    +0.000 A 
ATOM      7  C   UNL     1       7.506   5.609  19.655  0.00  0.00    +0.000 A 
ATOM      8  N   UNL     1       6.264   5.103  19.481  0.00  0.00    +0.000 NA
ATOM      9  C   UNL     1       5.642   5.577  18.376  0.00  0.00    +0.000 A 
ENDROOT
BRANCH   1  16
ATOM     10  F   UNL     1       0.503   4.448  20.606  0.00  0.00    +0.000 F 
ATOM     11  C   UNL     1       1.443   3.985  19.772  0.00  0.00    +0.000 A 
ATOM     12  C   UNL     1       1.441   2.642  19.421  0.00  0.00    +0.000 A 
ATOM     13  C   UNL     1       2.418   2.169  18.549  0.00  0.00    +0.000 A 
ATOM     14  C   UNL     1       3.383   3.040  18.037  0.00  0.00    +0.000 A 
ATOM     15  F   UNL     1       4.297   2.514  17.211  0.00  0.00    +0.000 F 
ATOM     16  C   UNL     1       3.392   4.397  18.392  0.00  0.00    +0.000 A 
ATOM     17  C   UNL     1       2.402   4.863  19.271  0.00  0.00    +0.000 A 
ENDBRANCH   1  16
TORSDOF 1
ENDMDL
