MODEL 1
REMARK VINA RESULT:      -8.7      0.000      0.000
REMARK  Name = 
REMARK  6 active torsions:
REMARK  status: ('A' for Active; 'I' for Inactive)
REMARK    1  A    between atoms: C_1  and  C_2
REMARK    2  A    between atoms: C_3  and  C_4
REMARK    3  A    between atoms: C_4  and  C_6
REMARK    4  A    between atoms: N_15  and  C_16
REMARK    5  A    between atoms: N_23  and  C_24
REMARK    6  A    between atoms: C_24  and  C_25
REMARK                            x       y       z     vdW  Elec       q    Type
REMARK                         _______ _______ _______ _____ _____    ______ ____
ROOT
ATOM      1  C   UNL     1       0.686   8.472  21.558  0.00  0.00    +0.000 C 
ATOM      2  C   UNL     1       1.284   8.338  20.187  0.00  0.00    +0.000 A 
ATOM      3  C   UNL     1       1.275   9.256  19.197  0.00  0.00    +0.000 A 
ATOM      4  C   UNL     1       2.200   8.716  18.157  0.00  0.00    +0.000 A 
ATOM      5  O   UNL     1       2.450   9.276  17.100  0.00  0.00    +0.000 OA
ATOM      6  N   UNL     1       2.636   7.456  18.603  0.00  0.00    +0.000 N 
ATOM      7  N   UNL     1       1.985   7.172  19.831  0.00  0.00    +0.000 N 
ENDROOT
BRANCH   6   8
ATOM      8  C   UNL     1       3.421   6.546  17.850  0.00  0.00    +0.000 A 
ATOM      9  C   UNL     1       4.727   6.896  17.467  0.00  0.00    +0.000 A 
ATOM     10  C   UNL     1       5.549   5.994  16.779  0.00  0.00    +0.000 A 
ATOM     11  C   UNL     1       5.082   4.728  16.464  0.00  0.00    +0.000 A 
ATOM     12 CL   UNL     1       6.098   3.608  15.646  0.00  0.00    +0.000 Cl
ATOM     13  C   UNL     1       3.784   4.367  16.803  0.00  0.00    +0.000 A 
ATOM     14  C   UNL     1       2.959   5.279  17.473  0.00  0.00    +0.000 A 
ENDBRANCH   6   8
BRANCH   3  15
ATOM     15  C   UNL     1       0.623  10.584  19.088  0.00  0.00    +0.000 C 
ATOM     16  O   UNL     1       1.227  11.618  19.358  0.00  0.00    +0.000 OA
BRANCH  15  17
ATOM     17  C   UNL     1      -0.807  10.688  18.679  0.00  0.00    +0.000 A 
ATOM     18  C   UNL     1      -1.232   9.931  17.575  0.00  0.00    +0.000 A 
ATOM     19  C   UNL     1      -2.524  10.091  17.064  0.00  0.00    +0.000 A 
ATOM     20  C   UNL     1      -3.393  11.003  17.658  0.00  0.00    +0.000 A 
ATOM     21 CL   UNL     1      -4.949  11.270  16.979  0.00  0.00    +0.000 Cl
ATOM     22  C   UNL     1      -3.003  11.710  18.795  0.00  0.00    +0.000 A 
ATOM     23  C   UNL     1      -1.722  11.529  19.325  0.00  0.00    +0.000 A 
ENDBRANCH  15  17
ENDBRANCH   3  15
BRANCH   7  24
ATOM     24  C   UNL     1       2.578   6.244  20.808  0.00  0.00    +0.000 C 
BRANCH  24  25
ATOM     25  C   UNL     1       2.231   4.789  20.514  0.00  0.00    +0.000 A 
ATOM     26  C   UNL     1       0.926   4.342  20.248  0.00  0.00    +0.000 A 
ATOM     27  C   UNL     1       0.671   3.005  19.933  0.00  0.00    +0.000 A 
ATOM     28  C   UNL     1       1.716   2.087  19.881  0.00  0.00    +0.000 A 
ATOM     29  C   UNL     1       3.015   2.505  20.156  0.00  0.00    +0.000 A 
ATOM     30  C   UNL     1       3.271   3.842  20.479  0.00  0.00    +0.000 A 
ENDBRANCH  24  25
ENDBRANCH   7  24
TORSDOF 5
ENDMDL
MODEL 2
REMARK VINA RESULT:      -8.5      0.275      1.267
REMARK  Name = 
REMARK  6 active torsions:
REMARK  status: ('A' for Active; 'I' for Inactive)
REMARK    1  A    between atoms: C_1  and  C_2
REMARK    2  A    between atoms: C_3  and  C_4
REMARK    3  A    between atoms: C_4  and  C_6
REMARK    4  A    between atoms: N_15  and  C_16
REMARK    5  A    between atoms: N_23  and  C_24
REMARK    6  A    between atoms: C_24  and  C_25
REMARK                            x       y       z     vdW  Elec       q    Type
REMARK                         _______ _______ _______ _____ _____    ______ ____
ROOT
ATOM      1  C   UNL     1       0.458   8.617  21.560  0.00  0.00    +0.000 C 
ATOM      2  C   UNL     1       1.136   8.441  20.231  0.00  0.00    +0.000 A 
ATOM      3  C   UNL     1       1.199   9.335  19.221  0.00  0.00    +0.000 A 
ATOM      4  C   UNL     1       2.178   8.757  18.252  0.00  0.00    +0.000 A 
ATOM      5  O   UNL     1       2.499   9.288  17.199  0.00  0.00    +0.000 OA
ATOM      6  N   UNL     1       2.568   7.504  18.754  0.00  0.00    +0.000 N 
ATOM      7  N   UNL     1       1.840   7.258  19.947  0.00  0.00    +0.000 N 
ENDROOT
BRANCH   6   8
ATOM      8  C   UNL     1       3.385   6.566  18.073  0.00  0.00    +0.000 A 
ATOM      9  C   UNL     1       2.833   5.358  17.614  0.00  0.00    +0.000 A 
ATOM     10  C   UNL     1       3.599   4.440  16.882  0.00  0.00    +0.000 A 
ATOM     11  C   UNL     1       4.927   4.715  16.595  0.00  0.00    +0.000 A 
ATOM     12 CL   UNL     1       5.861   3.606  15.672  0.00  0.00    +0.000 Cl
ATOM     13  C   UNL     1       5.506   5.887  17.064  0.00  0.00    +0.000 A 
ATOM     14  C   UNL     1       4.743   6.792  17.812  0.00  0.00    +0.000 A 
ENDBRANCH   6   8
BRANCH   3  15
ATOM     15  C   UNL     1       0.573  10.667  19.039  0.00  0.00    +0.000 C 
ATOM     16  O   UNL     1       1.188  11.701  19.284  0.00  0.00    +0.000 OA
BRANCH  15  17
ATOM     17  C   UNL     1      -0.844  10.777  18.588  0.00  0.00    +0.000 A 
ATOM     18  C   UNL     1      -1.648  11.763  19.181  0.00  0.00    +0.000 A 
ATOM     19  C   UNL     1      -3.016  11.824  18.898  0.00  0.00    +0.000 A 
ATOM     20  C   UNL     1      -3.580  10.903  18.018  0.00  0.00    +0.000 A 
ATOM     21 CL   UNL     1      -5.276  10.917  17.735  0.00  0.00    +0.000 Cl
ATOM     22  C   UNL     1      -2.778   9.964  17.372  0.00  0.00    +0.000 A 
ATOM     23  C   UNL     1      -1.405   9.920  17.632  0.00  0.00    +0.000 A 
ENDBRANCH  15  17
ENDBRANCH   3  15
BRANCH   7  24
ATOM     24  C   UNL     1       2.361   6.348  20.980  0.00  0.00    +0.000 C 
BRANCH  24  25
ATOM     25  C   UNL     1       2.103   4.883  20.648  0.00  0.00    +0.000 A 
ATOM     26  C   UNL     1       0.832   4.371  20.339  0.00  0.00    +0.000 A 
ATOM     27  C   UNL     1       0.660   3.028  19.991  0.00  0.00    +0.000 A 
ATOM     28  C   UNL     1       1.756   2.171  19.949  0.00  0.00    +0.000 A 
ATOM     29  C   UNL     1       3.022   2.654  20.266  0.00  0.00    +0.000 A 
ATOM     30  C   UNL     1       3.194   3.996  20.622  0.00  0.00    +0.000 A 
ENDBRANCH  24  25
ENDBRANCH   7  24
TORSDOF 5
ENDMDL
MODEL 3
REMARK VINA RESULT:      -8.5      0.196      1.253
REMARK  Name = 
REMARK  6 active torsions:
REMARK  status: ('A' for Active; 'I' for Inactive)
REMARK    1  A    between atoms: C_1  and  C_2
REMARK    2  A    between atoms: C_3  and  C_4
REMARK    3  A    between atoms: C_4  and  C_6
REMARK    4  A    between atoms: N_15  and  C_16
REMARK    5  A    between atoms: N_23  and  C_24
REMARK    6  A    between atoms: C_24  and  C_25
REMARK                            x       y       z     vdW  Elec       q    Type
REMARK                         _______ _______ _______ _____ _____    ______ ____
ROOT
ATOM      1  C   UNL     1       0.463   8.638  21.463  0.00  0.00    +0.000 C 
ATOM      2  C   UNL     1       1.145   8.439  20.139  0.00  0.00    +0.000 A 
ATOM      3  C   UNL     1       1.204   9.312  19.111  0.00  0.00    +0.000 A 
ATOM      4  C   UNL     1       2.189   8.721  18.156  0.00  0.00    +0.000 A 
ATOM      5  O   UNL     1       2.508   9.231  17.093  0.00  0.00    +0.000 OA
ATOM      6  N   UNL     1       2.587   7.481  18.685  0.00  0.00    +0.000 N 
ATOM      7  N   UNL     1       1.859   7.256  19.882  0.00  0.00    +0.000 N 
ENDROOT
BRANCH   6   8
ATOM      8  C   UNL     1       3.412   6.535  18.025  0.00  0.00    +0.000 A 
ATOM      9  C   UNL     1       2.860   5.333  17.552  0.00  0.00    +0.000 A 
ATOM     10  C   UNL     1       3.635   4.407  16.840  0.00  0.00    +0.000 A 
ATOM     11  C   UNL     1       4.973   4.668  16.588  0.00  0.00    +0.000 A 
ATOM     12 CL   UNL     1       5.920   3.550  15.690  0.00  0.00    +0.000 Cl
ATOM     13  C   UNL     1       5.552   5.835  17.072  0.00  0.00    +0.000 A 
ATOM     14  C   UNL     1       4.778   6.747  17.800  0.00  0.00    +0.000 A 
ENDBRANCH   6   8
BRANCH   3  15
ATOM     15  C   UNL     1       0.569  10.636  18.900  0.00  0.00    +0.000 C 
ATOM     16  O   UNL     1       1.209  11.677  19.010  0.00  0.00    +0.000 OA
BRANCH  15  17
ATOM     17  C   UNL     1      -0.885  10.730  18.585  0.00  0.00    +0.000 A 
ATOM     18  C   UNL     1      -1.388   9.924  17.552  0.00  0.00    +0.000 A 
ATOM     19  C   UNL     1      -2.711  10.068  17.123  0.00  0.00    +0.000 A 
ATOM     20  C   UNL     1      -3.533  11.015  17.729  0.00  0.00    +0.000 A 
ATOM     21 CL   UNL     1      -5.132  11.260  17.145  0.00  0.00    +0.000 Cl
ATOM     22  C   UNL     1      -3.064  11.774  18.800  0.00  0.00    +0.000 A 
ATOM     23  C   UNL     1      -1.751  11.610  19.250  0.00  0.00    +0.000 A 
ENDBRANCH  15  17
ENDBRANCH   3  15
BRANCH   7  24
ATOM     24  C   UNL     1       2.384   6.371  20.934  0.00  0.00    +0.000 C 
BRANCH  24  25
ATOM     25  C   UNL     1       2.198   4.896  20.601  0.00  0.00    +0.000 A 
ATOM     26  C   UNL     1       3.248   3.962  20.605  0.00  0.00    +0.000 A 
ATOM     27  C   UNL     1       3.013   2.610  20.342  0.00  0.00    +0.000 A 
ATOM     28  C   UNL     1       1.722   2.166  20.066  0.00  0.00    +0.000 A 
ATOM     29  C   UNL     1       0.670   3.076  20.042  0.00  0.00    +0.000 A 
ATOM     30  C   UNL     1       0.905   4.431  20.297  0.00  0.00    +0.000 A 
ENDBRANCH  24  25
ENDBRANCH   7  24
TORSDOF 5
ENDMDL
MODEL 4
REMARK VINA RESULT:      -8.0      0.656      1.283
REMARK  Name = 
REMARK  6 active torsions:
REMARK  status: ('A' for Active; 'I' for Inactive)
REMARK    1  A    between atoms: C_1  and  C_2
REMARK    2  A    between atoms: C_3  and  C_4
REMARK    3  A    between atoms: C_4  and  C_6
REMARK    4  A    between atoms: N_15  and  C_16
REMARK    5  A    between atoms: N_23  and  C_24
REMARK    6  A    between atoms: C_24  and  C_25
REMARK                            x       y       z     vdW  Elec       q    Type
REMARK                         _______ _______ _______ _____ _____    ______ ____
ROOT
ATOM      1  C   UNL     1       1.074   8.076  21.575  0.00  0.00    +0.000 C 
ATOM      2  C   UNL     1       1.601   8.062  20.168  0.00  0.00    +0.000 A 
ATOM      3  C   UNL     1       1.511   9.049  19.252  0.00  0.00    +0.000 A 
ATOM      4  C   UNL     1       2.394   8.616  18.128  0.00  0.00    +0.000 A 
ATOM      5  O   UNL     1       2.570   9.259  17.104  0.00  0.00    +0.000 OA
ATOM      6  N   UNL     1       2.889   7.342  18.455  0.00  0.00    +0.000 N 
ATOM      7  N   UNL     1       2.314   6.948  19.691  0.00  0.00    +0.000 N 
ENDROOT
BRANCH   6   8
ATOM      8  C   UNL     1       3.659   6.516  17.597  0.00  0.00    +0.000 A 
ATOM      9  C   UNL     1       4.844   7.008  17.026  0.00  0.00    +0.000 A 
ATOM     10  C   UNL     1       5.659   6.196  16.227  0.00  0.00    +0.000 A 
ATOM     11  C   UNL     1       5.303   4.877  15.985  0.00  0.00    +0.000 A 
ATOM     12 CL   UNL     1       6.314   3.868  15.030  0.00  0.00    +0.000 Cl
ATOM     13  C   UNL     1       4.120   4.374  16.512  0.00  0.00    +0.000 A 
ATOM     14  C   UNL     1       3.299   5.196  17.294  0.00  0.00    +0.000 A 
ENDBRANCH   6   8
BRANCH   3  15
ATOM     15  C   UNL     1       0.815  10.359  19.275  0.00  0.00    +0.000 C 
ATOM     16  O   UNL     1       1.271  11.313  19.899  0.00  0.00    +0.000 OA
BRANCH  15  17
ATOM     17  C   UNL     1      -0.484  10.533  18.565  0.00  0.00    +0.000 A 
ATOM     18  C   UNL     1      -1.313  11.594  18.962  0.00  0.00    +0.000 A 
ATOM     19  C   UNL     1      -2.598  11.725  18.428  0.00  0.00    +0.000 A 
ATOM     20  C   UNL     1      -3.054  10.798  17.493  0.00  0.00    +0.000 A 
ATOM     21 CL   UNL     1      -4.665  10.901  16.900  0.00  0.00    +0.000 Cl
ATOM     22  C   UNL     1      -2.215   9.781  17.042  0.00  0.00    +0.000 A 
ATOM     23  C   UNL     1      -0.919   9.666  17.554  0.00  0.00    +0.000 A 
ENDBRANCH  15  17
ENDBRANCH   3  15
BRANCH   7  24
ATOM     24  C   UNL     1       2.987   5.972  20.564  0.00  0.00    +0.000 C 
BRANCH  24  25
ATOM     25  C   UNL     1       2.264   4.630  20.601  0.00  0.00    +0.000 A 
ATOM     26  C   UNL     1       2.428   3.691  21.633  0.00  0.00    +0.000 A 
ATOM     27  C   UNL     1       1.701   2.498  21.644  0.00  0.00    +0.000 A 
ATOM     28  C   UNL     1       0.798   2.219  20.621  0.00  0.00    +0.000 A 
ATOM     29  C   UNL     1       0.632   3.129  19.582  0.00  0.00    +0.000 A 
ATOM     30  C   UNL     1       1.365   4.320  19.565  0.00  0.00    +0.000 A 
ENDBRANCH  24  25
ENDBRANCH   7  24
TORSDOF 5
ENDMDL
MODEL 5
REMARK VINA RESULT:      -7.9      2.418      3.075
REMARK  Name = 
REMARK  6 active torsions:
REMARK  status: ('A' for Active; 'I' for Inactive)
REMARK    1  A    between atoms: C_1  and  C_2
REMARK    2  A    between atoms: C_3  and  C_4
REMARK    3  A    between atoms: C_4  and  C_6
REMARK    4  A    between atoms: N_15  and  C_16
REMARK    5  A    between atoms: N_23  and  C_24
REMARK    6  A    between atoms: C_24  and  C_25
REMARK                            x       y       z     vdW  Elec       q    Type
REMARK                         _______ _______ _______ _____ _____    ______ ____
ROOT
ATOM      1  C   UNL     1       0.683   8.560  21.576  0.00  0.00    +0.000 C 
ATOM      2  C   UNL     1       1.262   8.400  20.199  0.00  0.00    +0.000 A 
ATOM      3  C   UNL     1       1.237   9.299  19.192  0.00  0.00    +0.000 A 
ATOM      4  C   UNL     1       2.149   8.741  18.150  0.00  0.00    +0.000 A 
ATOM      5  O   UNL     1       2.383   9.281  17.079  0.00  0.00    +0.000 OA
ATOM      6  N   UNL     1       2.594   7.491  18.614  0.00  0.00    +0.000 N 
ATOM      7  N   UNL     1       1.961   7.229  19.857  0.00  0.00    +0.000 N 
ENDROOT
BRANCH   6   8
ATOM      8  C   UNL     1       3.371   6.568  17.868  0.00  0.00    +0.000 A 
ATOM      9  C   UNL     1       4.673   6.911  17.466  0.00  0.00    +0.000 A 
ATOM     10  C   UNL     1       5.488   5.998  16.785  0.00  0.00    +0.000 A 
ATOM     11  C   UNL     1       5.017   4.727  16.495  0.00  0.00    +0.000 A 
ATOM     12 CL   UNL     1       6.024   3.593  15.685  0.00  0.00    +0.000 Cl
ATOM     13  C   UNL     1       3.722   4.372  16.853  0.00  0.00    +0.000 A 
ATOM     14  C   UNL     1       2.904   5.295  17.516  0.00  0.00    +0.000 A 
ENDBRANCH   6   8
BRANCH   3  15
ATOM     15  C   UNL     1       0.580  10.623  19.065  0.00  0.00    +0.000 C 
ATOM     16  O   UNL     1      -0.595  10.724  18.722  0.00  0.00    +0.000 OA
BRANCH  15  17
ATOM     17  C   UNL     1       1.352  11.872  19.319  0.00  0.00    +0.000 A 
ATOM     18  C   UNL     1       2.037  12.453  18.239  0.00  0.00    +0.000 A 
ATOM     19  C   UNL     1       2.885  13.545  18.444  0.00  0.00    +0.000 A 
ATOM     20  C   UNL     1       3.046  14.061  19.728  0.00  0.00    +0.000 A 
ATOM     21 CL   UNL     1       4.156  15.345  20.002  0.00  0.00    +0.000 Cl
ATOM     22  C   UNL     1       2.320  13.535  20.795  0.00  0.00    +0.000 A 
ATOM     23  C   UNL     1       1.448  12.462  20.586  0.00  0.00    +0.000 A 
ENDBRANCH  15  17
ENDBRANCH   3  15
BRANCH   7  24
ATOM     24  C   UNL     1       2.570   6.322  20.842  0.00  0.00    +0.000 C 
BRANCH  24  25
ATOM     25  C   UNL     1       2.230   4.860  20.577  0.00  0.00    +0.000 A 
ATOM     26  C   UNL     1       0.929   4.405  20.306  0.00  0.00    +0.000 A 
ATOM     27  C   UNL     1       0.680   3.060  20.018  0.00  0.00    +0.000 A 
ATOM     28  C   UNL     1       1.728   2.144  19.999  0.00  0.00    +0.000 A 
ATOM     29  C   UNL     1       3.022   2.571  20.280  0.00  0.00    +0.000 A 
ATOM     30  C   UNL     1       3.272   3.915  20.576  0.00  0.00    +0.000 A 
ENDBRANCH  24  25
ENDBRANCH   7  24
TORSDOF 5
ENDMDL
MODEL 6
REMARK VINA RESULT:      -7.8      2.331      3.159
REMARK  Name = 
REMARK  6 active torsions:
REMARK  status: ('A' for Active; 'I' for Inactive)
REMARK    1  A    between atoms: C_1  and  C_2
REMARK    2  A    between atoms: C_3  and  C_4
REMARK    3  A    between atoms: C_4  and  C_6
REMARK    4  A    between atoms: N_15  and  C_16
REMARK    5  A    between atoms: N_23  and  C_24
REMARK    6  A    between atoms: C_24  and  C_25
REMARK                            x       y       z     vdW  Elec       q    Type
REMARK                         _______ _______ _______ _____ _____    ______ ____
ROOT
ATOM      1  C   UNL     1       0.639   8.336  21.451  0.00  0.00    +0.000 C 
ATOM      2  C   UNL     1       1.299   8.214  20.107  0.00  0.00    +0.000 A 
ATOM      3  C   UNL     1       1.316   9.133  19.118  0.00  0.00    +0.000 A 
ATOM      4  C   UNL     1       2.296   8.611  18.120  0.00  0.00    +0.000 A 
ATOM      5  O   UNL     1       2.582   9.177  17.075  0.00  0.00    +0.000 OA
ATOM      6  N   UNL     1       2.735   7.359  18.584  0.00  0.00    +0.000 N 
ATOM      7  N   UNL     1       2.036   7.062  19.782  0.00  0.00    +0.000 N 
ENDROOT
BRANCH   6   8
ATOM      8  C   UNL     1       3.569   6.464  17.866  0.00  0.00    +0.000 A 
ATOM      9  C   UNL     1       3.072   5.214  17.462  0.00  0.00    +0.000 A 
ATOM     10  C   UNL     1       3.851   4.335  16.697  0.00  0.00    +0.000 A 
ATOM     11  C   UNL     1       5.137   4.692  16.321  0.00  0.00    +0.000 A 
ATOM     12 CL   UNL     1       6.084   3.630  15.358  0.00  0.00    +0.000 Cl
ATOM     13  C   UNL     1       5.664   5.909  16.734  0.00  0.00    +0.000 A 
ATOM     14  C   UNL     1       4.889   6.776  17.516  0.00  0.00    +0.000 A 
ENDBRANCH   6   8
BRANCH   3  15
ATOM     15  C   UNL     1       0.646  10.449  18.981  0.00  0.00    +0.000 C 
ATOM     16  O   UNL     1      -0.534  10.535  18.652  0.00  0.00    +0.000 OA
BRANCH  15  17
ATOM     17  C   UNL     1       1.410  11.709  19.204  0.00  0.00    +0.000 A 
ATOM     18  C   UNL     1       1.306  12.328  20.460  0.00  0.00    +0.000 A 
ATOM     19  C   UNL     1       1.890  13.579  20.683  0.00  0.00    +0.000 A 
ATOM     20  C   UNL     1       2.581  14.210  19.652  0.00  0.00    +0.000 A 
ATOM     21 CL   UNL     1       3.223  15.787  19.892  0.00  0.00    +0.000 Cl
ATOM     22  C   UNL     1       2.748  13.575  18.422  0.00  0.00    +0.000 A 
ATOM     23  C   UNL     1       2.190  12.311  18.208  0.00  0.00    +0.000 A 
ENDBRANCH  15  17
ENDBRANCH   3  15
BRANCH   7  24
ATOM     24  C   UNL     1       2.603   6.144  20.784  0.00  0.00    +0.000 C 
BRANCH  24  25
ATOM     25  C   UNL     1       2.271   4.685  20.489  0.00  0.00    +0.000 A 
ATOM     26  C   UNL     1       0.971   4.224  20.223  0.00  0.00    +0.000 A 
ATOM     27  C   UNL     1       0.730   2.885  19.908  0.00  0.00    +0.000 A 
ATOM     28  C   UNL     1       1.786   1.978  19.857  0.00  0.00    +0.000 A 
ATOM     29  C   UNL     1       3.080   2.410  20.132  0.00  0.00    +0.000 A 
ATOM     30  C   UNL     1       3.321   3.749  20.456  0.00  0.00    +0.000 A 
ENDBRANCH  24  25
ENDBRANCH   7  24
TORSDOF 5
ENDMDL
MODEL 7
REMARK VINA RESULT:      -7.6      2.337      3.185
REMARK  Name = 
REMARK  6 active torsions:
REMARK  status: ('A' for Active; 'I' for Inactive)
REMARK    1  A    between atoms: C_1  and  C_2
REMARK    2  A    between atoms: C_3  and  C_4
REMARK    3  A    between atoms: C_4  and  C_6
REMARK    4  A    between atoms: N_15  and  C_16
REMARK    5  A    between atoms: N_23  and  C_24
REMARK    6  A    between atoms: C_24  and  C_25
REMARK                            x       y       z     vdW  Elec       q    Type
REMARK                         _______ _______ _______ _____ _____    ______ ____
ROOT
ATOM      1  C   UNL     1       0.694   8.511  21.597  0.00  0.00    +0.000 C 
ATOM      2  C   UNL     1       1.272   8.363  20.218  0.00  0.00    +0.000 A 
ATOM      3  C   UNL     1       1.242   9.269  19.218  0.00  0.00    +0.000 A 
ATOM      4  C   UNL     1       2.155   8.722  18.170  0.00  0.00    +0.000 A 
ATOM      5  O   UNL     1       2.386   9.270  17.103  0.00  0.00    +0.000 OA
ATOM      6  N   UNL     1       2.604   7.470  18.625  0.00  0.00    +0.000 N 
ATOM      7  N   UNL     1       1.974   7.197  19.866  0.00  0.00    +0.000 N 
ENDROOT
BRANCH   6   8
ATOM      8  C   UNL     1       3.384   6.555  17.871  0.00  0.00    +0.000 A 
ATOM      9  C   UNL     1       4.698   6.890  17.502  0.00  0.00    +0.000 A 
ATOM     10  C   UNL     1       5.513   5.982  16.814  0.00  0.00    +0.000 A 
ATOM     11  C   UNL     1       5.032   4.725  16.484  0.00  0.00    +0.000 A 
ATOM     12 CL   UNL     1       6.039   3.598  15.666  0.00  0.00    +0.000 Cl
ATOM     13  C   UNL     1       3.726   4.379  16.809  0.00  0.00    +0.000 A 
ATOM     14  C   UNL     1       2.907   5.297  17.480  0.00  0.00    +0.000 A 
ENDBRANCH   6   8
BRANCH   3  15
ATOM     15  C   UNL     1       0.581  10.592  19.102  0.00  0.00    +0.000 C 
ATOM     16  O   UNL     1      -0.593  10.692  18.759  0.00  0.00    +0.000 OA
BRANCH  15  17
ATOM     17  C   UNL     1       1.349  11.842  19.365  0.00  0.00    +0.000 A 
ATOM     18  C   UNL     1       1.228  12.434  20.633  0.00  0.00    +0.000 A 
ATOM     19  C   UNL     1       1.815  13.676  20.892  0.00  0.00    +0.000 A 
ATOM     20  C   UNL     1       2.528  14.325  19.887  0.00  0.00    +0.000 A 
ATOM     21 CL   UNL     1       3.176  15.892  20.172  0.00  0.00    +0.000 Cl
ATOM     22  C   UNL     1       2.712  13.715  18.647  0.00  0.00    +0.000 A 
ATOM     23  C   UNL     1       2.150  12.460  18.396  0.00  0.00    +0.000 A 
ENDBRANCH  15  17
ENDBRANCH   3  15
BRANCH   7  24
ATOM     24  C   UNL     1       2.587   6.284  20.845  0.00  0.00    +0.000 C 
BRANCH  24  25
ATOM     25  C   UNL     1       2.306   4.819  20.530  0.00  0.00    +0.000 A 
ATOM     26  C   UNL     1       3.304   3.832  20.482  0.00  0.00    +0.000 A 
ATOM     27  C   UNL     1       2.984   2.493  20.240  0.00  0.00    +0.000 A 
ATOM     28  C   UNL     1       1.659   2.117  20.038  0.00  0.00    +0.000 A 
ATOM     29  C   UNL     1       0.656   3.081  20.066  0.00  0.00    +0.000 A 
ATOM     30  C   UNL     1       0.976   4.423  20.300  0.00  0.00    +0.000 A 
ENDBRANCH  24  25
ENDBRANCH   7  24
TORSDOF 5
ENDMDL
MODEL 8
REMARK VINA RESULT:      -7.5      0.922      1.122
REMARK  Name = 
REMARK  6 active torsions:
REMARK  status: ('A' for Active; 'I' for Inactive)
REMARK    1  A    between atoms: C_1  and  C_2
REMARK    2  A    between atoms: C_3  and  C_4
REMARK    3  A    between atoms: C_4  and  C_6
REMARK    4  A    between atoms: N_15  and  C_16
REMARK    5  A    between atoms: N_23  and  C_24
REMARK    6  A    between atoms: C_24  and  C_25
REMARK                            x       y       z     vdW  Elec       q    Type
REMARK                         _______ _______ _______ _____ _____    ______ ____
ROOT
ATOM      1  C   UNL     1       0.541   8.010  21.201  0.00  0.00    +0.000 C 
ATOM      2  C   UNL     1       1.366   8.151  19.953  0.00  0.00    +0.000 A 
ATOM      3  C   UNL     1       1.446   9.228  19.143  0.00  0.00    +0.000 A 
ATOM      4  C   UNL     1       2.571   8.928  18.208  0.00  0.00    +0.000 A 
ATOM      5  O   UNL     1       2.946   9.678  17.319  0.00  0.00    +0.000 OA
ATOM      6  N   UNL     1       3.028   7.634  18.510  0.00  0.00    +0.000 N 
ATOM      7  N   UNL     1       2.208   7.104  19.540  0.00  0.00    +0.000 N 
ENDROOT
BRANCH   6   8
ATOM      8  C   UNL     1       3.998   6.913  17.768  0.00  0.00    +0.000 A 
ATOM      9  C   UNL     1       4.830   5.985  18.417  0.00  0.00    +0.000 A 
ATOM     10  C   UNL     1       5.754   5.211  17.702  0.00  0.00    +0.000 A 
ATOM     11  C   UNL     1       5.861   5.350  16.327  0.00  0.00    +0.000 A 
ATOM     12 CL   UNL     1       6.971   4.383  15.441  0.00  0.00    +0.000 Cl
ATOM     13  C   UNL     1       5.072   6.283  15.664  0.00  0.00    +0.000 A 
ATOM     14  C   UNL     1       4.165   7.068  16.386  0.00  0.00    +0.000 A 
ENDBRANCH   6   8
BRANCH   3  15
ATOM     15  C   UNL     1       0.715  10.519  19.140  0.00  0.00    +0.000 C 
ATOM     16  O   UNL     1       1.220  11.541  19.596  0.00  0.00    +0.000 OA
BRANCH  15  17
ATOM     17  C   UNL     1      -0.677  10.593  18.613  0.00  0.00    +0.000 A 
ATOM     18  C   UNL     1      -0.979   9.868  17.449  0.00  0.00    +0.000 A 
ATOM     19  C   UNL     1      -2.227  10.007  16.833  0.00  0.00    +0.000 A 
ATOM     20  C   UNL     1      -3.175  10.867  17.383  0.00  0.00    +0.000 A 
ATOM     21 CL   UNL     1      -4.677  11.110  16.581  0.00  0.00    +0.000 Cl
ATOM     22  C   UNL     1      -2.910  11.540  18.575  0.00  0.00    +0.000 A 
ATOM     23  C   UNL     1      -1.674  11.379  19.207  0.00  0.00    +0.000 A 
ENDBRANCH  15  17
ENDBRANCH   3  15
BRANCH   7  24
ATOM     24  C   UNL     1       2.706   6.051  20.439  0.00  0.00    +0.000 C 
BRANCH  24  25
ATOM     25  C   UNL     1       2.072   4.694  20.153  0.00  0.00    +0.000 A 
ATOM     26  C   UNL     1       1.793   3.743  21.149  0.00  0.00    +0.000 A 
ATOM     27  C   UNL     1       1.163   2.536  20.839  0.00  0.00    +0.000 A 
ATOM     28  C   UNL     1       0.802   2.253  19.524  0.00  0.00    +0.000 A 
ATOM     29  C   UNL     1       1.082   3.174  18.520  0.00  0.00    +0.000 A 
ATOM     30  C   UNL     1       1.720   4.381  18.828  0.00  0.00    +0.000 A 
ENDBRANCH  24  25
ENDBRANCH   7  24
TORSDOF 5
ENDMDL
MODEL 9
REMARK VINA RESULT:      -7.5      2.620      7.526
REMARK  Name = 
REMARK  6 active torsions:
REMARK  status: ('A' for Active; 'I' for Inactive)
REMARK    1  A    between atoms: C_1  and  C_2
REMARK    2  A    between atoms: C_3  and  C_4
REMARK    3  A    between atoms: C_4  and  C_6
REMARK    4  A    between atoms: N_15  and  C_16
REMARK    5  A    between atoms: N_23  and  C_24
REMARK    6  A    between atoms: C_24  and  C_25
REMARK                            x       y       z     vdW  Elec       q    Type
REMARK                         _______ _______ _______ _____ _____    ______ ____
ROOT
ATOM      1  C   UNL     1       4.312   3.304  17.027  0.00  0.00    +0.000 C 
ATOM      2  C   UNL     1       4.297   4.783  17.291  0.00  0.00    +0.000 A 
ATOM      3  C   UNL     1       5.217   5.692  16.903  0.00  0.00    +0.000 A 
ATOM      4  C   UNL     1       4.605   7.019  17.209  0.00  0.00    +0.000 A 
ATOM      5  O   UNL     1       5.147   8.093  16.995  0.00  0.00    +0.000 OA
ATOM      6  N   UNL     1       3.370   6.772  17.833  0.00  0.00    +0.000 N 
ATOM      7  N   UNL     1       3.218   5.369  17.976  0.00  0.00    +0.000 N 
ENDROOT
BRANCH   6   8
ATOM      8  C   UNL     1       2.529   7.760  18.406  0.00  0.00    +0.000 A 
ATOM      9  C   UNL     1       1.996   8.781  17.601  0.00  0.00    +0.000 A 
ATOM     10  C   UNL     1       1.111   9.733  18.125  0.00  0.00    +0.000 A 
ATOM     11  C   UNL     1       0.743   9.680  19.461  0.00  0.00    +0.000 A 
ATOM     12 CL   UNL     1      -0.365  10.828  20.100  0.00  0.00    +0.000 Cl
ATOM     13  C   UNL     1       1.280   8.700  20.286  0.00  0.00    +0.000 A 
ATOM     14  C   UNL     1       2.179   7.763  19.763  0.00  0.00    +0.000 A 
ENDBRANCH   6   8
BRANCH   3  15
ATOM     15  C   UNL     1       6.527   5.544  16.222  0.00  0.00    +0.000 C 
ATOM     16  O   UNL     1       7.573   5.884  16.767  0.00  0.00    +0.000 OA
BRANCH  15  17
ATOM     17  C   UNL     1       6.595   5.009  14.832  0.00  0.00    +0.000 A 
ATOM     18  C   UNL     1       5.597   4.109  14.424  0.00  0.00    +0.000 A 
ATOM     19  C   UNL     1       5.685   3.473  13.182  0.00  0.00    +0.000 A 
ATOM     20  C   UNL     1       6.767   3.737  12.346  0.00  0.00    +0.000 A 
ATOM     21 CL   UNL     1       6.927   2.890  10.859  0.00  0.00    +0.000 Cl
ATOM     22  C   UNL     1       7.727   4.679  12.713  0.00  0.00    +0.000 A 
ATOM     23  C   UNL     1       7.625   5.339  13.941  0.00  0.00    +0.000 A 
ENDBRANCH  15  17
ENDBRANCH   3  15
BRANCH   7  24
ATOM     24  C   UNL     1       1.884   4.756  18.077  0.00  0.00    +0.000 C 
BRANCH  24  25
ATOM     25  C   UNL     1       1.703   3.966  19.369  0.00  0.00    +0.000 A 
ATOM     26  C   UNL     1       0.959   2.778  19.452  0.00  0.00    +0.000 A 
ATOM     27  C   UNL     1       0.868   2.065  20.651  0.00  0.00    +0.000 A 
ATOM     28  C   UNL     1       1.518   2.530  21.791  0.00  0.00    +0.000 A 
ATOM     29  C   UNL     1       2.248   3.714  21.734  0.00  0.00    +0.000 A 
ATOM     30  C   UNL     1       2.333   4.432  20.537  0.00  0.00    +0.000 A 
ENDBRANCH  24  25
ENDBRANCH   7  24
TORSDOF 5
ENDMDL
