MODEL 1
REMARK VINA RESULT:      -7.7      0.000      0.000
REMARK  Name = 
REMARK  5 active torsions:
REMARK  status: ('A' for Active; 'I' for Inactive)
REMARK    1  A    between atoms: C_1  and  C_2
REMARK    2  A    between atoms: C_7  and  C_8
REMARK    3  A    between atoms: N_12  and  C_13
REMARK    4  A    between atoms: C_16  and  O_17
REMARK    5  A    between atoms: O_17  and  C_18
REMARK                            x       y       z     vdW  Elec       q    Type
REMARK                         _______ _______ _______ _____ _____    ______ ____
ROOT
ATOM      1  C   UNL     1       4.026   5.421  18.455  0.00  0.00    +0.000 A 
ATOM      2  N   UNL     1       3.453   4.781  19.419  0.00  0.00    +0.000 NA
ATOM      3  C   UNL     1       2.517   5.656  19.927  0.00  0.00    +0.000 A 
ATOM      4  O   UNL     1       1.778   5.396  20.864  0.00  0.00    +0.000 OA
ATOM      5  N   UNL     1       2.564   6.829  19.200  0.00  0.00    +0.000 N 
ATOM      6  O   UNL     1       3.565   6.669  18.210  0.00  0.00    +0.000 OA
ENDROOT
BRANCH   1  13
ATOM      7  C   UNL     1       6.890   5.542  19.317  0.00  0.00    +0.000 C 
ATOM      8  C   UNL     1       6.463   5.049  17.961  0.00  0.00    +0.000 A 
ATOM      9  C   UNL     1       7.450   4.638  17.049  0.00  0.00    +0.000 A 
ATOM     10  C   UNL     1       7.105   4.158  15.784  0.00  0.00    +0.000 A 
ATOM     11  C   UNL     1       5.768   4.077  15.408  0.00  0.00    +0.000 A 
ATOM     12  C   UNL     1       4.773   4.482  16.300  0.00  0.00    +0.000 A 
ATOM     13  C   UNL     1       5.111   4.971  17.573  0.00  0.00    +0.000 A 
ENDBRANCH   1  13
BRANCH   5  14
ATOM     14  C   UNL     1       1.897   8.050  19.319  0.00  0.00    +0.000 A 
ATOM     15  C   UNL     1       1.779   8.927  18.238  0.00  0.00    +0.000 A 
ATOM     16  C   UNL     1       1.094  10.139  18.381  0.00  0.00    +0.000 A 
ATOM     17  C   UNL     1       0.524  10.499  19.603  0.00  0.00    +0.000 A 
ATOM     18  C   UNL     1       0.688   9.657  20.698  0.00  0.00    +0.000 A 
ATOM     19  C   UNL     1       1.342   8.428  20.549  0.00  0.00    +0.000 A 
BRANCH  17  20
ATOM     20  O   UNL     1      -0.096  11.710  19.611  0.00  0.00    +0.000 OA
BRANCH  20  21
ATOM     21  C   UNL     1      -1.362  11.857  18.981  0.00  0.00    +0.000 C 
ATOM     22  F   UNL     1      -1.311  12.356  17.728  0.00  0.00    +0.000 F 
ATOM     23  F   UNL     1      -1.979  10.657  18.942  0.00  0.00    +0.000 F 
ATOM     24  F   UNL     1      -2.118  12.693  19.727  0.00  0.00    +0.000 F 
ENDBRANCH  20  21
ENDBRANCH  17  20
ENDBRANCH   5  14
TORSDOF 4
ENDMDL
MODEL 2
REMARK VINA RESULT:      -7.7      0.099      1.260
REMARK  Name = 
REMARK  5 active torsions:
REMARK  status: ('A' for Active; 'I' for Inactive)
REMARK    1  A    between atoms: C_1  and  C_2
REMARK    2  A    between atoms: C_7  and  C_8
REMARK    3  A    between atoms: N_12  and  C_13
REMARK    4  A    between atoms: C_16  and  O_17
REMARK    5  A    between atoms: O_17  and  C_18
REMARK                            x       y       z     vdW  Elec       q    Type
REMARK                         _______ _______ _______ _____ _____    ______ ____
ROOT
ATOM      1  C   UNL     1       4.029   5.396  18.470  0.00  0.00    +0.000 A 
ATOM      2  N   UNL     1       3.458   4.748  19.429  0.00  0.00    +0.000 NA
ATOM      3  C   UNL     1       2.522   5.618  19.946  0.00  0.00    +0.000 A 
ATOM      4  O   UNL     1       1.785   5.351  20.882  0.00  0.00    +0.000 OA
ATOM      5  N   UNL     1       2.568   6.797  19.229  0.00  0.00    +0.000 N 
ATOM      6  O   UNL     1       3.567   6.646  18.236  0.00  0.00    +0.000 OA
ENDROOT
BRANCH   1  13
ATOM      7  C   UNL     1       6.896   5.538  19.318  0.00  0.00    +0.000 C 
ATOM      8  C   UNL     1       6.467   5.042  17.965  0.00  0.00    +0.000 A 
ATOM      9  C   UNL     1       7.453   4.638  17.048  0.00  0.00    +0.000 A 
ATOM     10  C   UNL     1       7.105   4.155  15.785  0.00  0.00    +0.000 A 
ATOM     11  C   UNL     1       5.767   4.064  15.416  0.00  0.00    +0.000 A 
ATOM     12  C   UNL     1       4.774   4.463  16.312  0.00  0.00    +0.000 A 
ATOM     13  C   UNL     1       5.114   4.954  17.583  0.00  0.00    +0.000 A 
ENDBRANCH   1  13
BRANCH   5  14
ATOM     14  C   UNL     1       1.901   8.017  19.359  0.00  0.00    +0.000 A 
ATOM     15  C   UNL     1       1.327   8.412  20.570  0.00  0.00    +0.000 A 
ATOM     16  C   UNL     1       0.676   9.646  20.676  0.00  0.00    +0.000 A 
ATOM     17  C   UNL     1       0.580  10.502  19.577  0.00  0.00    +0.000 A 
ATOM     18  C   UNL     1       1.099  10.090  18.354  0.00  0.00    +0.000 A 
ATOM     19  C   UNL     1       1.781   8.870  18.254  0.00  0.00    +0.000 A 
BRANCH  17  20
ATOM     20  O   UNL     1      -0.093  11.660  19.810  0.00  0.00    +0.000 OA
BRANCH  20  21
ATOM     21  C   UNL     1      -1.347  11.884  19.179  0.00  0.00    +0.000 C 
ATOM     22  F   UNL     1      -2.194  12.670  19.876  0.00  0.00    +0.000 F 
ATOM     23  F   UNL     1      -1.139  12.443  17.968  0.00  0.00    +0.000 F 
ATOM     24  F   UNL     1      -1.953  10.690  18.993  0.00  0.00    +0.000 F 
ENDBRANCH  20  21
ENDBRANCH  17  20
ENDBRANCH   5  14
TORSDOF 4
ENDMDL
MODEL 3
REMARK VINA RESULT:      -7.6      2.462      3.711
REMARK  Name = 
REMARK  5 active torsions:
REMARK  status: ('A' for Active; 'I' for Inactive)
REMARK    1  A    between atoms: C_1  and  C_2
REMARK    2  A    between atoms: C_7  and  C_8
REMARK    3  A    between atoms: N_12  and  C_13
REMARK    4  A    between atoms: C_16  and  O_17
REMARK    5  A    between atoms: O_17  and  C_18
REMARK                            x       y       z     vdW  Elec       q    Type
REMARK                         _______ _______ _______ _____ _____    ______ ____
ROOT
ATOM      1  C   UNL     1       2.760   6.867  18.653  0.00  0.00    +0.000 A 
ATOM      2  N   UNL     1       2.669   7.710  17.679  0.00  0.00    +0.000 NA
ATOM      3  C   UNL     1       1.984   8.788  18.198  0.00  0.00    +0.000 A 
ATOM      4  O   UNL     1       1.703   9.790  17.558  0.00  0.00    +0.000 OA
ATOM      5  N   UNL     1       1.696   8.535  19.524  0.00  0.00    +0.000 N 
ATOM      6  O   UNL     1       2.222   7.256  19.832  0.00  0.00    +0.000 OA
ENDROOT
BRANCH   1  13
ATOM      7  C   UNL     1       1.305   4.460  17.628  0.00  0.00    +0.000 C 
ATOM      8  C   UNL     1       2.694   4.394  18.202  0.00  0.00    +0.000 A 
ATOM      9  C   UNL     1       3.338   3.147  18.275  0.00  0.00    +0.000 A 
ATOM     10  C   UNL     1       4.632   3.035  18.786  0.00  0.00    +0.000 A 
ATOM     11  C   UNL     1       5.309   4.166  19.229  0.00  0.00    +0.000 A 
ATOM     12  C   UNL     1       4.685   5.414  19.166  0.00  0.00    +0.000 A 
ATOM     13  C   UNL     1       3.381   5.536  18.659  0.00  0.00    +0.000 A 
ENDBRANCH   1  13
BRANCH   5  14
ATOM     14  C   UNL     1       0.978   9.240  20.494  0.00  0.00    +0.000 A 
ATOM     15  C   UNL     1       0.270   8.580  21.502  0.00  0.00    +0.000 A 
ATOM     16  C   UNL     1      -0.429   9.311  22.469  0.00  0.00    +0.000 A 
ATOM     17  C   UNL     1      -0.441  10.706  22.443  0.00  0.00    +0.000 A 
ATOM     18  C   UNL     1       0.215  11.367  21.408  0.00  0.00    +0.000 A 
ATOM     19  C   UNL     1       0.944  10.640  20.460  0.00  0.00    +0.000 A 
BRANCH  17  20
ATOM     20  O   UNL     1      -1.173  11.292  23.428  0.00  0.00    +0.000 OA
BRANCH  20  21
ATOM     21  C   UNL     1      -2.297  12.093  23.088  0.00  0.00    +0.000 C 
ATOM     22  F   UNL     1      -2.695  11.986  21.804  0.00  0.00    +0.000 F 
ATOM     23  F   UNL     1      -3.333  11.763  23.889  0.00  0.00    +0.000 F 
ATOM     24  F   UNL     1      -1.985  13.388  23.317  0.00  0.00    +0.000 F 
ENDBRANCH  20  21
ENDBRANCH  17  20
ENDBRANCH   5  14
TORSDOF 4
ENDMDL
MODEL 4
REMARK VINA RESULT:      -7.6      0.911      1.266
REMARK  Name = 
REMARK  5 active torsions:
REMARK  status: ('A' for Active; 'I' for Inactive)
REMARK    1  A    between atoms: C_1  and  C_2
REMARK    2  A    between atoms: C_7  and  C_8
REMARK    3  A    between atoms: N_12  and  C_13
REMARK    4  A    between atoms: C_16  and  O_17
REMARK    5  A    between atoms: O_17  and  C_18
REMARK                            x       y       z     vdW  Elec       q    Type
REMARK                         _______ _______ _______ _____ _____    ______ ____
ROOT
ATOM      1  C   UNL     1       4.439   5.447  17.634  0.00  0.00    +0.000 A 
ATOM      2  N   UNL     1       4.175   4.763  18.697  0.00  0.00    +0.000 NA
ATOM      3  C   UNL     1       3.264   5.523  19.398  0.00  0.00    +0.000 A 
ATOM      4  O   UNL     1       2.783   5.194  20.472  0.00  0.00    +0.000 OA
ATOM      5  N   UNL     1       3.000   6.674  18.683  0.00  0.00    +0.000 N 
ATOM      6  O   UNL     1       3.778   6.620  17.499  0.00  0.00    +0.000 OA
ENDROOT
BRANCH   1  13
ATOM      7  C   UNL     1       7.297   6.339  17.673  0.00  0.00    +0.000 C 
ATOM      8  C   UNL     1       6.699   5.557  16.537  0.00  0.00    +0.000 A 
ATOM      9  C   UNL     1       7.510   5.238  15.433  0.00  0.00    +0.000 A 
ATOM     10  C   UNL     1       7.007   4.501  14.360  0.00  0.00    +0.000 A 
ATOM     11  C   UNL     1       5.686   4.066  14.369  0.00  0.00    +0.000 A 
ATOM     12  C   UNL     1       4.864   4.373  15.456  0.00  0.00    +0.000 A 
ATOM     13  C   UNL     1       5.360   5.118  16.538  0.00  0.00    +0.000 A 
ENDBRANCH   1  13
BRANCH   5  14
ATOM     14  C   UNL     1       2.221   7.802  18.947  0.00  0.00    +0.000 A 
ATOM     15  C   UNL     1       1.980   8.770  17.968  0.00  0.00    +0.000 A 
ATOM     16  C   UNL     1       1.184   9.884  18.256  0.00  0.00    +0.000 A 
ATOM     17  C   UNL     1       0.623  10.057  19.522  0.00  0.00    +0.000 A 
ATOM     18  C   UNL     1       0.907   9.126  20.517  0.00  0.00    +0.000 A 
ATOM     19  C   UNL     1       1.674   7.992  20.222  0.00  0.00    +0.000 A 
BRANCH  17  20
ATOM     20  O   UNL     1      -0.112  11.190  19.674  0.00  0.00    +0.000 OA
BRANCH  20  21
ATOM     21  C   UNL     1      -1.412  11.268  19.103  0.00  0.00    +0.000 C 
ATOM     22  F   UNL     1      -2.346  11.817  19.907  0.00  0.00    +0.000 F 
ATOM     23  F   UNL     1      -1.351  11.985  17.961  0.00  0.00    +0.000 F 
ATOM     24  F   UNL     1      -1.819  10.017  18.793  0.00  0.00    +0.000 F 
ENDBRANCH  20  21
ENDBRANCH  17  20
ENDBRANCH   5  14
TORSDOF 4
ENDMDL
MODEL 5
REMARK VINA RESULT:      -7.6      4.743      8.199
REMARK  Name = 
REMARK  5 active torsions:
REMARK  status: ('A' for Active; 'I' for Inactive)
REMARK    1  A    between atoms: C_1  and  C_2
REMARK    2  A    between atoms: C_7  and  C_8
REMARK    3  A    between atoms: N_12  and  C_13
REMARK    4  A    between atoms: C_16  and  O_17
REMARK    5  A    between atoms: O_17  and  C_18
REMARK                            x       y       z     vdW  Elec       q    Type
REMARK                         _______ _______ _______ _____ _____    ______ ____
ROOT
ATOM      1  C   UNL     1       2.320   7.441  19.081  0.00  0.00    +0.000 A 
ATOM      2  N   UNL     1       2.486   6.525  19.976  0.00  0.00    +0.000 NA
ATOM      3  C   UNL     1       3.319   5.596  19.391  0.00  0.00    +0.000 A 
ATOM      4  O   UNL     1       3.696   4.574  19.943  0.00  0.00    +0.000 OA
ATOM      5  N   UNL     1       3.641   6.025  18.119  0.00  0.00    +0.000 N 
ATOM      6  O   UNL     1       2.982   7.263  17.915  0.00  0.00    +0.000 OA
ENDROOT
BRANCH   1  13
ATOM      7  C   UNL     1       1.260   8.443  21.695  0.00  0.00    +0.000 C 
ATOM      8  C   UNL     1       0.989   9.129  20.385  0.00  0.00    +0.000 A 
ATOM      9  C   UNL     1       0.191  10.287  20.379  0.00  0.00    +0.000 A 
ATOM     10  C   UNL     1      -0.078  10.969  19.192  0.00  0.00    +0.000 A 
ATOM     11  C   UNL     1       0.448  10.511  17.988  0.00  0.00    +0.000 A 
ATOM     12  C   UNL     1       1.241   9.362  17.973  0.00  0.00    +0.000 A 
ATOM     13  C   UNL     1       1.513   8.666  19.162  0.00  0.00    +0.000 A 
ENDBRANCH   1  13
BRANCH   5  14
ATOM     14  C   UNL     1       4.381   5.457  17.080  0.00  0.00    +0.000 A 
ATOM     15  C   UNL     1       4.474   4.071  16.922  0.00  0.00    +0.000 A 
ATOM     16  C   UNL     1       5.211   3.528  15.864  0.00  0.00    +0.000 A 
ATOM     17  C   UNL     1       5.873   4.354  14.954  0.00  0.00    +0.000 A 
ATOM     18  C   UNL     1       5.831   5.732  15.140  0.00  0.00    +0.000 A 
ATOM     19  C   UNL     1       5.066   6.280  16.177  0.00  0.00    +0.000 A 
BRANCH  17  20
ATOM     20  O   UNL     1       6.568   3.699  13.985  0.00  0.00    +0.000 OA
BRANCH  20  21
ATOM     21  C   UNL     1       5.991   3.528  12.698  0.00  0.00    +0.000 C 
ATOM     22  F   UNL     1       5.961   2.252  12.261  0.00  0.00    +0.000 F 
ATOM     23  F   UNL     1       4.729   4.007  12.712  0.00  0.00    +0.000 F 
ATOM     24  F   UNL     1       6.705   4.252  11.808  0.00  0.00    +0.000 F 
ENDBRANCH  20  21
ENDBRANCH  17  20
ENDBRANCH   5  14
TORSDOF 4
ENDMDL
MODEL 6
REMARK VINA RESULT:      -7.6      2.453      3.558
REMARK  Name = 
REMARK  5 active torsions:
REMARK  status: ('A' for Active; 'I' for Inactive)
REMARK    1  A    between atoms: C_1  and  C_2
REMARK    2  A    between atoms: C_7  and  C_8
REMARK    3  A    between atoms: N_12  and  C_13
REMARK    4  A    between atoms: C_16  and  O_17
REMARK    5  A    between atoms: O_17  and  C_18
REMARK                            x       y       z     vdW  Elec       q    Type
REMARK                         _______ _______ _______ _____ _____    ______ ____
ROOT
ATOM      1  C   UNL     1       2.468   6.637  18.440  0.00  0.00    +0.000 A 
ATOM      2  N   UNL     1       2.668   7.581  17.581  0.00  0.00    +0.000 NA
ATOM      3  C   UNL     1       2.162   8.719  18.171  0.00  0.00    +0.000 A 
ATOM      4  O   UNL     1       2.169   9.821  17.646  0.00  0.00    +0.000 OA
ATOM      5  N   UNL     1       1.673   8.392  19.421  0.00  0.00    +0.000 N 
ATOM      6  O   UNL     1       1.887   7.003  19.605  0.00  0.00    +0.000 OA
ENDROOT
BRANCH   1  13
ATOM      7  C   UNL     1       5.188   5.605  19.146  0.00  0.00    +0.000 C 
ATOM      8  C   UNL     1       4.085   4.721  18.633  0.00  0.00    +0.000 A 
ATOM      9  C   UNL     1       4.340   3.349  18.462  0.00  0.00    +0.000 A 
ATOM     10  C   UNL     1       3.346   2.484  18.002  0.00  0.00    +0.000 A 
ATOM     11  C   UNL     1       2.077   2.972  17.708  0.00  0.00    +0.000 A 
ATOM     12  C   UNL     1       1.804   4.331  17.870  0.00  0.00    +0.000 A 
ATOM     13  C   UNL     1       2.800   5.210  18.327  0.00  0.00    +0.000 A 
ENDBRANCH   1  13
BRANCH   5  14
ATOM     14  C   UNL     1       1.006   9.125  20.404  0.00  0.00    +0.000 A 
ATOM     15  C   UNL     1       0.319   8.496  21.446  0.00  0.00    +0.000 A 
ATOM     16  C   UNL     1      -0.330   9.255  22.426  0.00  0.00    +0.000 A 
ATOM     17  C   UNL     1      -0.312  10.650  22.380  0.00  0.00    +0.000 A 
ATOM     18  C   UNL     1       0.322  11.281  21.315  0.00  0.00    +0.000 A 
ATOM     19  C   UNL     1       1.001  10.525  20.352  0.00  0.00    +0.000 A 
BRANCH  17  20
ATOM     20  O   UNL     1      -0.996  11.265  23.381  0.00  0.00    +0.000 OA
BRANCH  20  21
ATOM     21  C   UNL     1      -2.141  12.049  23.073  0.00  0.00    +0.000 C 
ATOM     22  F   UNL     1      -3.217  11.801  23.849  0.00  0.00    +0.000 F 
ATOM     23  F   UNL     1      -1.824  13.357  23.182  0.00  0.00    +0.000 F 
ATOM     24  F   UNL     1      -2.493  11.808  21.791  0.00  0.00    +0.000 F 
ENDBRANCH  20  21
ENDBRANCH  17  20
ENDBRANCH   5  14
TORSDOF 4
ENDMDL
MODEL 7
REMARK VINA RESULT:      -7.5      1.346      1.810
REMARK  Name = 
REMARK  5 active torsions:
REMARK  status: ('A' for Active; 'I' for Inactive)
REMARK    1  A    between atoms: C_1  and  C_2
REMARK    2  A    between atoms: C_7  and  C_8
REMARK    3  A    between atoms: N_12  and  C_13
REMARK    4  A    between atoms: C_16  and  O_17
REMARK    5  A    between atoms: O_17  and  C_18
REMARK                            x       y       z     vdW  Elec       q    Type
REMARK                         _______ _______ _______ _____ _____    ______ ____
ROOT
ATOM      1  C   UNL     1       4.003   5.322  18.495  0.00  0.00    +0.000 A 
ATOM      2  N   UNL     1       3.418   4.625  19.412  0.00  0.00    +0.000 NA
ATOM      3  C   UNL     1       2.493   5.477  19.976  0.00  0.00    +0.000 A 
ATOM      4  O   UNL     1       1.747   5.165  20.891  0.00  0.00    +0.000 OA
ATOM      5  N   UNL     1       2.559   6.696  19.331  0.00  0.00    +0.000 N 
ATOM      6  O   UNL     1       3.561   6.590  18.335  0.00  0.00    +0.000 OA
ENDROOT
BRANCH   1  13
ATOM      7  C   UNL     1       6.878   5.516  19.307  0.00  0.00    +0.000 C 
ATOM      8  C   UNL     1       6.441   5.030  17.953  0.00  0.00    +0.000 A 
ATOM      9  C   UNL     1       7.423   4.662  17.017  0.00  0.00    +0.000 A 
ATOM     10  C   UNL     1       7.070   4.190  15.751  0.00  0.00    +0.000 A 
ATOM     11  C   UNL     1       5.729   4.074  15.399  0.00  0.00    +0.000 A 
ATOM     12  C   UNL     1       4.739   4.437  16.314  0.00  0.00    +0.000 A 
ATOM     13  C   UNL     1       5.085   4.917  17.587  0.00  0.00    +0.000 A 
ENDBRANCH   1  13
BRANCH   5  14
ATOM     14  C   UNL     1       1.910   7.916  19.532  0.00  0.00    +0.000 A 
ATOM     15  C   UNL     1       1.380   8.267  20.776  0.00  0.00    +0.000 A 
ATOM     16  C   UNL     1       0.746   9.502  20.953  0.00  0.00    +0.000 A 
ATOM     17  C   UNL     1       0.624  10.402  19.893  0.00  0.00    +0.000 A 
ATOM     18  C   UNL     1       1.098  10.035  18.638  0.00  0.00    +0.000 A 
ATOM     19  C   UNL     1       1.764   8.815  18.467  0.00  0.00    +0.000 A 
BRANCH  17  20
ATOM     20  O   UNL     1      -0.029  11.556  20.194  0.00  0.00    +0.000 OA
BRANCH  20  21
ATOM     21  C   UNL     1       0.708  12.686  20.644  0.00  0.00    +0.000 C 
ATOM     22  F   UNL     1       2.045  12.509  20.673  0.00  0.00    +0.000 F 
ATOM     23  F   UNL     1       0.429  13.740  19.848  0.00  0.00    +0.000 F 
ATOM     24  F   UNL     1       0.305  12.989  21.898  0.00  0.00    +0.000 F 
ENDBRANCH  20  21
ENDBRANCH  17  20
ENDBRANCH   5  14
TORSDOF 4
ENDMDL
MODEL 8
REMARK VINA RESULT:      -7.5      2.424      3.406
REMARK  Name = 
REMARK  5 active torsions:
REMARK  status: ('A' for Active; 'I' for Inactive)
REMARK    1  A    between atoms: C_1  and  C_2
REMARK    2  A    between atoms: C_7  and  C_8
REMARK    3  A    between atoms: N_12  and  C_13
REMARK    4  A    between atoms: C_16  and  O_17
REMARK    5  A    between atoms: O_17  and  C_18
REMARK                            x       y       z     vdW  Elec       q    Type
REMARK                         _______ _______ _______ _____ _____    ______ ____
ROOT
ATOM      1  C   UNL     1       2.453   6.263  18.688  0.00  0.00    +0.000 A 
ATOM      2  N   UNL     1       2.645   7.059  17.690  0.00  0.00    +0.000 NA
ATOM      3  C   UNL     1       2.223   8.296  18.129  0.00  0.00    +0.000 A 
ATOM      4  O   UNL     1       2.249   9.308  17.446  0.00  0.00    +0.000 OA
ATOM      5  N   UNL     1       1.792   8.181  19.435  0.00  0.00    +0.000 N 
ATOM      6  O   UNL     1       1.955   6.825  19.813  0.00  0.00    +0.000 OA
ENDROOT
BRANCH   1  13
ATOM      7  C   UNL     1       5.197   5.203  19.243  0.00  0.00    +0.000 C 
ATOM      8  C   UNL     1       4.009   4.313  19.007  0.00  0.00    +0.000 A 
ATOM      9  C   UNL     1       4.190   2.919  19.035  0.00  0.00    +0.000 A 
ATOM     10  C   UNL     1       3.116   2.050  18.837  0.00  0.00    +0.000 A 
ATOM     11  C   UNL     1       1.840   2.556  18.612  0.00  0.00    +0.000 A 
ATOM     12  C   UNL     1       1.640   3.937  18.580  0.00  0.00    +0.000 A 
ATOM     13  C   UNL     1       2.715   4.820  18.773  0.00  0.00    +0.000 A 
ENDBRANCH   1  13
BRANCH   5  14
ATOM     14  C   UNL     1       1.213   9.083  20.331  0.00  0.00    +0.000 A 
ATOM     15  C   UNL     1       0.945  10.405  19.966  0.00  0.00    +0.000 A 
ATOM     16  C   UNL     1       0.352  11.285  20.878  0.00  0.00    +0.000 A 
ATOM     17  C   UNL     1       0.025  10.865  22.169  0.00  0.00    +0.000 A 
ATOM     18  C   UNL     1       0.342   9.567  22.556  0.00  0.00    +0.000 A 
ATOM     19  C   UNL     1       0.903   8.674  21.634  0.00  0.00    +0.000 A 
BRANCH  17  20
ATOM     20  O   UNL     1      -0.528  11.823  22.960  0.00  0.00    +0.000 OA
BRANCH  20  21
ATOM     21  C   UNL     1      -1.940  11.977  22.996  0.00  0.00    +0.000 C 
ATOM     22  F   UNL     1      -2.527  12.068  21.784  0.00  0.00    +0.000 F 
ATOM     23  F   UNL     1      -2.482  10.935  23.660  0.00  0.00    +0.000 F 
ATOM     24  F   UNL     1      -2.230  13.107  23.679  0.00  0.00    +0.000 F 
ENDBRANCH  20  21
ENDBRANCH  17  20
ENDBRANCH   5  14
TORSDOF 4
ENDMDL
MODEL 9
REMARK VINA RESULT:      -7.5      4.443      8.011
REMARK  Name = 
REMARK  5 active torsions:
REMARK  status: ('A' for Active; 'I' for Inactive)
REMARK    1  A    between atoms: C_1  and  C_2
REMARK    2  A    between atoms: C_7  and  C_8
REMARK    3  A    between atoms: N_12  and  C_13
REMARK    4  A    between atoms: C_16  and  O_17
REMARK    5  A    between atoms: O_17  and  C_18
REMARK                            x       y       z     vdW  Elec       q    Type
REMARK                         _______ _______ _______ _____ _____    ______ ____
ROOT
ATOM      1  C   UNL     1       1.754   7.786  19.809  0.00  0.00    +0.000 A 
ATOM      2  N   UNL     1       1.639   6.812  20.649  0.00  0.00    +0.000 NA
ATOM      3  C   UNL     1       2.437   5.807  20.146  0.00  0.00    +0.000 A 
ATOM      4  O   UNL     1       2.576   4.716  20.677  0.00  0.00    +0.000 OA
ATOM      5  N   UNL     1       3.031   6.251  18.982  0.00  0.00    +0.000 N 
ATOM      6  O   UNL     1       2.583   7.577  18.761  0.00  0.00    +0.000 OA
ENDROOT
BRANCH   1  13
ATOM      7  C   UNL     1       1.177   9.178  22.396  0.00  0.00    +0.000 C 
ATOM      8  C   UNL     1       0.810   9.755  21.056  0.00  0.00    +0.000 A 
ATOM      9  C   UNL     1       0.155  10.998  21.011  0.00  0.00    +0.000 A 
ATOM     10  C   UNL     1      -0.193  11.584  19.793  0.00  0.00    +0.000 A 
ATOM     11  C   UNL     1       0.110  10.941  18.597  0.00  0.00    +0.000 A 
ATOM     12  C   UNL     1       0.759   9.705  18.621  0.00  0.00    +0.000 A 
ATOM     13  C   UNL     1       1.108   9.106  19.842  0.00  0.00    +0.000 A 
ENDBRANCH   1  13
BRANCH   5  14
ATOM     14  C   UNL     1       3.865   5.638  18.044  0.00  0.00    +0.000 A 
ATOM     15  C   UNL     1       3.674   4.310  17.653  0.00  0.00    +0.000 A 
ATOM     16  C   UNL     1       4.517   3.725  16.701  0.00  0.00    +0.000 A 
ATOM     17  C   UNL     1       5.564   4.448  16.131  0.00  0.00    +0.000 A 
ATOM     18  C   UNL     1       5.795   5.752  16.558  0.00  0.00    +0.000 A 
ATOM     19  C   UNL     1       4.933   6.352  17.484  0.00  0.00    +0.000 A 
BRANCH  17  20
ATOM     20  O   UNL     1       6.318   3.756  15.234  0.00  0.00    +0.000 OA
BRANCH  20  21
ATOM     21  C   UNL     1       6.217   4.057  13.849  0.00  0.00    +0.000 C 
ATOM     22  F   UNL     1       6.509   3.028  13.027  0.00  0.00    +0.000 F 
ATOM     23  F   UNL     1       4.965   4.483  13.579  0.00  0.00    +0.000 F 
ATOM     24  F   UNL     1       7.073   5.065  13.566  0.00  0.00    +0.000 F 
ENDBRANCH  20  21
ENDBRANCH  17  20
ENDBRANCH   5  14
TORSDOF 4
ENDMDL
