MODEL 1
REMARK VINA RESULT:      -6.8      0.000      0.000
REMARK  Name = 
REMARK  5 active torsions:
REMARK  status: ('A' for Active; 'I' for Inactive)
REMARK    1  A    between atoms: C_1  and  C_2
REMARK    2  A    between atoms: N_5  and  C_6
REMARK    3  A    between atoms: C_6  and  C_7
REMARK    4  A    between atoms: N_11  and  C_12
REMARK    5  A    between atoms: C_12  and  C_13
REMARK                            x       y       z     vdW  Elec       q    Type
REMARK                         _______ _______ _______ _____ _____    ______ ____
ROOT
ATOM      1  C   UNL     1       2.254   4.281  19.317  0.00  0.00    +0.000 C 
ATOM      2  C   UNL     1       1.052   3.352  19.500  0.00  0.00    +0.000 C 
ATOM      3  C   UNL     1       1.327   2.183  18.575  0.00  0.00    +0.000 C 
ATOM      4  C   UNL     1       2.840   2.063  18.555  0.00  0.00    +0.000 C 
ATOM      5  N   UNL     1       3.342   3.353  18.992  0.00  0.00    +0.000 NA
ENDROOT
BRANCH   1   6
ATOM      6  C   UNL     1       2.403   5.283  20.475  0.00  0.00    +0.000 C 
BRANCH   6  11
ATOM      7  C   UNL     1       1.940   9.516  17.799  0.00  0.00    +0.000 C 
ATOM      8  C   UNL     1       1.931   8.496  18.872  0.00  0.00    +0.000 A 
ATOM      9  C   UNL     1       1.378   8.614  20.163  0.00  0.00    +0.000 A 
ATOM     10  N   UNL     1       1.516   7.500  20.884  0.00  0.00    +0.000 NA
ATOM     11  N   UNL     1       2.151   6.655  20.049  0.00  0.00    +0.000 N 
ATOM     12  C   UNL     1       2.447   7.215  18.841  0.00  0.00    +0.000 A 
ENDBRANCH   6  11
ENDBRANCH   1   6
BRANCH   5  13
ATOM     13  C   UNL     1       4.683   3.432  19.540  0.00  0.00    +0.000 C 
BRANCH  13  14
ATOM     14  C   UNL     1       5.594   4.379  18.821  0.00  0.00    +0.000 A 
ATOM     15  N   UNL     1       6.475   5.149  19.586  0.00  0.00    +0.000 NA
ATOM     16  N   UNL     1       7.194   5.979  18.847  0.00  0.00    +0.000 NA
ATOM     17  S   UNL     1       6.811   5.889  17.221  0.00  0.00    +0.000 S 
ATOM     18  C   UNL     1       5.625   4.698  17.476  0.00  0.00    +0.000 A 
ATOM     19 CL   UNL     1       4.681   4.126  16.170  0.00  0.00    +0.000 Cl
ENDBRANCH  13  14
ENDBRANCH   5  13
TORSDOF 4
ENDMDL
MODEL 2
REMARK VINA RESULT:      -6.7      3.377      5.968
REMARK  Name = 
REMARK  5 active torsions:
REMARK  status: ('A' for Active; 'I' for Inactive)
REMARK    1  A    between atoms: C_1  and  C_2
REMARK    2  A    between atoms: N_5  and  C_6
REMARK    3  A    between atoms: C_6  and  C_7
REMARK    4  A    between atoms: N_11  and  C_12
REMARK    5  A    between atoms: C_12  and  C_13
REMARK                            x       y       z     vdW  Elec       q    Type
REMARK                         _______ _______ _______ _____ _____    ______ ____
ROOT
ATOM      1  C   UNL     1       4.444   5.548  17.032  0.00  0.00    +0.000 C 
ATOM      2  C   UNL     1       4.339   6.932  17.677  0.00  0.00    +0.000 C 
ATOM      3  C   UNL     1       2.887   7.051  18.096  0.00  0.00    +0.000 C 
ATOM      4  C   UNL     1       2.470   5.629  18.426  0.00  0.00    +0.000 C 
ATOM      5  N   UNL     1       3.427   4.772  17.749  0.00  0.00    +0.000 NA
ENDROOT
BRANCH   1   6
ATOM      6  C   UNL     1       5.895   5.046  16.952  0.00  0.00    +0.000 C 
BRANCH   6  11
ATOM      7  C   UNL     1       6.043   3.283  12.244  0.00  0.00    +0.000 C 
ATOM      8  C   UNL     1       6.339   3.965  13.523  0.00  0.00    +0.000 A 
ATOM      9  C   UNL     1       7.381   4.877  13.789  0.00  0.00    +0.000 A 
ATOM     10  N   UNL     1       7.358   5.332  15.042  0.00  0.00    +0.000 NA
ATOM     11  N   UNL     1       6.289   4.720  15.585  0.00  0.00    +0.000 N 
ATOM     12  C   UNL     1       5.661   3.869  14.723  0.00  0.00    +0.000 A 
ENDBRANCH   6  11
ENDBRANCH   1   6
BRANCH   5  13
ATOM     13  C   UNL     1       3.613   3.416  18.229  0.00  0.00    +0.000 C 
BRANCH  13  14
ATOM     14  C   UNL     1       2.937   3.118  19.531  0.00  0.00    +0.000 A 
ATOM     15  N   UNL     1       3.723   3.083  20.686  0.00  0.00    +0.000 NA
ATOM     16  N   UNL     1       3.024   2.765  21.765  0.00  0.00    +0.000 NA
ATOM     17  S   UNL     1       1.416   2.461  21.422  0.00  0.00    +0.000 S 
ATOM     18  C   UNL     1       1.623   2.752  19.760  0.00  0.00    +0.000 A 
ATOM     19 CL   UNL     1       0.316   2.540  18.678  0.00  0.00    +0.000 Cl
ENDBRANCH  13  14
ENDBRANCH   5  13
TORSDOF 4
ENDMDL
MODEL 3
REMARK VINA RESULT:      -6.6      2.537      4.315
REMARK  Name = 
REMARK  5 active torsions:
REMARK  status: ('A' for Active; 'I' for Inactive)
REMARK    1  A    between atoms: C_1  and  C_2
REMARK    2  A    between atoms: N_5  and  C_6
REMARK    3  A    between atoms: C_6  and  C_7
REMARK    4  A    between atoms: N_11  and  C_12
REMARK    5  A    between atoms: C_12  and  C_13
REMARK                            x       y       z     vdW  Elec       q    Type
REMARK                         _______ _______ _______ _____ _____    ______ ____
ROOT
ATOM      1  C   UNL     1       5.176   6.202  17.802  0.00  0.00    +0.000 C 
ATOM      2  C   UNL     1       6.561   6.797  17.534  0.00  0.00    +0.000 C 
ATOM      3  C   UNL     1       7.533   5.715  17.960  0.00  0.00    +0.000 C 
ATOM      4  C   UNL     1       6.800   4.416  17.678  0.00  0.00    +0.000 C 
ATOM      5  N   UNL     1       5.393   4.765  17.611  0.00  0.00    +0.000 NA
ENDROOT
BRANCH   1   6
ATOM      6  C   UNL     1       4.064   6.933  17.032  0.00  0.00    +0.000 C 
BRANCH   6  11
ATOM      7  C   UNL     1       1.176   8.056  20.993  0.00  0.00    +0.000 C 
ATOM      8  C   UNL     1       1.827   8.020  19.664  0.00  0.00    +0.000 A 
ATOM      9  C   UNL     1       1.671   8.941  18.607  0.00  0.00    +0.000 A 
ATOM     10  N   UNL     1       2.420   8.637  17.547  0.00  0.00    +0.000 NA
ATOM     11  N   UNL     1       3.071   7.520  17.925  0.00  0.00    +0.000 N 
ATOM     12  C   UNL     1       2.729   7.095  19.175  0.00  0.00    +0.000 A 
ENDBRANCH   6  11
ENDBRANCH   1   6
BRANCH   5  13
ATOM     13  C   UNL     1       4.487   3.884  16.898  0.00  0.00    +0.000 C 
BRANCH  13  14
ATOM     14  C   UNL     1       3.314   3.414  17.701  0.00  0.00    +0.000 A 
ATOM     15  N   UNL     1       2.033   3.690  17.214  0.00  0.00    +0.000 NA
ATOM     16  N   UNL     1       1.080   3.268  18.030  0.00  0.00    +0.000 NA
ATOM     17  S   UNL     1       1.689   2.563  19.420  0.00  0.00    +0.000 S 
ATOM     18  C   UNL     1       3.302   2.821  18.950  0.00  0.00    +0.000 A 
ATOM     19 CL   UNL     1       4.584   2.390  19.995  0.00  0.00    +0.000 Cl
ENDBRANCH  13  14
ENDBRANCH   5  13
TORSDOF 4
ENDMDL
MODEL 4
REMARK VINA RESULT:      -6.6      3.075      5.889
REMARK  Name = 
REMARK  5 active torsions:
REMARK  status: ('A' for Active; 'I' for Inactive)
REMARK    1  A    between atoms: C_1  and  C_2
REMARK    2  A    between atoms: N_5  and  C_6
REMARK    3  A    between atoms: C_6  and  C_7
REMARK    4  A    between atoms: N_11  and  C_12
REMARK    5  A    between atoms: C_12  and  C_13
REMARK                            x       y       z     vdW  Elec       q    Type
REMARK                         _______ _______ _______ _____ _____    ______ ____
ROOT
ATOM      1  C   UNL     1       4.307   5.953  17.369  0.00  0.00    +0.000 C 
ATOM      2  C   UNL     1       4.402   7.450  17.062  0.00  0.00    +0.000 C 
ATOM      3  C   UNL     1       3.093   8.027  17.561  0.00  0.00    +0.000 C 
ATOM      4  C   UNL     1       2.716   7.149  18.741  0.00  0.00    +0.000 C 
ATOM      5  N   UNL     1       3.460   5.915  18.565  0.00  0.00    +0.000 NA
ENDROOT
BRANCH   1   6
ATOM      6  C   UNL     1       5.683   5.265  17.365  0.00  0.00    +0.000 C 
BRANCH   6  11
ATOM      7  C   UNL     1       5.942   3.458  12.678  0.00  0.00    +0.000 C 
ATOM      8  C   UNL     1       6.216   4.138  13.964  0.00  0.00    +0.000 A 
ATOM      9  C   UNL     1       7.284   5.008  14.264  0.00  0.00    +0.000 A 
ATOM     10  N   UNL     1       7.231   5.475  15.513  0.00  0.00    +0.000 NA
ATOM     11  N   UNL     1       6.116   4.912  16.017  0.00  0.00    +0.000 N 
ATOM     12  C   UNL     1       5.488   4.080  15.137  0.00  0.00    +0.000 A 
ENDBRANCH   6  11
ENDBRANCH   1   6
BRANCH   5  13
ATOM     13  C   UNL     1       3.707   5.076  19.722  0.00  0.00    +0.000 C 
BRANCH  13  14
ATOM     14  C   UNL     1       2.676   4.017  19.956  0.00  0.00    +0.000 A 
ATOM     15  N   UNL     1       2.211   3.830  21.261  0.00  0.00    +0.000 NA
ATOM     16  N   UNL     1       1.339   2.838  21.350  0.00  0.00    +0.000 NA
ATOM     17  S   UNL     1       1.080   2.075  19.884  0.00  0.00    +0.000 S 
ATOM     18  C   UNL     1       2.172   3.087  19.064  0.00  0.00    +0.000 A 
ATOM     19 CL   UNL     1       2.510   2.831  17.408  0.00  0.00    +0.000 Cl
ENDBRANCH  13  14
ENDBRANCH   5  13
TORSDOF 4
ENDMDL
MODEL 5
REMARK VINA RESULT:      -6.6      0.789      1.123
REMARK  Name = 
REMARK  5 active torsions:
REMARK  status: ('A' for Active; 'I' for Inactive)
REMARK    1  A    between atoms: C_1  and  C_2
REMARK    2  A    between atoms: N_5  and  C_6
REMARK    3  A    between atoms: C_6  and  C_7
REMARK    4  A    between atoms: N_11  and  C_12
REMARK    5  A    between atoms: C_12  and  C_13
REMARK                            x       y       z     vdW  Elec       q    Type
REMARK                         _______ _______ _______ _____ _____    ______ ____
ROOT
ATOM      1  C   UNL     1       2.421   4.491  19.003  0.00  0.00    +0.000 C 
ATOM      2  C   UNL     1       1.114   3.786  19.374  0.00  0.00    +0.000 C 
ATOM      3  C   UNL     1       1.223   2.416  18.737  0.00  0.00    +0.000 C 
ATOM      4  C   UNL     1       2.708   2.103  18.763  0.00  0.00    +0.000 C 
ATOM      5  N   UNL     1       3.377   3.383  18.907  0.00  0.00    +0.000 NA
ENDROOT
BRANCH   1   6
ATOM      6  C   UNL     1       2.715   5.698  19.910  0.00  0.00    +0.000 C 
BRANCH   6  11
ATOM      7  C   UNL     1       1.131  10.375  18.952  0.00  0.00    +0.000 C 
ATOM      8  C   UNL     1       1.704   9.013  18.858  0.00  0.00    +0.000 A 
ATOM      9  C   UNL     1       2.416   8.455  17.776  0.00  0.00    +0.000 A 
ATOM     10  N   UNL     1       2.821   7.207  18.017  0.00  0.00    +0.000 NA
ATOM     11  N   UNL     1       2.379   6.963  19.266  0.00  0.00    +0.000 N 
ATOM     12  C   UNL     1       1.679   8.005  19.802  0.00  0.00    +0.000 A 
ENDBRANCH   6  11
ENDBRANCH   1   6
BRANCH   5  13
ATOM     13  C   UNL     1       4.726   3.411  19.439  0.00  0.00    +0.000 C 
BRANCH  13  14
ATOM     14  C   UNL     1       5.646   4.374  18.755  0.00  0.00    +0.000 A 
ATOM     15  N   UNL     1       6.494   5.150  19.550  0.00  0.00    +0.000 NA
ATOM     16  N   UNL     1       7.224   5.994  18.838  0.00  0.00    +0.000 NA
ATOM     17  S   UNL     1       6.891   5.909  17.201  0.00  0.00    +0.000 S 
ATOM     18  C   UNL     1       5.713   4.702  17.413  0.00  0.00    +0.000 A 
ATOM     19 CL   UNL     1       4.817   4.126  16.076  0.00  0.00    +0.000 Cl
ENDBRANCH  13  14
ENDBRANCH   5  13
TORSDOF 4
ENDMDL
MODEL 6
REMARK VINA RESULT:      -6.6      2.411      4.133
REMARK  Name = 
REMARK  5 active torsions:
REMARK  status: ('A' for Active; 'I' for Inactive)
REMARK    1  A    between atoms: C_1  and  C_2
REMARK    2  A    between atoms: N_5  and  C_6
REMARK    3  A    between atoms: C_6  and  C_7
REMARK    4  A    between atoms: N_11  and  C_12
REMARK    5  A    between atoms: C_12  and  C_13
REMARK                            x       y       z     vdW  Elec       q    Type
REMARK                         _______ _______ _______ _____ _____    ______ ____
ROOT
ATOM      1  C   UNL     1       5.283   6.510  17.863  0.00  0.00    +0.000 C 
ATOM      2  C   UNL     1       6.500   7.229  17.275  0.00  0.00    +0.000 C 
ATOM      3  C   UNL     1       7.693   6.454  17.797  0.00  0.00    +0.000 C 
ATOM      4  C   UNL     1       7.192   5.027  17.926  0.00  0.00    +0.000 C 
ATOM      5  N   UNL     1       5.744   5.122  17.978  0.00  0.00    +0.000 NA
ENDROOT
BRANCH   1   6
ATOM      6  C   UNL     1       3.985   6.840  17.109  0.00  0.00    +0.000 C 
BRANCH   6  11
ATOM      7  C   UNL     1       1.112   8.287  20.975  0.00  0.00    +0.000 C 
ATOM      8  C   UNL     1       1.774   8.157  19.658  0.00  0.00    +0.000 A 
ATOM      9  C   UNL     1       1.672   9.031  18.556  0.00  0.00    +0.000 A 
ATOM     10  N   UNL     1       2.417   8.641  17.521  0.00  0.00    +0.000 NA
ATOM     11  N   UNL     1       3.012   7.516  17.961  0.00  0.00    +0.000 N 
ATOM     12  C   UNL     1       2.637   7.169  19.226  0.00  0.00    +0.000 A 
ENDBRANCH   6  11
ENDBRANCH   1   6
BRANCH   5  13
ATOM     13  C   UNL     1       4.954   3.960  17.619  0.00  0.00    +0.000 C 
BRANCH  13  14
ATOM     14  C   UNL     1       4.056   3.458  18.707  0.00  0.00    +0.000 A 
ATOM     15  N   UNL     1       4.637   2.753  19.765  0.00  0.00    +0.000 NA
ATOM     16  N   UNL     1       3.741   2.321  20.638  0.00  0.00    +0.000 NA
ATOM     17  S   UNL     1       2.175   2.712  20.199  0.00  0.00    +0.000 S 
ATOM     18  C   UNL     1       2.675   3.492  18.774  0.00  0.00    +0.000 A 
ATOM     19 CL   UNL     1       1.518   4.128  17.687  0.00  0.00    +0.000 Cl
ENDBRANCH  13  14
ENDBRANCH   5  13
TORSDOF 4
ENDMDL
MODEL 7
REMARK VINA RESULT:      -6.5      1.806      2.023
REMARK  Name = 
REMARK  5 active torsions:
REMARK  status: ('A' for Active; 'I' for Inactive)
REMARK    1  A    between atoms: C_1  and  C_2
REMARK    2  A    between atoms: N_5  and  C_6
REMARK    3  A    between atoms: C_6  and  C_7
REMARK    4  A    between atoms: N_11  and  C_12
REMARK    5  A    between atoms: C_12  and  C_13
REMARK                            x       y       z     vdW  Elec       q    Type
REMARK                         _______ _______ _______ _____ _____    ______ ____
ROOT
ATOM      1  C   UNL     1       2.157   4.743  19.379  0.00  0.00    +0.000 C 
ATOM      2  C   UNL     1       1.026   4.050  20.143  0.00  0.00    +0.000 C 
ATOM      3  C   UNL     1       1.011   2.633  19.606  0.00  0.00    +0.000 C 
ATOM      4  C   UNL     1       2.459   2.348  19.251  0.00  0.00    +0.000 C 
ATOM      5  N   UNL     1       3.093   3.646  19.111  0.00  0.00    +0.000 NA
ENDROOT
BRANCH   1   6
ATOM      6  C   UNL     1       2.638   6.025  20.077  0.00  0.00    +0.000 C 
BRANCH   6  11
ATOM      7  C   UNL     1       1.010  10.587  18.720  0.00  0.00    +0.000 C 
ATOM      8  C   UNL     1       1.592   9.226  18.742  0.00  0.00    +0.000 A 
ATOM      9  C   UNL     1       2.296   8.577  17.707  0.00  0.00    +0.000 A 
ATOM     10  N   UNL     1       2.713   7.359  18.055  0.00  0.00    +0.000 NA
ATOM     11  N   UNL     1       2.286   7.225  19.326  0.00  0.00    +0.000 N 
ATOM     12  C   UNL     1       1.584   8.307  19.773  0.00  0.00    +0.000 A 
ENDBRANCH   6  11
ENDBRANCH   1   6
BRANCH   5  13
ATOM     13  C   UNL     1       4.533   3.740  19.252  0.00  0.00    +0.000 C 
BRANCH  13  14
ATOM     14  C   UNL     1       5.253   4.191  18.019  0.00  0.00    +0.000 A 
ATOM     15  N   UNL     1       4.782   3.740  16.783  0.00  0.00    +0.000 NA
ATOM     16  N   UNL     1       5.524   4.166  15.772  0.00  0.00    +0.000 NA
ATOM     17  S   UNL     1       6.827   5.087  16.275  0.00  0.00    +0.000 S 
ATOM     18  C   UNL     1       6.419   4.927  17.918  0.00  0.00    +0.000 A 
ATOM     19 CL   UNL     1       7.426   5.598  19.126  0.00  0.00    +0.000 Cl
ENDBRANCH  13  14
ENDBRANCH   5  13
TORSDOF 4
ENDMDL
MODEL 8
REMARK VINA RESULT:      -6.5      3.218      5.932
REMARK  Name = 
REMARK  5 active torsions:
REMARK  status: ('A' for Active; 'I' for Inactive)
REMARK    1  A    between atoms: C_1  and  C_2
REMARK    2  A    between atoms: N_5  and  C_6
REMARK    3  A    between atoms: C_6  and  C_7
REMARK    4  A    between atoms: N_11  and  C_12
REMARK    5  A    between atoms: C_12  and  C_13
REMARK                            x       y       z     vdW  Elec       q    Type
REMARK                         _______ _______ _______ _____ _____    ______ ____
ROOT
ATOM      1  C   UNL     1       4.458   6.054  17.209  0.00  0.00    +0.000 C 
ATOM      2  C   UNL     1       4.464   7.573  17.020  0.00  0.00    +0.000 C 
ATOM      3  C   UNL     1       3.128   8.033  17.566  0.00  0.00    +0.000 C 
ATOM      4  C   UNL     1       2.810   7.045  18.674  0.00  0.00    +0.000 C 
ATOM      5  N   UNL     1       3.623   5.874  18.401  0.00  0.00    +0.000 NA
ENDROOT
BRANCH   1   6
ATOM      6  C   UNL     1       5.871   5.449  17.149  0.00  0.00    +0.000 C 
BRANCH   6  11
ATOM      7  C   UNL     1       5.812   3.393  12.559  0.00  0.00    +0.000 C 
ATOM      8  C   UNL     1       6.182   4.122  13.793  0.00  0.00    +0.000 A 
ATOM      9  C   UNL     1       7.307   4.946  13.998  0.00  0.00    +0.000 A 
ATOM     10  N   UNL     1       7.338   5.478  15.221  0.00  0.00    +0.000 NA
ATOM     11  N   UNL     1       6.221   5.004  15.804  0.00  0.00    +0.000 N 
ATOM     12  C   UNL     1       5.508   4.165  14.998  0.00  0.00    +0.000 A 
ENDBRANCH   6  11
ENDBRANCH   1   6
BRANCH   5  13
ATOM     13  C   UNL     1       3.926   4.964  19.489  0.00  0.00    +0.000 C 
BRANCH  13  14
ATOM     14  C   UNL     1       3.317   3.603  19.351  0.00  0.00    +0.000 A 
ATOM     15  N   UNL     1       4.075   2.605  18.731  0.00  0.00    +0.000 NA
ATOM     16  N   UNL     1       3.416   1.461  18.625  0.00  0.00    +0.000 NA
ATOM     17  S   UNL     1       1.859   1.558  19.231  0.00  0.00    +0.000 S 
ATOM     18  C   UNL     1       2.033   3.194  19.659  0.00  0.00    +0.000 A 
ATOM     19 CL   UNL     1       0.712   4.058  20.317  0.00  0.00    +0.000 Cl
ENDBRANCH  13  14
ENDBRANCH   5  13
TORSDOF 4
ENDMDL
MODEL 9
REMARK VINA RESULT:      -6.5      2.558      5.249
REMARK  Name = 
REMARK  5 active torsions:
REMARK  status: ('A' for Active; 'I' for Inactive)
REMARK    1  A    between atoms: C_1  and  C_2
REMARK    2  A    between atoms: N_5  and  C_6
REMARK    3  A    between atoms: C_6  and  C_7
REMARK    4  A    between atoms: N_11  and  C_12
REMARK    5  A    between atoms: C_12  and  C_13
REMARK                            x       y       z     vdW  Elec       q    Type
REMARK                         _______ _______ _______ _____ _____    ______ ____
ROOT
ATOM      1  C   UNL     1       3.880   6.917  17.466  0.00  0.00    +0.000 C 
ATOM      2  C   UNL     1       3.309   8.335  17.552  0.00  0.00    +0.000 C 
ATOM      3  C   UNL     1       2.012   8.180  18.319  0.00  0.00    +0.000 C 
ATOM      4  C   UNL     1       2.265   7.018  19.262  0.00  0.00    +0.000 C 
ATOM      5  N   UNL     1       3.383   6.287  18.693  0.00  0.00    +0.000 NA
ENDROOT
BRANCH   1   6
ATOM      6  C   UNL     1       5.382   6.908  17.138  0.00  0.00    +0.000 C 
BRANCH   6  11
ATOM      7  C   UNL     1       6.136   3.733  13.311  0.00  0.00    +0.000 C 
ATOM      8  C   UNL     1       6.103   4.389  14.637  0.00  0.00    +0.000 A 
ATOM      9  C   UNL     1       6.754   3.973  15.817  0.00  0.00    +0.000 A 
ATOM     10  N   UNL     1       6.541   4.801  16.840  0.00  0.00    +0.000 NA
ATOM     11  N   UNL     1       5.758   5.763  16.315  0.00  0.00    +0.000 N 
ATOM     12  C   UNL     1       5.444   5.546  15.005  0.00  0.00    +0.000 A 
ENDBRANCH   6  11
ENDBRANCH   1   6
BRANCH   5  13
ATOM     13  C   UNL     1       4.174   5.434  19.559  0.00  0.00    +0.000 C 
BRANCH  13  14
ATOM     14  C   UNL     1       4.011   3.967  19.307  0.00  0.00    +0.000 A 
ATOM     15  N   UNL     1       4.948   3.096  19.871  0.00  0.00    +0.000 NA
ATOM     16  N   UNL     1       4.728   1.833  19.541  0.00  0.00    +0.000 NA
ATOM     17  S   UNL     1       3.417   1.655  18.517  0.00  0.00    +0.000 S 
ATOM     18  C   UNL     1       3.104   3.326  18.484  0.00  0.00    +0.000 A 
ATOM     19 CL   UNL     1       1.851   3.949  17.501  0.00  0.00    +0.000 Cl
ENDBRANCH  13  14
ENDBRANCH   5  13
TORSDOF 4
ENDMDL
