MODEL 1
REMARK VINA RESULT:      -6.2      0.000      0.000
REMARK  Name = 
REMARK  6 active torsions:
REMARK  status: ('A' for Active; 'I' for Inactive)
REMARK    1  A    between atoms: C_1  and  C_2
REMARK    2  A    between atoms: C_2  and  O_3
REMARK    3  A    between atoms: O_3  and  C_4
REMARK    4  A    between atoms: C_4  and  C_6
REMARK    5  A    between atoms: C_10  and  C_12
REMARK    6  A    between atoms: C_18  and  C_19
REMARK                            x       y       z     vdW  Elec       q    Type
REMARK                         _______ _______ _______ _____ _____    ______ ____
ROOT
ATOM      1  C   UNL     1       4.363   5.668  17.691  0.00  0.00    +0.000 A 
ATOM      2  S   UNL     1       3.564   7.176  17.880  0.00  0.00    +0.000 S 
ATOM      3  C   UNL     1       2.973   6.684  19.389  0.00  0.00    +0.000 A 
ATOM      4  N   UNL     1       2.164   7.471  20.163  0.00  0.00    +0.000 N 
ATOM      5  C   UNL     1       1.523   8.634  19.795  0.00  0.00    +0.000 C 
ATOM      6  O   UNL     1       1.566   9.141  18.680  0.00  0.00    +0.000 OA
ATOM      7  N   UNL     1       3.370   5.505  19.803  0.00  0.00    +0.000 NA
ATOM      8  C   UNL     1       4.147   4.893  18.823  0.00  0.00    +0.000 A 
ATOM      9  C   UNL     1       4.620   3.506  19.085  0.00  0.00    +0.000 C 
ATOM     10  H   UNL     1       1.972   7.084  21.077  0.00  0.00    +0.000 HD
ENDROOT
BRANCH   5  11
ATOM     11  C   UNL     1       0.719   9.241  20.858  0.00  0.00    +0.000 A 
ATOM     12  C   UNL     1       0.551   8.754  22.144  0.00  0.00    +0.000 A 
ATOM     13  C   UNL     1      -0.282   9.587  22.945  0.00  0.00    +0.000 A 
ATOM     14  C   UNL     1      -0.733  10.684  22.247  0.00  0.00    +0.000 A 
ATOM     15  S   UNL     1      -0.159  10.699  20.637  0.00  0.00    +0.000 S 
ENDBRANCH   5  11
BRANCH   1  16
ATOM     16  C   UNL     1       5.054   5.400  16.453  0.00  0.00    +0.000 C 
ATOM     17  O   UNL     1       4.887   4.422  15.730  0.00  0.00    +0.000 OA
BRANCH  16  18
ATOM     18  O   UNL     1       6.012   6.345  16.238  0.00  0.00    +0.000 OA
BRANCH  18  20
ATOM     19  C   UNL     1       7.581   7.585  17.537  0.00  0.00    +0.000 C 
ATOM     20  C   UNL     1       7.194   6.205  17.035  0.00  0.00    +0.000 C 
ENDBRANCH  18  20
ENDBRANCH  16  18
ENDBRANCH   1  16
TORSDOF 4
ENDMDL
MODEL 2
REMARK VINA RESULT:      -6.2      1.548      1.773
REMARK  Name = 
REMARK  6 active torsions:
REMARK  status: ('A' for Active; 'I' for Inactive)
REMARK    1  A    between atoms: C_1  and  C_2
REMARK    2  A    between atoms: C_2  and  O_3
REMARK    3  A    between atoms: O_3  and  C_4
REMARK    4  A    between atoms: C_4  and  C_6
REMARK    5  A    between atoms: C_10  and  C_12
REMARK    6  A    between atoms: C_18  and  C_19
REMARK                            x       y       z     vdW  Elec       q    Type
REMARK                         _______ _______ _______ _____ _____    ______ ____
ROOT
ATOM      1  C   UNL     1       3.401   4.596  19.203  0.00  0.00    +0.000 A 
ATOM      2  S   UNL     1       3.074   6.280  19.127  0.00  0.00    +0.000 S 
ATOM      3  C   UNL     1       2.090   6.160  20.500  0.00  0.00    +0.000 A 
ATOM      4  N   UNL     1       1.427   7.231  21.035  0.00  0.00    +0.000 N 
ATOM      5  C   UNL     1       1.248   8.475  20.471  0.00  0.00    +0.000 C 
ATOM      6  O   UNL     1       1.651   8.812  19.363  0.00  0.00    +0.000 OA
ATOM      7  N   UNL     1       2.027   4.975  21.058  0.00  0.00    +0.000 NA
ATOM      8  C   UNL     1       2.752   4.056  20.305  0.00  0.00    +0.000 A 
ATOM      9  C   UNL     1       2.726   2.633  20.743  0.00  0.00    +0.000 C 
ATOM     10  H   UNL     1       0.959   7.027  21.907  0.00  0.00    +0.000 HD
ENDROOT
BRANCH   5  11
ATOM     11  C   UNL     1       0.481   9.408  21.300  0.00  0.00    +0.000 A 
ATOM     12  C   UNL     1      -0.114   9.129  22.519  0.00  0.00    +0.000 A 
ATOM     13  C   UNL     1      -0.776  10.258  23.081  0.00  0.00    +0.000 A 
ATOM     14  C   UNL     1      -0.675  11.367  22.272  0.00  0.00    +0.000 A 
ATOM     15  S   UNL     1       0.206  11.040  20.845  0.00  0.00    +0.000 S 
ENDBRANCH   5  11
BRANCH   1  16
ATOM     16  C   UNL     1       4.198   3.997  18.160  0.00  0.00    +0.000 C 
ATOM     17  O   UNL     1       3.769   3.439  17.154  0.00  0.00    +0.000 OA
BRANCH  16  18
ATOM     18  O   UNL     1       5.518   4.041  18.496  0.00  0.00    +0.000 OA
BRANCH  18  20
ATOM     19  C   UNL     1       7.563   5.240  18.243  0.00  0.00    +0.000 C 
ATOM     20  C   UNL     1       6.375   4.637  17.515  0.00  0.00    +0.000 C 
ENDBRANCH  18  20
ENDBRANCH  16  18
ENDBRANCH   1  16
TORSDOF 4
ENDMDL
MODEL 3
REMARK VINA RESULT:      -6.2      1.776      2.448
REMARK  Name = 
REMARK  6 active torsions:
REMARK  status: ('A' for Active; 'I' for Inactive)
REMARK    1  A    between atoms: C_1  and  C_2
REMARK    2  A    between atoms: C_2  and  O_3
REMARK    3  A    between atoms: O_3  and  C_4
REMARK    4  A    between atoms: C_4  and  C_6
REMARK    5  A    between atoms: C_10  and  C_12
REMARK    6  A    between atoms: C_18  and  C_19
REMARK                            x       y       z     vdW  Elec       q    Type
REMARK                         _______ _______ _______ _____ _____    ______ ____
ROOT
ATOM      1  C   UNL     1       5.107   4.930  17.793  0.00  0.00    +0.000 A 
ATOM      2  S   UNL     1       4.504   6.509  17.493  0.00  0.00    +0.000 S 
ATOM      3  C   UNL     1       3.343   6.307  18.711  0.00  0.00    +0.000 A 
ATOM      4  N   UNL     1       2.422   7.267  19.027  0.00  0.00    +0.000 N 
ATOM      5  C   UNL     1       2.121   8.408  18.315  0.00  0.00    +0.000 C 
ATOM      6  O   UNL     1       2.635   8.732  17.250  0.00  0.00    +0.000 OA
ATOM      7  N   UNL     1       3.400   5.177  19.374  0.00  0.00    +0.000 NA
ATOM      8  C   UNL     1       4.391   4.360  18.837  0.00  0.00    +0.000 A 
ATOM      9  C   UNL     1       4.546   2.995  19.413  0.00  0.00    +0.000 C 
ATOM     10  H   UNL     1       1.860   7.044  19.837  0.00  0.00    +0.000 HD
ENDROOT
BRANCH   5  11
ATOM     11  C   UNL     1       1.074   9.236  18.918  0.00  0.00    +0.000 A 
ATOM     12  C   UNL     1       0.137  10.001  18.244  0.00  0.00    +0.000 A 
ATOM     13  C   UNL     1      -0.757  10.679  19.121  0.00  0.00    +0.000 A 
ATOM     14  C   UNL     1      -0.474  10.420  20.442  0.00  0.00    +0.000 A 
ATOM     15  S   UNL     1       0.864   9.371  20.617  0.00  0.00    +0.000 S 
ENDBRANCH   5  11
BRANCH   1  16
ATOM     16  C   UNL     1       6.158   4.418  16.948  0.00  0.00    +0.000 C 
ATOM     17  O   UNL     1       7.357   4.414  17.209  0.00  0.00    +0.000 OA
BRANCH  16  18
ATOM     18  O   UNL     1       5.644   4.024  15.749  0.00  0.00    +0.000 OA
BRANCH  18  20
ATOM     19  C   UNL     1       6.146   3.774  13.431  0.00  0.00    +0.000 C 
ATOM     20  C   UNL     1       6.147   4.732  14.609  0.00  0.00    +0.000 C 
ENDBRANCH  18  20
ENDBRANCH  16  18
ENDBRANCH   1  16
TORSDOF 4
ENDMDL
MODEL 4
REMARK VINA RESULT:      -6.2      4.680      5.571
REMARK  Name = 
REMARK  6 active torsions:
REMARK  status: ('A' for Active; 'I' for Inactive)
REMARK    1  A    between atoms: C_1  and  C_2
REMARK    2  A    between atoms: C_2  and  O_3
REMARK    3  A    between atoms: O_3  and  C_4
REMARK    4  A    between atoms: C_4  and  C_6
REMARK    5  A    between atoms: C_10  and  C_12
REMARK    6  A    between atoms: C_18  and  C_19
REMARK                            x       y       z     vdW  Elec       q    Type
REMARK                         _______ _______ _______ _____ _____    ______ ____
ROOT
ATOM      1  C   UNL     1       6.517   5.057  15.637  0.00  0.00    +0.000 A 
ATOM      2  S   UNL     1       5.319   3.921  16.107  0.00  0.00    +0.000 S 
ATOM      3  C   UNL     1       5.143   4.709  17.596  0.00  0.00    +0.000 A 
ATOM      4  N   UNL     1       4.280   4.280  18.567  0.00  0.00    +0.000 N 
ATOM      5  C   UNL     1       3.607   3.079  18.621  0.00  0.00    +0.000 C 
ATOM      6  O   UNL     1       3.701   2.180  17.793  0.00  0.00    +0.000 OA
ATOM      7  N   UNL     1       5.860   5.795  17.758  0.00  0.00    +0.000 NA
ATOM      8  C   UNL     1       6.681   5.992  16.650  0.00  0.00    +0.000 A 
ATOM      9  C   UNL     1       7.631   7.138  16.692  0.00  0.00    +0.000 C 
ATOM     10  H   UNL     1       4.212   4.905  19.358  0.00  0.00    +0.000 HD
ENDROOT
BRANCH   5  11
ATOM     11  C   UNL     1       2.757   2.917  19.803  0.00  0.00    +0.000 A 
ATOM     12  C   UNL     1       3.177   2.589  21.081  0.00  0.00    +0.000 A 
ATOM     13  C   UNL     1       2.104   2.524  22.015  0.00  0.00    +0.000 A 
ATOM     14  C   UNL     1       0.892   2.798  21.423  0.00  0.00    +0.000 A 
ATOM     15  S   UNL     1       1.053   3.122  19.754  0.00  0.00    +0.000 S 
ENDBRANCH   5  11
BRANCH   1  16
ATOM     16  C   UNL     1       7.188   4.874  14.373  0.00  0.00    +0.000 C 
ATOM     17  O   UNL     1       7.988   5.651  13.860  0.00  0.00    +0.000 OA
BRANCH  16  18
ATOM     18  O   UNL     1       6.727   3.748  13.758  0.00  0.00    +0.000 OA
BRANCH  18  20
ATOM     19  C   UNL     1       5.257   3.270  11.943  0.00  0.00    +0.000 C 
ATOM     20  C   UNL     1       6.610   3.837  12.333  0.00  0.00    +0.000 C 
ENDBRANCH  18  20
ENDBRANCH  16  18
ENDBRANCH   1  16
TORSDOF 4
ENDMDL
MODEL 5
REMARK VINA RESULT:      -6.1      2.832      3.561
REMARK  Name = 
REMARK  6 active torsions:
REMARK  status: ('A' for Active; 'I' for Inactive)
REMARK    1  A    between atoms: C_1  and  C_2
REMARK    2  A    between atoms: C_2  and  O_3
REMARK    3  A    between atoms: O_3  and  C_4
REMARK    4  A    between atoms: C_4  and  C_6
REMARK    5  A    between atoms: C_10  and  C_12
REMARK    6  A    between atoms: C_18  and  C_19
REMARK                            x       y       z     vdW  Elec       q    Type
REMARK                         _______ _______ _______ _____ _____    ______ ____
ROOT
ATOM      1  C   UNL     1       3.537   4.975  19.426  0.00  0.00    +0.000 A 
ATOM      2  S   UNL     1       3.464   6.461  18.569  0.00  0.00    +0.000 S 
ATOM      3  C   UNL     1       2.206   6.988  19.573  0.00  0.00    +0.000 A 
ATOM      4  N   UNL     1       1.595   8.204  19.424  0.00  0.00    +0.000 N 
ATOM      5  C   UNL     1       1.709   9.076  18.364  0.00  0.00    +0.000 C 
ATOM      6  O   UNL     1       2.377   8.877  17.355  0.00  0.00    +0.000 OA
ATOM      7  N   UNL     1       1.868   6.174  20.543  0.00  0.00    +0.000 NA
ATOM      8  C   UNL     1       2.604   4.995  20.454  0.00  0.00    +0.000 A 
ATOM      9  C   UNL     1       2.295   3.913  21.429  0.00  0.00    +0.000 C 
ATOM     10  H   UNL     1       0.931   8.419  20.155  0.00  0.00    +0.000 HD
ENDROOT
BRANCH   5  11
ATOM     11  C   UNL     1       0.917  10.300  18.503  0.00  0.00    +0.000 A 
ATOM     12  C   UNL     1      -0.464  10.397  18.461  0.00  0.00    +0.000 A 
ATOM     13  C   UNL     1      -0.929  11.731  18.646  0.00  0.00    +0.000 A 
ATOM     14  C   UNL     1       0.110  12.617  18.816  0.00  0.00    +0.000 A 
ATOM     15  S   UNL     1       1.631  11.843  18.746  0.00  0.00    +0.000 S 
ENDBRANCH   5  11
BRANCH   1  16
ATOM     16  C   UNL     1       4.448   3.954  18.966  0.00  0.00    +0.000 C 
ATOM     17  O   UNL     1       5.595   3.777  19.365  0.00  0.00    +0.000 OA
BRANCH  16  18
ATOM     18  O   UNL     1       3.890   3.262  17.933  0.00  0.00    +0.000 OA
BRANCH  18  20
ATOM     19  C   UNL     1       1.882   2.012  18.232  0.00  0.00    +0.000 C 
ATOM     20  C   UNL     1       3.399   1.958  18.270  0.00  0.00    +0.000 C 
ENDBRANCH  18  20
ENDBRANCH  16  18
ENDBRANCH   1  16
TORSDOF 4
ENDMDL
MODEL 6
REMARK VINA RESULT:      -6.1      1.625      1.944
REMARK  Name = 
REMARK  6 active torsions:
REMARK  status: ('A' for Active; 'I' for Inactive)
REMARK    1  A    between atoms: C_1  and  C_2
REMARK    2  A    between atoms: C_2  and  O_3
REMARK    3  A    between atoms: O_3  and  C_4
REMARK    4  A    between atoms: C_4  and  C_6
REMARK    5  A    between atoms: C_10  and  C_12
REMARK    6  A    between atoms: C_18  and  C_19
REMARK                            x       y       z     vdW  Elec       q    Type
REMARK                         _______ _______ _______ _____ _____    ______ ____
ROOT
ATOM      1  C   UNL     1       4.787   5.036  16.993  0.00  0.00    +0.000 A 
ATOM      2  S   UNL     1       4.380   6.697  17.140  0.00  0.00    +0.000 S 
ATOM      3  C   UNL     1       3.051   6.295  18.110  0.00  0.00    +0.000 A 
ATOM      4  N   UNL     1       2.188   7.229  18.614  0.00  0.00    +0.000 N 
ATOM      5  C   UNL     1       2.094   8.559  18.266  0.00  0.00    +0.000 C 
ATOM      6  O   UNL     1       2.776   9.115  17.412  0.00  0.00    +0.000 OA
ATOM      7  N   UNL     1       2.912   5.022  18.391  0.00  0.00    +0.000 NA
ATOM      8  C   UNL     1       3.886   4.279  17.730  0.00  0.00    +0.000 A 
ATOM      9  C   UNL     1       3.834   2.797  17.866  0.00  0.00    +0.000 C 
ATOM     10  H   UNL     1       1.503   6.850  19.252  0.00  0.00    +0.000 HD
ENDROOT
BRANCH   5  11
ATOM     11  C   UNL     1       1.056   9.299  18.987  0.00  0.00    +0.000 A 
ATOM     12  C   UNL     1       0.102  10.134  18.431  0.00  0.00    +0.000 A 
ATOM     13  C   UNL     1      -0.777  10.693  19.402  0.00  0.00    +0.000 A 
ATOM     14  C   UNL     1      -0.465  10.275  20.676  0.00  0.00    +0.000 A 
ATOM     15  S   UNL     1       0.881   9.223  20.693  0.00  0.00    +0.000 S 
ENDBRANCH   5  11
BRANCH   1  16
ATOM     16  C   UNL     1       5.892   4.666  16.142  0.00  0.00    +0.000 C 
ATOM     17  O   UNL     1       5.850   3.869  15.209  0.00  0.00    +0.000 OA
BRANCH  16  18
ATOM     18  O   UNL     1       7.040   5.252  16.584  0.00  0.00    +0.000 OA
BRANCH  18  20
ATOM     19  C   UNL     1       7.787   5.787  18.784  0.00  0.00    +0.000 C 
ATOM     20  C   UNL     1       7.600   4.673  17.769  0.00  0.00    +0.000 C 
ENDBRANCH  18  20
ENDBRANCH  16  18
ENDBRANCH   1  16
TORSDOF 4
ENDMDL
MODEL 7
REMARK VINA RESULT:      -6.1      1.980      3.214
REMARK  Name = 
REMARK  6 active torsions:
REMARK  status: ('A' for Active; 'I' for Inactive)
REMARK    1  A    between atoms: C_1  and  C_2
REMARK    2  A    between atoms: C_2  and  O_3
REMARK    3  A    between atoms: O_3  and  C_4
REMARK    4  A    between atoms: C_4  and  C_6
REMARK    5  A    between atoms: C_10  and  C_12
REMARK    6  A    between atoms: C_18  and  C_19
REMARK                            x       y       z     vdW  Elec       q    Type
REMARK                         _______ _______ _______ _____ _____    ______ ____
ROOT
ATOM      1  C   UNL     1       3.939   5.349  18.369  0.00  0.00    +0.000 A 
ATOM      2  S   UNL     1       2.787   5.882  19.525  0.00  0.00    +0.000 S 
ATOM      3  C   UNL     1       2.665   7.372  18.730  0.00  0.00    +0.000 A 
ATOM      4  N   UNL     1       1.856   8.385  19.168  0.00  0.00    +0.000 N 
ATOM      5  C   UNL     1       1.210   8.477  20.382  0.00  0.00    +0.000 C 
ATOM      6  O   UNL     1       1.283   7.651  21.285  0.00  0.00    +0.000 OA
ATOM      7  N   UNL     1       3.368   7.494  17.630  0.00  0.00    +0.000 NA
ATOM      8  C   UNL     1       4.132   6.348  17.424  0.00  0.00    +0.000 A 
ATOM      9  C   UNL     1       5.061   6.339  16.261  0.00  0.00    +0.000 C 
ATOM     10  H   UNL     1       1.814   9.175  18.540  0.00  0.00    +0.000 HD
ENDROOT
BRANCH   5  11
ATOM     11  C   UNL     1       0.419   9.699  20.552  0.00  0.00    +0.000 A 
ATOM     12  C   UNL     1       0.190  10.373  21.739  0.00  0.00    +0.000 A 
ATOM     13  C   UNL     1      -0.609  11.540  21.567  0.00  0.00    +0.000 A 
ATOM     14  C   UNL     1      -0.974  11.720  20.252  0.00  0.00    +0.000 A 
ATOM     15  S   UNL     1      -0.362  10.486  19.241  0.00  0.00    +0.000 S 
ENDBRANCH   5  11
BRANCH   1  16
ATOM     16  C   UNL     1       4.554   4.056  18.548  0.00  0.00    +0.000 C 
ATOM     17  O   UNL     1       5.538   3.814  19.240  0.00  0.00    +0.000 OA
BRANCH  16  18
ATOM     18  O   UNL     1       3.947   3.135  17.748  0.00  0.00    +0.000 OA
BRANCH  18  20
ATOM     19  C   UNL     1       1.851   2.231  18.439  0.00  0.00    +0.000 C 
ATOM     20  C   UNL     1       3.356   2.026  18.437  0.00  0.00    +0.000 C 
ENDBRANCH  18  20
ENDBRANCH  16  18
ENDBRANCH   1  16
TORSDOF 4
ENDMDL
MODEL 8
REMARK VINA RESULT:      -6.0      1.218      1.331
REMARK  Name = 
REMARK  6 active torsions:
REMARK  status: ('A' for Active; 'I' for Inactive)
REMARK    1  A    between atoms: C_1  and  C_2
REMARK    2  A    between atoms: C_2  and  O_3
REMARK    3  A    between atoms: O_3  and  C_4
REMARK    4  A    between atoms: C_4  and  C_6
REMARK    5  A    between atoms: C_10  and  C_12
REMARK    6  A    between atoms: C_18  and  C_19
REMARK                            x       y       z     vdW  Elec       q    Type
REMARK                         _______ _______ _______ _____ _____    ______ ____
ROOT
ATOM      1  C   UNL     1       4.671   5.189  17.676  0.00  0.00    +0.000 A 
ATOM      2  S   UNL     1       4.072   6.786  17.482  0.00  0.00    +0.000 S 
ATOM      3  C   UNL     1       3.086   6.591  18.845  0.00  0.00    +0.000 A 
ATOM      4  N   UNL     1       2.241   7.568  19.298  0.00  0.00    +0.000 N 
ATOM      5  C   UNL     1       1.874   8.727  18.649  0.00  0.00    +0.000 C 
ATOM      6  O   UNL     1       2.244   9.055  17.527  0.00  0.00    +0.000 OA
ATOM      7  N   UNL     1       3.206   5.450  19.480  0.00  0.00    +0.000 NA
ATOM      8  C   UNL     1       4.092   4.619  18.801  0.00  0.00    +0.000 A 
ATOM      9  C   UNL     1       4.291   3.242  19.334  0.00  0.00    +0.000 C 
ATOM     10  H   UNL     1       1.791   7.344  20.174  0.00  0.00    +0.000 HD
ENDROOT
BRANCH   5  11
ATOM     11  C   UNL     1       0.941   9.569  19.401  0.00  0.00    +0.000 A 
ATOM     12  C   UNL     1       0.460   9.329  20.677  0.00  0.00    +0.000 A 
ATOM     13  C   UNL     1      -0.422  10.349  21.136  0.00  0.00    +0.000 A 
ATOM     14  C   UNL     1      -0.596  11.337  20.194  0.00  0.00    +0.000 A 
ATOM     15  S   UNL     1       0.294  11.028  18.769  0.00  0.00    +0.000 S 
ENDBRANCH   5  11
BRANCH   1  16
ATOM     16  C   UNL     1       5.583   4.666  16.687  0.00  0.00    +0.000 C 
ATOM     17  O   UNL     1       5.354   3.746  15.908  0.00  0.00    +0.000 OA
BRANCH  16  18
ATOM     18  O   UNL     1       6.798   5.273  16.805  0.00  0.00    +0.000 OA
BRANCH  18  20
ATOM     19  C   UNL     1       7.846   5.971  18.830  0.00  0.00    +0.000 C 
ATOM     20  C   UNL     1       7.610   4.803  17.888  0.00  0.00    +0.000 C 
ENDBRANCH  18  20
ENDBRANCH  16  18
ENDBRANCH   1  16
TORSDOF 4
ENDMDL
MODEL 9
REMARK VINA RESULT:      -6.0      2.266      2.392
REMARK  Name = 
REMARK  6 active torsions:
REMARK  status: ('A' for Active; 'I' for Inactive)
REMARK    1  A    between atoms: C_1  and  C_2
REMARK    2  A    between atoms: C_2  and  O_3
REMARK    3  A    between atoms: O_3  and  C_4
REMARK    4  A    between atoms: C_4  and  C_6
REMARK    5  A    between atoms: C_10  and  C_12
REMARK    6  A    between atoms: C_18  and  C_19
REMARK                            x       y       z     vdW  Elec       q    Type
REMARK                         _______ _______ _______ _____ _____    ______ ____
ROOT
ATOM      1  C   UNL     1       3.836   5.021  18.796  0.00  0.00    +0.000 A 
ATOM      2  S   UNL     1       3.631   6.578  18.103  0.00  0.00    +0.000 S 
ATOM      3  C   UNL     1       2.411   6.927  19.225  0.00  0.00    +0.000 A 
ATOM      4  N   UNL     1       1.728   8.113  19.237  0.00  0.00    +0.000 N 
ATOM      5  C   UNL     1       1.730   9.092  18.267  0.00  0.00    +0.000 C 
ATOM      6  O   UNL     1       2.345   9.035  17.208  0.00  0.00    +0.000 OA
ATOM      7  N   UNL     1       2.177   6.001  20.123  0.00  0.00    +0.000 NA
ATOM      8  C   UNL     1       2.968   4.883  19.871  0.00  0.00    +0.000 A 
ATOM      9  C   UNL     1       2.777   3.692  20.745  0.00  0.00    +0.000 C 
ATOM     10  H   UNL     1       1.100   8.214  20.022  0.00  0.00    +0.000 HD
ENDROOT
BRANCH   5  11
ATOM     11  C   UNL     1       0.884  10.247  18.576  0.00  0.00    +0.000 A 
ATOM     12  C   UNL     1      -0.498  10.257  18.663  0.00  0.00    +0.000 A 
ATOM     13  C   UNL     1      -1.021  11.538  18.998  0.00  0.00    +0.000 A 
ATOM     14  C   UNL     1      -0.024  12.475  19.150  0.00  0.00    +0.000 A 
ATOM     15  S   UNL     1       1.526  11.810  18.884  0.00  0.00    +0.000 S 
ENDBRANCH   5  11
BRANCH   1  16
ATOM     16  C   UNL     1       4.769   4.107  18.183  0.00  0.00    +0.000 C 
ATOM     17  O   UNL     1       4.505   3.277  17.318  0.00  0.00    +0.000 OA
BRANCH  16  18
ATOM     18  O   UNL     1       5.990   4.217  18.778  0.00  0.00    +0.000 OA
BRANCH  18  20
ATOM     19  C   UNL     1       7.639   5.930  18.595  0.00  0.00    +0.000 C 
ATOM     20  C   UNL     1       7.038   4.704  17.931  0.00  0.00    +0.000 C 
ENDBRANCH  18  20
ENDBRANCH  16  18
ENDBRANCH   1  16
TORSDOF 4
ENDMDL
