MODEL 1
REMARK VINA RESULT:      -9.9      0.000      0.000
REMARK  Name = 
REMARK  3 active torsions:
REMARK  status: ('A' for Active; 'I' for Inactive)
REMARK    1  A    between atoms: C_6  and  C_7
REMARK    2  A    between atoms: C_7  and  C_8
REMARK    3  A    between atoms: C_7  and  C_17
REMARK                            x       y       z     vdW  Elec       q    Type
REMARK                         _______ _______ _______ _____ _____    ______ ____
ROOT
ATOM      1  C   UNL     1       3.341   5.570  18.920  0.00  0.00    +0.000 C 
ENDROOT
BRANCH   1   2
ATOM      2  C   UNL     1       4.707   5.286  18.556  0.00  0.00    +0.000 A 
ATOM      3  C   UNL     1       5.772   5.411  19.423  0.00  0.00    +0.000 A 
ATOM      4  N   UNL     1       6.917   5.171  18.711  0.00  0.00    +0.000 N 
ATOM      5  C   UNL     1       6.615   4.903  17.395  0.00  0.00    +0.000 A 
ATOM      6  C   UNL     1       7.462   4.635  16.313  0.00  0.00    +0.000 A 
ATOM      7  C   UNL     1       6.872   4.401  15.068  0.00  0.00    +0.000 A 
ATOM      8  C   UNL     1       5.487   4.418  14.915  0.00  0.00    +0.000 A 
ATOM      9  C   UNL     1       4.654   4.683  16.006  0.00  0.00    +0.000 A 
ATOM     10  C   UNL     1       5.223   4.949  17.270  0.00  0.00    +0.000 A 
ATOM     11  H   UNL     1       7.853   5.211  19.086  0.00  0.00    +0.000 HD
ENDBRANCH   1   2
BRANCH   1  12
ATOM     12  C   UNL     1       2.824   6.915  18.737  0.00  0.00    +0.000 A 
ATOM     13  C   UNL     1       3.051   7.673  17.602  0.00  0.00    +0.000 A 
ATOM     14  N   UNL     1       2.404   8.868  17.739  0.00  0.00    +0.000 N 
ATOM     15  C   UNL     1       1.736   8.914  18.938  0.00  0.00    +0.000 A 
ATOM     16  C   UNL     1       0.919   9.924  19.466  0.00  0.00    +0.000 A 
ATOM     17  C   UNL     1       0.362   9.719  20.728  0.00  0.00    +0.000 A 
ATOM     18  C   UNL     1       0.623   8.553  21.440  0.00  0.00    +0.000 A 
ATOM     19  C   UNL     1       1.434   7.549  20.892  0.00  0.00    +0.000 A 
ATOM     20  C   UNL     1       2.003   7.715  19.609  0.00  0.00    +0.000 A 
ATOM     21  H   UNL     1       2.401   9.611  17.055  0.00  0.00    +0.000 HD
ENDBRANCH   1  12
BRANCH   1  27
ATOM     22  F   UNL     1       1.221   2.632  22.145  0.00  0.00    +0.000 F 
ATOM     23  C   UNL     1       1.393   2.991  20.866  0.00  0.00    +0.000 A 
ATOM     24  C   UNL     1       0.669   2.346  19.871  0.00  0.00    +0.000 A 
ATOM     25  C   UNL     1       0.847   2.719  18.540  0.00  0.00    +0.000 A 
ATOM     26  C   UNL     1       1.745   3.740  18.218  0.00  0.00    +0.000 A 
ATOM     27  C   UNL     1       2.462   4.401  19.227  0.00  0.00    +0.000 A 
ATOM     28  C   UNL     1       2.282   4.014  20.560  0.00  0.00    +0.000 A 
ENDBRANCH   1  27
TORSDOF 3
ENDMDL
MODEL 2
REMARK VINA RESULT:      -9.7      0.841      1.270
REMARK  Name = 
REMARK  3 active torsions:
REMARK  status: ('A' for Active; 'I' for Inactive)
REMARK    1  A    between atoms: C_6  and  C_7
REMARK    2  A    between atoms: C_7  and  C_8
REMARK    3  A    between atoms: C_7  and  C_17
REMARK                            x       y       z     vdW  Elec       q    Type
REMARK                         _______ _______ _______ _____ _____    ______ ____
ROOT
ATOM      1  C   UNL     1       3.398   5.686  19.180  0.00  0.00    +0.000 C 
ENDROOT
BRANCH   1   2
ATOM      2  C   UNL     1       4.725   5.339  18.738  0.00  0.00    +0.000 A 
ATOM      3  C   UNL     1       5.852   5.463  19.523  0.00  0.00    +0.000 A 
ATOM      4  N   UNL     1       6.936   5.152  18.747  0.00  0.00    +0.000 N 
ATOM      5  C   UNL     1       6.535   4.837  17.468  0.00  0.00    +0.000 A 
ATOM      6  C   UNL     1       7.295   4.493  16.345  0.00  0.00    +0.000 A 
ATOM      7  C   UNL     1       6.613   4.225  15.154  0.00  0.00    +0.000 A 
ATOM      8  C   UNL     1       5.222   4.285  15.095  0.00  0.00    +0.000 A 
ATOM      9  C   UNL     1       4.476   4.626  16.227  0.00  0.00    +0.000 A 
ATOM     10  C   UNL     1       5.140   4.927  17.437  0.00  0.00    +0.000 A 
ATOM     11  H   UNL     1       7.897   5.175  19.055  0.00  0.00    +0.000 HD
ENDBRANCH   1   2
BRANCH   1  12
ATOM     12  C   UNL     1       2.862   6.995  18.850  0.00  0.00    +0.000 A 
ATOM     13  C   UNL     1       3.123   7.650  17.660  0.00  0.00    +0.000 A 
ATOM     14  N   UNL     1       2.446   8.837  17.658  0.00  0.00    +0.000 N 
ATOM     15  C   UNL     1       1.725   8.977  18.818  0.00  0.00    +0.000 A 
ATOM     16  C   UNL     1       0.865  10.010  19.214  0.00  0.00    +0.000 A 
ATOM     17  C   UNL     1       0.257   9.910  20.466  0.00  0.00    +0.000 A 
ATOM     18  C   UNL     1       0.511   8.821  21.294  0.00  0.00    +0.000 A 
ATOM     19  C   UNL     1       1.365   7.792  20.877  0.00  0.00    +0.000 A 
ATOM     20  C   UNL     1       1.987   7.852  19.609  0.00  0.00    +0.000 A 
ATOM     21  H   UNL     1       2.458   9.513  16.907  0.00  0.00    +0.000 HD
ENDBRANCH   1  12
BRANCH   1  27
ATOM     22  F   UNL     1       0.283   2.028  18.514  0.00  0.00    +0.000 F 
ATOM     23  C   UNL     1       1.041   2.746  19.354  0.00  0.00    +0.000 A 
ATOM     24  C   UNL     1       1.112   2.381  20.693  0.00  0.00    +0.000 A 
ATOM     25  C   UNL     1       1.900   3.126  21.567  0.00  0.00    +0.000 A 
ATOM     26  C   UNL     1       2.616   4.229  21.091  0.00  0.00    +0.000 A 
ATOM     27  C   UNL     1       2.555   4.584  19.734  0.00  0.00    +0.000 A 
ATOM     28  C   UNL     1       1.755   3.833  18.866  0.00  0.00    +0.000 A 
ENDBRANCH   1  27
TORSDOF 3
ENDMDL
MODEL 3
REMARK VINA RESULT:      -9.3      0.823      5.913
REMARK  Name = 
REMARK  3 active torsions:
REMARK  status: ('A' for Active; 'I' for Inactive)
REMARK    1  A    between atoms: C_6  and  C_7
REMARK    2  A    between atoms: C_7  and  C_8
REMARK    3  A    between atoms: C_7  and  C_17
REMARK                            x       y       z     vdW  Elec       q    Type
REMARK                         _______ _______ _______ _____ _____    ______ ____
ROOT
ATOM      1  C   UNL     1       3.235   5.700  18.736  0.00  0.00    +0.000 C 
ENDROOT
BRANCH   1   2
ATOM      2  C   UNL     1       2.655   7.011  18.584  0.00  0.00    +0.000 A 
ATOM      3  C   UNL     1       2.804   7.788  17.455  0.00  0.00    +0.000 A 
ATOM      4  N   UNL     1       2.221   9.001  17.706  0.00  0.00    +0.000 N 
ATOM      5  C   UNL     1       1.705   9.030  18.982  0.00  0.00    +0.000 A 
ATOM      6  C   UNL     1       1.057  10.063  19.669  0.00  0.00    +0.000 A 
ATOM      7  C   UNL     1       0.636   9.810  20.978  0.00  0.00    +0.000 A 
ATOM      8  C   UNL     1       0.843   8.567  21.571  0.00  0.00    +0.000 A 
ATOM      9  C   UNL     1       1.488   7.543  20.870  0.00  0.00    +0.000 A 
ATOM     10  C   UNL     1       1.946   7.778  19.556  0.00  0.00    +0.000 A 
ATOM     11  H   UNL     1       2.195   9.777  17.062  0.00  0.00    +0.000 HD
ENDBRANCH   1   2
BRANCH   1  12
ATOM     12  C   UNL     1       4.637   5.503  18.414  0.00  0.00    +0.000 A 
ATOM     13  C   UNL     1       5.650   5.533  19.356  0.00  0.00    +0.000 A 
ATOM     14  N   UNL     1       6.837   5.284  18.728  0.00  0.00    +0.000 N 
ATOM     15  C   UNL     1       6.632   5.073  17.387  0.00  0.00    +0.000 A 
ATOM     16  C   UNL     1       7.557   4.749  16.384  0.00  0.00    +0.000 A 
ATOM     17  C   UNL     1       7.081   4.596  15.082  0.00  0.00    +0.000 A 
ATOM     18  C   UNL     1       5.732   4.774  14.793  0.00  0.00    +0.000 A 
ATOM     19  C   UNL     1       4.819   5.088  15.810  0.00  0.00    +0.000 A 
ATOM     20  C   UNL     1       5.264   5.234  17.144  0.00  0.00    +0.000 A 
ATOM     21  H   UNL     1       7.739   5.245  19.182  0.00  0.00    +0.000 HD
ENDBRANCH   1  12
BRANCH   1  27
ATOM     22  F   UNL     1       0.047   2.045  18.668  0.00  0.00    +0.000 F 
ATOM     23  C   UNL     1       0.866   2.834  19.376  0.00  0.00    +0.000 A 
ATOM     24  C   UNL     1       1.025   2.609  20.738  0.00  0.00    +0.000 A 
ATOM     25  C   UNL     1       1.878   3.429  21.474  0.00  0.00    +0.000 A 
ATOM     26  C   UNL     1       2.570   4.463  20.838  0.00  0.00    +0.000 A 
ATOM     27  C   UNL     1       2.421   4.676  19.459  0.00  0.00    +0.000 A 
ATOM     28  C   UNL     1       1.556   3.852  18.730  0.00  0.00    +0.000 A 
ENDBRANCH   1  27
TORSDOF 3
ENDMDL
MODEL 4
REMARK VINA RESULT:      -9.0      2.166      4.779
REMARK  Name = 
REMARK  3 active torsions:
REMARK  status: ('A' for Active; 'I' for Inactive)
REMARK    1  A    between atoms: C_6  and  C_7
REMARK    2  A    between atoms: C_7  and  C_8
REMARK    3  A    between atoms: C_7  and  C_17
REMARK                            x       y       z     vdW  Elec       q    Type
REMARK                         _______ _______ _______ _____ _____    ______ ____
ROOT
ATOM      1  C   UNL     1       3.159   6.303  18.109  0.00  0.00    +0.000 C 
ENDROOT
BRANCH   1   2
ATOM      2  C   UNL     1       2.408   5.093  18.332  0.00  0.00    +0.000 A 
ATOM      3  C   UNL     1       1.629   4.486  17.369  0.00  0.00    +0.000 A 
ATOM      4  N   UNL     1       0.981   3.435  17.962  0.00  0.00    +0.000 N 
ATOM      5  C   UNL     1       1.317   3.354  19.294  0.00  0.00    +0.000 A 
ATOM      6  C   UNL     1       0.876   2.467  20.282  0.00  0.00    +0.000 A 
ATOM      7  C   UNL     1       1.390   2.623  21.573  0.00  0.00    +0.000 A 
ATOM      8  C   UNL     1       2.321   3.619  21.859  0.00  0.00    +0.000 A 
ATOM      9  C   UNL     1       2.756   4.495  20.860  0.00  0.00    +0.000 A 
ATOM     10  C   UNL     1       2.234   4.377  19.553  0.00  0.00    +0.000 A 
ATOM     11  H   UNL     1       0.327   2.822  17.499  0.00  0.00    +0.000 HD
ENDBRANCH   1   2
BRANCH   1  12
ATOM     12  C   UNL     1       2.505   7.587  18.297  0.00  0.00    +0.000 A 
ATOM     13  C   UNL     1       2.395   8.541  17.301  0.00  0.00    +0.000 A 
ATOM     14  N   UNL     1       1.704   9.610  17.797  0.00  0.00    +0.000 N 
ATOM     15  C   UNL     1       1.337   9.379  19.099  0.00  0.00    +0.000 A 
ATOM     16  C   UNL     1       0.589  10.182  19.971  0.00  0.00    +0.000 A 
ATOM     17  C   UNL     1       0.363   9.708  21.264  0.00  0.00    +0.000 A 
ATOM     18  C   UNL     1       0.880   8.483  21.671  0.00  0.00    +0.000 A 
ATOM     19  C   UNL     1       1.617   7.688  20.783  0.00  0.00    +0.000 A 
ATOM     20  C   UNL     1       1.851   8.128  19.460  0.00  0.00    +0.000 A 
ATOM     21  H   UNL     1       1.479  10.449  17.280  0.00  0.00    +0.000 HD
ENDBRANCH   1  12
BRANCH   1  27
ATOM     22  F   UNL     1       7.544   5.447  19.996  0.00  0.00    +0.000 F 
ATOM     23  C   UNL     1       6.793   5.693  18.914  0.00  0.00    +0.000 A 
ATOM     24  C   UNL     1       7.387   5.701  17.658  0.00  0.00    +0.000 A 
ATOM     25  C   UNL     1       6.606   5.956  16.532  0.00  0.00    +0.000 A 
ATOM     26  C   UNL     1       5.236   6.193  16.673  0.00  0.00    +0.000 A 
ATOM     27  C   UNL     1       4.637   6.166  17.943  0.00  0.00    +0.000 A 
ATOM     28  C   UNL     1       5.431   5.917  19.068  0.00  0.00    +0.000 A 
ENDBRANCH   1  27
TORSDOF 3
ENDMDL
MODEL 5
REMARK VINA RESULT:      -8.9      1.265      2.144
REMARK  Name = 
REMARK  3 active torsions:
REMARK  status: ('A' for Active; 'I' for Inactive)
REMARK    1  A    between atoms: C_6  and  C_7
REMARK    2  A    between atoms: C_7  and  C_8
REMARK    3  A    between atoms: C_7  and  C_17
REMARK                            x       y       z     vdW  Elec       q    Type
REMARK                         _______ _______ _______ _____ _____    ______ ____
ROOT
ATOM      1  C   UNL     1       3.040   5.890  18.772  0.00  0.00    +0.000 C 
ENDROOT
BRANCH   1   2
ATOM      2  C   UNL     1       4.145   5.494  17.936  0.00  0.00    +0.000 A 
ATOM      3  C   UNL     1       4.002   5.031  16.645  0.00  0.00    +0.000 A 
ATOM      4  N   UNL     1       5.239   4.647  16.202  0.00  0.00    +0.000 N 
ATOM      5  C   UNL     1       6.183   4.844  17.185  0.00  0.00    +0.000 A 
ATOM      6  C   UNL     1       7.554   4.567  17.186  0.00  0.00    +0.000 A 
ATOM      7  C   UNL     1       8.279   4.870  18.342  0.00  0.00    +0.000 A 
ATOM      8  C   UNL     1       7.656   5.442  19.449  0.00  0.00    +0.000 A 
ATOM      9  C   UNL     1       6.286   5.716  19.432  0.00  0.00    +0.000 A 
ATOM     10  C   UNL     1       5.524   5.398  18.287  0.00  0.00    +0.000 A 
ATOM     11  H   UNL     1       5.434   4.250  15.295  0.00  0.00    +0.000 HD
ENDBRANCH   1   2
BRANCH   1  12
ATOM     12  C   UNL     1       2.530   7.247  18.678  0.00  0.00    +0.000 A 
ATOM     13  C   UNL     1       2.667   8.037  17.551  0.00  0.00    +0.000 A 
ATOM     14  N   UNL     1       2.054   9.236  17.782  0.00  0.00    +0.000 N 
ATOM     15  C   UNL     1       1.496   9.252  19.037  0.00  0.00    +0.000 A 
ATOM     16  C   UNL     1       0.746  10.255  19.666  0.00  0.00    +0.000 A 
ATOM     17  C   UNL     1       0.299  10.018  20.966  0.00  0.00    +0.000 A 
ATOM     18  C   UNL     1       0.604   8.826  21.615  0.00  0.00    +0.000 A 
ATOM     19  C   UNL     1       1.347   7.830  20.967  0.00  0.00    +0.000 A 
ATOM     20  C   UNL     1       1.802   8.029  19.644  0.00  0.00    +0.000 A 
ATOM     21  H   UNL     1       2.003  10.001  17.124  0.00  0.00    +0.000 HD
ENDBRANCH   1  12
BRANCH   1  27
ATOM     22  F   UNL     1       0.070   2.055  18.761  0.00  0.00    +0.000 F 
ATOM     23  C   UNL     1       0.873   2.877  19.450  0.00  0.00    +0.000 A 
ATOM     24  C   UNL     1       1.104   2.635  20.798  0.00  0.00    +0.000 A 
ATOM     25  C   UNL     1       1.940   3.489  21.515  0.00  0.00    +0.000 A 
ATOM     26  C   UNL     1       2.543   4.575  20.873  0.00  0.00    +0.000 A 
ATOM     27  C   UNL     1       2.320   4.806  19.506  0.00  0.00    +0.000 A 
ATOM     28  C   UNL     1       1.473   3.946  18.797  0.00  0.00    +0.000 A 
ENDBRANCH   1  27
TORSDOF 3
ENDMDL
MODEL 6
REMARK VINA RESULT:      -8.9      2.698      5.037
REMARK  Name = 
REMARK  3 active torsions:
REMARK  status: ('A' for Active; 'I' for Inactive)
REMARK    1  A    between atoms: C_6  and  C_7
REMARK    2  A    between atoms: C_7  and  C_8
REMARK    3  A    between atoms: C_7  and  C_17
REMARK                            x       y       z     vdW  Elec       q    Type
REMARK                         _______ _______ _______ _____ _____    ______ ____
ROOT
ATOM      1  C   UNL     1       3.519   6.207  18.245  0.00  0.00    +0.000 C 
ENDROOT
BRANCH   1   2
ATOM      2  C   UNL     1       2.817   4.953  18.359  0.00  0.00    +0.000 A 
ATOM      3  C   UNL     1       2.289   4.270  17.284  0.00  0.00    +0.000 A 
ATOM      4  N   UNL     1       1.603   3.191  17.774  0.00  0.00    +0.000 N 
ATOM      5  C   UNL     1       1.668   3.166  19.149  0.00  0.00    +0.000 A 
ATOM      6  C   UNL     1       1.093   2.274  20.062  0.00  0.00    +0.000 A 
ATOM      7  C   UNL     1       1.325   2.497  21.422  0.00  0.00    +0.000 A 
ATOM      8  C   UNL     1       2.113   3.562  21.851  0.00  0.00    +0.000 A 
ATOM      9  C   UNL     1       2.684   4.442  20.927  0.00  0.00    +0.000 A 
ATOM     10  C   UNL     1       2.446   4.257  19.547  0.00  0.00    +0.000 A 
ATOM     11  H   UNL     1       1.096   2.522  17.213  0.00  0.00    +0.000 HD
ENDBRANCH   1   2
BRANCH   1  12
ATOM     12  C   UNL     1       2.766   7.448  18.310  0.00  0.00    +0.000 A 
ATOM     13  C   UNL     1       2.646   8.325  17.246  0.00  0.00    +0.000 A 
ATOM     14  N   UNL     1       1.854   9.369  17.630  0.00  0.00    +0.000 N 
ATOM     15  C   UNL     1       1.430   9.196  18.925  0.00  0.00    +0.000 A 
ATOM     16  C   UNL     1       0.579   9.996  19.699  0.00  0.00    +0.000 A 
ATOM     17  C   UNL     1       0.314   9.593  21.008  0.00  0.00    +0.000 A 
ATOM     18  C   UNL     1       0.892   8.438  21.525  0.00  0.00    +0.000 A 
ATOM     19  C   UNL     1       1.733   7.644  20.734  0.00  0.00    +0.000 A 
ATOM     20  C   UNL     1       2.011   8.014  19.398  0.00  0.00    +0.000 A 
ATOM     21  H   UNL     1       1.600  10.153  17.046  0.00  0.00    +0.000 HD
ENDBRANCH   1  12
BRANCH   1  27
ATOM     22  F   UNL     1       7.857   7.818  16.793  0.00  0.00    +0.000 F 
ATOM     23  C   UNL     1       7.146   7.021  17.602  0.00  0.00    +0.000 A 
ATOM     24  C   UNL     1       7.801   6.261  18.562  0.00  0.00    +0.000 A 
ATOM     25  C   UNL     1       7.061   5.433  19.404  0.00  0.00    +0.000 A 
ATOM     26  C   UNL     1       5.670   5.378  19.281  0.00  0.00    +0.000 A 
ATOM     27  C   UNL     1       5.010   6.161  18.321  0.00  0.00    +0.000 A 
ATOM     28  C   UNL     1       5.763   6.984  17.475  0.00  0.00    +0.000 A 
ENDBRANCH   1  27
TORSDOF 3
ENDMDL
MODEL 7
REMARK VINA RESULT:      -8.8      0.534      5.825
REMARK  Name = 
REMARK  3 active torsions:
REMARK  status: ('A' for Active; 'I' for Inactive)
REMARK    1  A    between atoms: C_6  and  C_7
REMARK    2  A    between atoms: C_7  and  C_8
REMARK    3  A    between atoms: C_7  and  C_17
REMARK                            x       y       z     vdW  Elec       q    Type
REMARK                         _______ _______ _______ _____ _____    ______ ____
ROOT
ATOM      1  C   UNL     1       3.241   5.776  18.486  0.00  0.00    +0.000 C 
ENDROOT
BRANCH   1   2
ATOM      2  C   UNL     1       2.610   7.071  18.432  0.00  0.00    +0.000 A 
ATOM      3  C   UNL     1       2.652   7.898  17.330  0.00  0.00    +0.000 A 
ATOM      4  N   UNL     1       2.049   9.079  17.673  0.00  0.00    +0.000 N 
ATOM      5  C   UNL     1       1.626   9.038  18.983  0.00  0.00    +0.000 A 
ATOM      6  C   UNL     1       0.997  10.018  19.757  0.00  0.00    +0.000 A 
ATOM      7  C   UNL     1       0.680   9.699  21.081  0.00  0.00    +0.000 A 
ATOM      8  C   UNL     1       0.969   8.440  21.603  0.00  0.00    +0.000 A 
ATOM      9  C   UNL     1       1.594   7.469  20.816  0.00  0.00    +0.000 A 
ATOM     10  C   UNL     1       1.949   7.773  19.483  0.00  0.00    +0.000 A 
ATOM     11  H   UNL     1       1.952   9.879  17.066  0.00  0.00    +0.000 HD
ENDBRANCH   1   2
BRANCH   1  12
ATOM     12  C   UNL     1       4.641   5.654  18.119  0.00  0.00    +0.000 A 
ATOM     13  C   UNL     1       5.685   5.909  18.990  0.00  0.00    +0.000 A 
ATOM     14  N   UNL     1       6.863   5.673  18.340  0.00  0.00    +0.000 N 
ATOM     15  C   UNL     1       6.623   5.248  17.057  0.00  0.00    +0.000 A 
ATOM     16  C   UNL     1       7.530   4.859  16.062  0.00  0.00    +0.000 A 
ATOM     17  C   UNL     1       7.016   4.474  14.823  0.00  0.00    +0.000 A 
ATOM     18  C   UNL     1       5.645   4.492  14.587  0.00  0.00    +0.000 A 
ATOM     19  C   UNL     1       4.752   4.874  15.596  0.00  0.00    +0.000 A 
ATOM     20  C   UNL     1       5.236   5.255  16.869  0.00  0.00    +0.000 A 
ATOM     21  H   UNL     1       7.782   5.779  18.745  0.00  0.00    +0.000 HD
ENDBRANCH   1  12
BRANCH   1  27
ATOM     22  F   UNL     1       2.263   3.158  22.450  0.00  0.00    +0.000 F 
ATOM     23  C   UNL     1       1.997   3.429  21.165  0.00  0.00    +0.000 A 
ATOM     24  C   UNL     1       0.956   2.767  20.527  0.00  0.00    +0.000 A 
ATOM     25  C   UNL     1       0.679   3.050  19.191  0.00  0.00    +0.000 A 
ATOM     26  C   UNL     1       1.444   3.999  18.507  0.00  0.00    +0.000 A 
ATOM     27  C   UNL     1       2.484   4.679  19.160  0.00  0.00    +0.000 A 
ATOM     28  C   UNL     1       2.759   4.382  20.500  0.00  0.00    +0.000 A 
ENDBRANCH   1  27
TORSDOF 3
ENDMDL
MODEL 8
REMARK VINA RESULT:      -8.8      1.236      1.478
REMARK  Name = 
REMARK  3 active torsions:
REMARK  status: ('A' for Active; 'I' for Inactive)
REMARK    1  A    between atoms: C_6  and  C_7
REMARK    2  A    between atoms: C_7  and  C_8
REMARK    3  A    between atoms: C_7  and  C_17
REMARK                            x       y       z     vdW  Elec       q    Type
REMARK                         _______ _______ _______ _____ _____    ______ ____
ROOT
ATOM      1  C   UNL     1       3.809   5.785  18.402  0.00  0.00    +0.000 C 
ENDROOT
BRANCH   1   2
ATOM      2  C   UNL     1       5.098   5.721  17.759  0.00  0.00    +0.000 A 
ATOM      3  C   UNL     1       6.235   6.320  18.259  0.00  0.00    +0.000 A 
ATOM      4  N   UNL     1       7.234   6.148  17.339  0.00  0.00    +0.000 N 
ATOM      5  C   UNL     1       6.764   5.458  16.244  0.00  0.00    +0.000 A 
ATOM      6  C   UNL     1       7.417   5.090  15.063  0.00  0.00    +0.000 A 
ATOM      7  C   UNL     1       6.682   4.387  14.104  0.00  0.00    +0.000 A 
ATOM      8  C   UNL     1       5.348   4.052  14.327  0.00  0.00    +0.000 A 
ATOM      9  C   UNL     1       4.710   4.423  15.514  0.00  0.00    +0.000 A 
ATOM     10  C   UNL     1       5.421   5.156  16.489  0.00  0.00    +0.000 A 
ATOM     11  H   UNL     1       8.175   6.501  17.432  0.00  0.00    +0.000 HD
ENDBRANCH   1   2
BRANCH   1  12
ATOM     12  C   UNL     1       3.067   7.033  18.378  0.00  0.00    +0.000 A 
ATOM     13  C   UNL     1       3.058   7.897  17.297  0.00  0.00    +0.000 A 
ATOM     14  N   UNL     1       2.243   8.953  17.590  0.00  0.00    +0.000 N 
ATOM     15  C   UNL     1       1.695   8.801  18.839  0.00  0.00    +0.000 A 
ATOM     16  C   UNL     1       0.781   9.619  19.517  0.00  0.00    +0.000 A 
ATOM     17  C   UNL     1       0.387   9.235  20.799  0.00  0.00    +0.000 A 
ATOM     18  C   UNL     1       0.900   8.082  21.384  0.00  0.00    +0.000 A 
ATOM     19  C   UNL     1       1.806   7.270  20.688  0.00  0.00    +0.000 A 
ATOM     20  C   UNL     1       2.215   7.620  19.380  0.00  0.00    +0.000 A 
ATOM     21  H   UNL     1       2.055   9.732  16.974  0.00  0.00    +0.000 HD
ENDBRANCH   1  12
BRANCH   1  27
ATOM     22  F   UNL     1       0.102   2.658  18.373  0.00  0.00    +0.000 F 
ATOM     23  C   UNL     1       1.351   2.946  18.761  0.00  0.00    +0.000 A 
ATOM     24  C   UNL     1       2.087   1.995  19.456  0.00  0.00    +0.000 A 
ATOM     25  C   UNL     1       3.388   2.293  19.859  0.00  0.00    +0.000 A 
ATOM     26  C   UNL     1       3.942   3.540  19.555  0.00  0.00    +0.000 A 
ATOM     27  C   UNL     1       3.201   4.491  18.837  0.00  0.00    +0.000 A 
ATOM     28  C   UNL     1       1.893   4.185  18.443  0.00  0.00    +0.000 A 
ENDBRANCH   1  27
TORSDOF 3
ENDMDL
MODEL 9
REMARK VINA RESULT:      -8.7      1.401      1.955
REMARK  Name = 
REMARK  3 active torsions:
REMARK  status: ('A' for Active; 'I' for Inactive)
REMARK    1  A    between atoms: C_6  and  C_7
REMARK    2  A    between atoms: C_7  and  C_8
REMARK    3  A    between atoms: C_7  and  C_17
REMARK                            x       y       z     vdW  Elec       q    Type
REMARK                         _______ _______ _______ _____ _____    ______ ____
ROOT
ATOM      1  C   UNL     1       2.804   6.649  18.512  0.00  0.00    +0.000 C 
ENDROOT
BRANCH   1   2
ATOM      2  C   UNL     1       4.026   6.617  17.749  0.00  0.00    +0.000 A 
ATOM      3  C   UNL     1       4.135   7.083  16.456  0.00  0.00    +0.000 A 
ATOM      4  N   UNL     1       5.397   6.792  16.014  0.00  0.00    +0.000 N 
ATOM      5  C   UNL     1       6.108   6.136  16.994  0.00  0.00    +0.000 A 
ATOM      6  C   UNL     1       7.411   5.625  16.972  0.00  0.00    +0.000 A 
ATOM      7  C   UNL     1       7.881   4.992  18.126  0.00  0.00    +0.000 A 
ATOM      8  C   UNL     1       7.082   4.888  19.263  0.00  0.00    +0.000 A 
ATOM      9  C   UNL     1       5.784   5.406  19.271  0.00  0.00    +0.000 A 
ATOM     10  C   UNL     1       5.274   6.028  18.110  0.00  0.00    +0.000 A 
ATOM     11  H   UNL     1       5.752   7.000  15.093  0.00  0.00    +0.000 HD
ENDBRANCH   1   2
BRANCH   1  12
ATOM     12  C   UNL     1       2.087   7.905  18.649  0.00  0.00    +0.000 A 
ATOM     13  C   UNL     1       1.823   8.754  17.589  0.00  0.00    +0.000 A 
ATOM     14  N   UNL     1       1.111   9.823  18.054  0.00  0.00    +0.000 N 
ATOM     15  C   UNL     1       0.881   9.694  19.401  0.00  0.00    +0.000 A 
ATOM     16  C   UNL     1       0.164  10.531  20.267  0.00  0.00    +0.000 A 
ATOM     17  C   UNL     1       0.090  10.169  21.613  0.00  0.00    +0.000 A 
ATOM     18  C   UNL     1       0.721   9.018  22.074  0.00  0.00    +0.000 A 
ATOM     19  C   UNL     1       1.425   8.187  21.192  0.00  0.00    +0.000 A 
ATOM     20  C   UNL     1       1.508   8.515  19.819  0.00  0.00    +0.000 A 
ATOM     21  H   UNL     1       0.785  10.595  17.490  0.00  0.00    +0.000 HD
ENDBRANCH   1  12
BRANCH   1  27
ATOM     22  F   UNL     1       1.530   3.467  21.944  0.00  0.00    +0.000 F 
ATOM     23  C   UNL     1       1.556   3.799  20.646  0.00  0.00    +0.000 A 
ATOM     24  C   UNL     1       0.938   2.973  19.716  0.00  0.00    +0.000 A 
ATOM     25  C   UNL     1       0.964   3.320  18.366  0.00  0.00    +0.000 A 
ATOM     26  C   UNL     1       1.604   4.494  17.961  0.00  0.00    +0.000 A 
ATOM     27  C   UNL     1       2.213   5.335  18.906  0.00  0.00    +0.000 A 
ATOM     28  C   UNL     1       2.188   4.974  20.258  0.00  0.00    +0.000 A 
ENDBRANCH   1  27
TORSDOF 3
ENDMDL
