MODEL 1
REMARK VINA RESULT:      -7.0      0.000      0.000
REMARK  Name = 
REMARK  7 active torsions:
REMARK  status: ('A' for Active; 'I' for Inactive)
REMARK    1  A    between atoms: C_1  and  C_2
REMARK    2  A    between atoms: C_2  and  C_3
REMARK    3  A    between atoms: C_2  and  C_4
REMARK    4  A    between atoms: C_2  and  C_5
REMARK    5  A    between atoms: C_5  and  C_7
REMARK    6  A    between atoms: C_7  and  S_8
REMARK    7  A    between atoms: S_8  and  C_9
REMARK                            x       y       z     vdW  Elec       q    Type
REMARK                         _______ _______ _______ _____ _____    ______ ____
ROOT
ATOM      1  C   UNL     1       5.362   4.872  19.180  0.00  0.00    +0.000 A 
ATOM      2  N   UNL     1       5.199   3.590  19.449  0.00  0.00    +0.000 NA
ATOM      3  C   UNL     1       3.890   3.347  19.139  0.00  0.00    +0.000 A 
ATOM      4  C   UNL     1       3.138   2.166  19.191  0.00  0.00    +0.000 A 
ATOM      5  C   UNL     1       1.798   2.211  18.782  0.00  0.00    +0.000 A 
ATOM      6  C   UNL     1       1.221   3.408  18.339  0.00  0.00    +0.000 A 
ATOM      7  C   UNL     1       1.959   4.600  18.288  0.00  0.00    +0.000 A 
ATOM      8  C   UNL     1       3.285   4.514  18.698  0.00  0.00    +0.000 A 
ATOM      9  O   UNL     1       4.226   5.507  18.738  0.00  0.00    +0.000 OA
ENDROOT
BRANCH   1  10
ATOM     10  S   UNL     1       6.921   5.632  19.326  0.00  0.00    +0.000 S 
BRANCH  10  11
ATOM     11  C   UNL     1       7.214   6.237  17.649  0.00  0.00    +0.000 C 
BRANCH  11  12
ATOM     12  C   UNL     1       7.256   5.048  16.692  0.00  0.00    +0.000 C 
ATOM     13  O   UNL     1       8.100   4.159  16.844  0.00  0.00    +0.000 OA
BRANCH  12  15
ATOM     14  C   UNL     1       6.920   4.895  14.195  0.00  0.00    +0.000 C 
ATOM     15  C   UNL     1       6.206   4.960  15.560  0.00  0.00    +0.000 C 
ATOM     16  C   UNL     1       5.299   6.197  15.567  0.00  0.00    +0.000 C 
ATOM     17  C   UNL     1       5.377   3.682  15.729  0.00  0.00    +0.000 C 
ENDBRANCH  12  15
ENDBRANCH  11  12
ENDBRANCH  10  11
ENDBRANCH   1  10
TORSDOF 4
ENDMDL
MODEL 2
REMARK VINA RESULT:      -7.0      0.066      1.050
REMARK  Name = 
REMARK  7 active torsions:
REMARK  status: ('A' for Active; 'I' for Inactive)
REMARK    1  A    between atoms: C_1  and  C_2
REMARK    2  A    between atoms: C_2  and  C_3
REMARK    3  A    between atoms: C_2  and  C_4
REMARK    4  A    between atoms: C_2  and  C_5
REMARK    5  A    between atoms: C_5  and  C_7
REMARK    6  A    between atoms: C_7  and  S_8
REMARK    7  A    between atoms: S_8  and  C_9
REMARK                            x       y       z     vdW  Elec       q    Type
REMARK                         _______ _______ _______ _____ _____    ______ ____
ROOT
ATOM      1  C   UNL     1       5.393   4.890  19.181  0.00  0.00    +0.000 A 
ATOM      2  N   UNL     1       5.266   3.593  19.386  0.00  0.00    +0.000 NA
ATOM      3  C   UNL     1       3.951   3.338  19.111  0.00  0.00    +0.000 A 
ATOM      4  C   UNL     1       3.226   2.140  19.126  0.00  0.00    +0.000 A 
ATOM      5  C   UNL     1       1.870   2.178  18.770  0.00  0.00    +0.000 A 
ATOM      6  C   UNL     1       1.254   3.384  18.413  0.00  0.00    +0.000 A 
ATOM      7  C   UNL     1       1.965   4.593  18.400  0.00  0.00    +0.000 A 
ATOM      8  C   UNL     1       3.307   4.514  18.756  0.00  0.00    +0.000 A 
ATOM      9  O   UNL     1       4.229   5.524  18.816  0.00  0.00    +0.000 OA
ENDROOT
BRANCH   1  10
ATOM     10  S   UNL     1       6.941   5.676  19.312  0.00  0.00    +0.000 S 
BRANCH  10  11
ATOM     11  C   UNL     1       7.223   6.256  17.625  0.00  0.00    +0.000 C 
BRANCH  11  12
ATOM     12  C   UNL     1       7.257   5.053  16.685  0.00  0.00    +0.000 C 
ATOM     13  O   UNL     1       8.089   4.155  16.856  0.00  0.00    +0.000 OA
BRANCH  12  15
ATOM     14  C   UNL     1       5.310   6.211  15.571  0.00  0.00    +0.000 C 
ATOM     15  C   UNL     1       6.216   4.963  15.546  0.00  0.00    +0.000 C 
ATOM     16  C   UNL     1       5.329   3.724  15.721  0.00  0.00    +0.000 C 
ATOM     17  C   UNL     1       6.938   4.922  14.194  0.00  0.00    +0.000 C 
ENDBRANCH  12  15
ENDBRANCH  11  12
ENDBRANCH  10  11
ENDBRANCH   1  10
TORSDOF 4
ENDMDL
MODEL 3
REMARK VINA RESULT:      -6.8      1.034      1.548
REMARK  Name = 
REMARK  7 active torsions:
REMARK  status: ('A' for Active; 'I' for Inactive)
REMARK    1  A    between atoms: C_1  and  C_2
REMARK    2  A    between atoms: C_2  and  C_3
REMARK    3  A    between atoms: C_2  and  C_4
REMARK    4  A    between atoms: C_2  and  C_5
REMARK    5  A    between atoms: C_5  and  C_7
REMARK    6  A    between atoms: C_7  and  S_8
REMARK    7  A    between atoms: S_8  and  C_9
REMARK                            x       y       z     vdW  Elec       q    Type
REMARK                         _______ _______ _______ _____ _____    ______ ____
ROOT
ATOM      1  C   UNL     1       5.478   4.887  19.396  0.00  0.00    +0.000 A 
ATOM      2  N   UNL     1       4.399   5.642  19.479  0.00  0.00    +0.000 NA
ATOM      3  C   UNL     1       3.372   4.747  19.598  0.00  0.00    +0.000 A 
ATOM      4  C   UNL     1       1.994   4.946  19.747  0.00  0.00    +0.000 A 
ATOM      5  C   UNL     1       1.168   3.819  19.871  0.00  0.00    +0.000 A 
ATOM      6  C   UNL     1       1.706   2.526  19.840  0.00  0.00    +0.000 A 
ATOM      7  C   UNL     1       3.084   2.311  19.684  0.00  0.00    +0.000 A 
ATOM      8  C   UNL     1       3.869   3.452  19.568  0.00  0.00    +0.000 A 
ATOM      9  O   UNL     1       5.228   3.536  19.421  0.00  0.00    +0.000 OA
ENDROOT
BRANCH   1  10
ATOM     10  S   UNL     1       7.068   5.592  19.330  0.00  0.00    +0.000 S 
BRANCH  10  11
ATOM     11  C   UNL     1       7.134   6.238  17.644  0.00  0.00    +0.000 C 
BRANCH  11  12
ATOM     12  C   UNL     1       7.100   5.068  16.662  0.00  0.00    +0.000 C 
ATOM     13  O   UNL     1       7.957   4.181  16.726  0.00  0.00    +0.000 OA
BRANCH  12  15
ATOM     14  C   UNL     1       6.552   4.711  14.224  0.00  0.00    +0.000 C 
ATOM     15  C   UNL     1       5.961   4.999  15.619  0.00  0.00    +0.000 C 
ATOM     16  C   UNL     1       5.207   6.332  15.553  0.00  0.00    +0.000 C 
ATOM     17  C   UNL     1       5.006   3.856  15.981  0.00  0.00    +0.000 C 
ENDBRANCH  12  15
ENDBRANCH  11  12
ENDBRANCH  10  11
ENDBRANCH   1  10
TORSDOF 4
ENDMDL
MODEL 4
REMARK VINA RESULT:      -6.7      0.781      1.298
REMARK  Name = 
REMARK  7 active torsions:
REMARK  status: ('A' for Active; 'I' for Inactive)
REMARK    1  A    between atoms: C_1  and  C_2
REMARK    2  A    between atoms: C_2  and  C_3
REMARK    3  A    between atoms: C_2  and  C_4
REMARK    4  A    between atoms: C_2  and  C_5
REMARK    5  A    between atoms: C_5  and  C_7
REMARK    6  A    between atoms: C_7  and  S_8
REMARK    7  A    between atoms: S_8  and  C_9
REMARK                            x       y       z     vdW  Elec       q    Type
REMARK                         _______ _______ _______ _____ _____    ______ ____
ROOT
ATOM      1  C   UNL     1       5.281   4.689  19.121  0.00  0.00    +0.000 A 
ATOM      2  N   UNL     1       5.020   3.451  19.494  0.00  0.00    +0.000 NA
ATOM      3  C   UNL     1       3.704   3.274  19.168  0.00  0.00    +0.000 A 
ATOM      4  C   UNL     1       2.867   2.158  19.298  0.00  0.00    +0.000 A 
ATOM      5  C   UNL     1       1.544   2.261  18.847  0.00  0.00    +0.000 A 
ATOM      6  C   UNL     1       1.066   3.452  18.285  0.00  0.00    +0.000 A 
ATOM      7  C   UNL     1       1.890   4.580  18.154  0.00  0.00    +0.000 A 
ATOM      8  C   UNL     1       3.196   4.437  18.610  0.00  0.00    +0.000 A 
ATOM      9  O   UNL     1       4.205   5.361  18.593  0.00  0.00    +0.000 OA
ENDROOT
BRANCH   1  10
ATOM     10  S   UNL     1       6.888   5.348  19.249  0.00  0.00    +0.000 S 
BRANCH  10  11
ATOM     11  C   UNL     1       7.667   4.761  17.728  0.00  0.00    +0.000 C 
BRANCH  11  12
ATOM     12  C   UNL     1       7.258   5.675  16.575  0.00  0.00    +0.000 C 
ATOM     13  O   UNL     1       7.668   6.839  16.531  0.00  0.00    +0.000 OA
BRANCH  12  15
ATOM     14  C   UNL     1       5.867   3.699  15.844  0.00  0.00    +0.000 C 
ATOM     15  C   UNL     1       6.357   5.108  15.453  0.00  0.00    +0.000 C 
ATOM     16  C   UNL     1       7.138   4.996  14.138  0.00  0.00    +0.000 C 
ATOM     17  C   UNL     1       5.130   6.011  15.277  0.00  0.00    +0.000 C 
ENDBRANCH  12  15
ENDBRANCH  11  12
ENDBRANCH  10  11
ENDBRANCH   1  10
TORSDOF 4
ENDMDL
MODEL 5
REMARK VINA RESULT:      -6.3      1.848      5.455
REMARK  Name = 
REMARK  7 active torsions:
REMARK  status: ('A' for Active; 'I' for Inactive)
REMARK    1  A    between atoms: C_1  and  C_2
REMARK    2  A    between atoms: C_2  and  C_3
REMARK    3  A    between atoms: C_2  and  C_4
REMARK    4  A    between atoms: C_2  and  C_5
REMARK    5  A    between atoms: C_5  and  C_7
REMARK    6  A    between atoms: C_7  and  S_8
REMARK    7  A    between atoms: S_8  and  C_9
REMARK                            x       y       z     vdW  Elec       q    Type
REMARK                         _______ _______ _______ _____ _____    ______ ____
ROOT
ATOM      1  C   UNL     1       6.380   5.235  16.204  0.00  0.00    +0.000 A 
ATOM      2  N   UNL     1       5.509   4.410  15.655  0.00  0.00    +0.000 NA
ATOM      3  C   UNL     1       5.958   4.255  14.373  0.00  0.00    +0.000 A 
ATOM      4  C   UNL     1       5.465   3.480  13.315  0.00  0.00    +0.000 A 
ATOM      5  C   UNL     1       6.157   3.499  12.096  0.00  0.00    +0.000 A 
ATOM      6  C   UNL     1       7.310   4.279  11.936  0.00  0.00    +0.000 A 
ATOM      7  C   UNL     1       7.812   5.066  12.984  0.00  0.00    +0.000 A 
ATOM      8  C   UNL     1       7.100   5.017  14.177  0.00  0.00    +0.000 A 
ATOM      9  O   UNL     1       7.368   5.666  15.352  0.00  0.00    +0.000 OA
ENDROOT
BRANCH   1  10
ATOM     10  S   UNL     1       6.279   5.660  17.890  0.00  0.00    +0.000 S 
BRANCH  10  11
ATOM     11  C   UNL     1       4.533   5.378  18.255  0.00  0.00    +0.000 C 
BRANCH  11  12
ATOM     12  C   UNL     1       4.369   3.983  18.855  0.00  0.00    +0.000 C 
ATOM     13  O   UNL     1       5.283   3.482  19.518  0.00  0.00    +0.000 OA
BRANCH  12  15
ATOM     14  C   UNL     1       3.314   1.821  18.088  0.00  0.00    +0.000 C 
ATOM     15  C   UNL     1       3.034   3.231  18.649  0.00  0.00    +0.000 C 
ATOM     16  C   UNL     1       2.144   3.976  17.646  0.00  0.00    +0.000 C 
ATOM     17  C   UNL     1       2.319   3.078  19.996  0.00  0.00    +0.000 C 
ENDBRANCH  12  15
ENDBRANCH  11  12
ENDBRANCH  10  11
ENDBRANCH   1  10
TORSDOF 4
ENDMDL
MODEL 6
REMARK VINA RESULT:      -6.3      1.163      1.631
REMARK  Name = 
REMARK  7 active torsions:
REMARK  status: ('A' for Active; 'I' for Inactive)
REMARK    1  A    between atoms: C_1  and  C_2
REMARK    2  A    between atoms: C_2  and  C_3
REMARK    3  A    between atoms: C_2  and  C_4
REMARK    4  A    between atoms: C_2  and  C_5
REMARK    5  A    between atoms: C_5  and  C_7
REMARK    6  A    between atoms: C_7  and  S_8
REMARK    7  A    between atoms: S_8  and  C_9
REMARK                            x       y       z     vdW  Elec       q    Type
REMARK                         _______ _______ _______ _____ _____    ______ ____
ROOT
ATOM      1  C   UNL     1       4.851   4.636  19.214  0.00  0.00    +0.000 A 
ATOM      2  N   UNL     1       4.564   3.614  18.431  0.00  0.00    +0.000 NA
ATOM      3  C   UNL     1       3.268   3.308  18.743  0.00  0.00    +0.000 A 
ATOM      4  C   UNL     1       2.406   2.332  18.227  0.00  0.00    +0.000 A 
ATOM      5  C   UNL     1       1.099   2.264  18.731  0.00  0.00    +0.000 A 
ATOM      6  C   UNL     1       0.667   3.146  19.730  0.00  0.00    +0.000 A 
ATOM      7  C   UNL     1       1.521   4.124  20.262  0.00  0.00    +0.000 A 
ATOM      8  C   UNL     1       2.807   4.161  19.734  0.00  0.00    +0.000 A 
ATOM      9  O   UNL     1       3.831   5.011  20.054  0.00  0.00    +0.000 OA
ENDROOT
BRANCH   1  10
ATOM     10  S   UNL     1       6.386   5.450  19.105  0.00  0.00    +0.000 S 
BRANCH  10  11
ATOM     11  C   UNL     1       7.185   4.586  17.734  0.00  0.00    +0.000 C 
BRANCH  11  12
ATOM     12  C   UNL     1       7.159   5.482  16.498  0.00  0.00    +0.000 C 
ATOM     13  O   UNL     1       7.746   6.569  16.508  0.00  0.00    +0.000 OA
BRANCH  12  15
ATOM     14  C   UNL     1       5.159   5.850  15.002  0.00  0.00    +0.000 C 
ATOM     15  C   UNL     1       6.419   4.991  15.233  0.00  0.00    +0.000 C 
ATOM     16  C   UNL     1       5.979   3.531  15.397  0.00  0.00    +0.000 C 
ATOM     17  C   UNL     1       7.335   5.145  14.013  0.00  0.00    +0.000 C 
ENDBRANCH  12  15
ENDBRANCH  11  12
ENDBRANCH  10  11
ENDBRANCH   1  10
TORSDOF 4
ENDMDL
MODEL 7
REMARK VINA RESULT:      -6.3      1.819      5.515
REMARK  Name = 
REMARK  7 active torsions:
REMARK  status: ('A' for Active; 'I' for Inactive)
REMARK    1  A    between atoms: C_1  and  C_2
REMARK    2  A    between atoms: C_2  and  C_3
REMARK    3  A    between atoms: C_2  and  C_4
REMARK    4  A    between atoms: C_2  and  C_5
REMARK    5  A    between atoms: C_5  and  C_7
REMARK    6  A    between atoms: C_7  and  S_8
REMARK    7  A    between atoms: S_8  and  C_9
REMARK                            x       y       z     vdW  Elec       q    Type
REMARK                         _______ _______ _______ _____ _____    ______ ____
ROOT
ATOM      1  C   UNL     1       6.440   5.138  16.300  0.00  0.00    +0.000 A 
ATOM      2  N   UNL     1       5.606   4.296  15.719  0.00  0.00    +0.000 NA
ATOM      3  C   UNL     1       6.046   4.226  14.427  0.00  0.00    +0.000 A 
ATOM      4  C   UNL     1       5.581   3.478  13.337  0.00  0.00    +0.000 A 
ATOM      5  C   UNL     1       6.257   3.592  12.114  0.00  0.00    +0.000 A 
ATOM      6  C   UNL     1       7.367   4.437  11.982  0.00  0.00    +0.000 A 
ATOM      7  C   UNL     1       7.840   5.198  13.062  0.00  0.00    +0.000 A 
ATOM      8  C   UNL     1       7.146   5.055  14.258  0.00  0.00    +0.000 A 
ATOM      9  O   UNL     1       7.394   5.660  15.460  0.00  0.00    +0.000 OA
ENDROOT
BRANCH   1  10
ATOM     10  S   UNL     1       6.338   5.475  18.005  0.00  0.00    +0.000 S 
BRANCH  10  11
ATOM     11  C   UNL     1       4.558   5.402  18.307  0.00  0.00    +0.000 C 
BRANCH  11  12
ATOM     12  C   UNL     1       4.215   4.050  18.930  0.00  0.00    +0.000 C 
ATOM     13  O   UNL     1       5.096   3.376  19.473  0.00  0.00    +0.000 OA
BRANCH  12  15
ATOM     14  C   UNL     1       2.005   4.226  17.722  0.00  0.00    +0.000 C 
ATOM     15  C   UNL     1       2.748   3.563  18.900  0.00  0.00    +0.000 C 
ATOM     16  C   UNL     1       2.025   3.945  20.197  0.00  0.00    +0.000 C 
ATOM     17  C   UNL     1       2.718   2.044  18.693  0.00  0.00    +0.000 C 
ENDBRANCH  12  15
ENDBRANCH  11  12
ENDBRANCH  10  11
ENDBRANCH   1  10
TORSDOF 4
ENDMDL
MODEL 8
REMARK VINA RESULT:      -6.3      2.038      5.442
REMARK  Name = 
REMARK  7 active torsions:
REMARK  status: ('A' for Active; 'I' for Inactive)
REMARK    1  A    between atoms: C_1  and  C_2
REMARK    2  A    between atoms: C_2  and  C_3
REMARK    3  A    between atoms: C_2  and  C_4
REMARK    4  A    between atoms: C_2  and  C_5
REMARK    5  A    between atoms: C_5  and  C_7
REMARK    6  A    between atoms: C_7  and  S_8
REMARK    7  A    between atoms: S_8  and  C_9
REMARK                            x       y       z     vdW  Elec       q    Type
REMARK                         _______ _______ _______ _____ _____    ______ ____
ROOT
ATOM      1  C   UNL     1       6.225   5.297  16.260  0.00  0.00    +0.000 A 
ATOM      2  N   UNL     1       7.246   5.661  15.507  0.00  0.00    +0.000 NA
ATOM      3  C   UNL     1       7.027   5.026  14.316  0.00  0.00    +0.000 A 
ATOM      4  C   UNL     1       7.754   5.044  13.119  0.00  0.00    +0.000 A 
ATOM      5  C   UNL     1       7.269   4.301  12.034  0.00  0.00    +0.000 A 
ATOM      6  C   UNL     1       6.089   3.553  12.144  0.00  0.00    +0.000 A 
ATOM      7  C   UNL     1       5.354   3.519  13.339  0.00  0.00    +0.000 A 
ATOM      8  C   UNL     1       5.866   4.272  14.390  0.00  0.00    +0.000 A 
ATOM      9  O   UNL     1       5.352   4.429  15.649  0.00  0.00    +0.000 OA
ENDROOT
BRANCH   1  10
ATOM     10  S   UNL     1       6.012   5.942  17.862  0.00  0.00    +0.000 S 
BRANCH  10  11
ATOM     11  C   UNL     1       4.309   5.472  18.244  0.00  0.00    +0.000 C 
BRANCH  11  12
ATOM     12  C   UNL     1       4.300   4.055  18.812  0.00  0.00    +0.000 C 
ATOM     13  O   UNL     1       5.297   3.613  19.393  0.00  0.00    +0.000 OA
BRANCH  12  15
ATOM     14  C   UNL     1       3.382   1.786  18.192  0.00  0.00    +0.000 C 
ATOM     15  C   UNL     1       3.017   3.203  18.679  0.00  0.00    +0.000 C 
ATOM     16  C   UNL     1       2.058   3.827  17.657  0.00  0.00    +0.000 C 
ATOM     17  C   UNL     1       2.340   3.081  20.049  0.00  0.00    +0.000 C 
ENDBRANCH  12  15
ENDBRANCH  11  12
ENDBRANCH  10  11
ENDBRANCH   1  10
TORSDOF 4
ENDMDL
MODEL 9
REMARK VINA RESULT:      -6.2      1.958      5.705
REMARK  Name = 
REMARK  7 active torsions:
REMARK  status: ('A' for Active; 'I' for Inactive)
REMARK    1  A    between atoms: C_1  and  C_2
REMARK    2  A    between atoms: C_2  and  C_3
REMARK    3  A    between atoms: C_2  and  C_4
REMARK    4  A    between atoms: C_2  and  C_5
REMARK    5  A    between atoms: C_5  and  C_7
REMARK    6  A    between atoms: C_7  and  S_8
REMARK    7  A    between atoms: S_8  and  C_9
REMARK                            x       y       z     vdW  Elec       q    Type
REMARK                         _______ _______ _______ _____ _____    ______ ____
ROOT
ATOM      1  C   UNL     1       6.061   5.083  16.278  0.00  0.00    +0.000 A 
ATOM      2  N   UNL     1       7.112   5.530  15.619  0.00  0.00    +0.000 NA
ATOM      3  C   UNL     1       6.993   4.969  14.378  0.00  0.00    +0.000 A 
ATOM      4  C   UNL     1       7.793   5.091  13.234  0.00  0.00    +0.000 A 
ATOM      5  C   UNL     1       7.406   4.406  12.074  0.00  0.00    +0.000 A 
ATOM      6  C   UNL     1       6.251   3.613  12.059  0.00  0.00    +0.000 A 
ATOM      7  C   UNL     1       5.444   3.475  13.199  0.00  0.00    +0.000 A 
ATOM      8  C   UNL     1       5.859   4.173  14.327  0.00  0.00    +0.000 A 
ATOM      9  O   UNL     1       5.261   4.228  15.557  0.00  0.00    +0.000 OA
ENDROOT
BRANCH   1  10
ATOM     10  S   UNL     1       5.723   5.612  17.902  0.00  0.00    +0.000 S 
BRANCH  10  11
ATOM     11  C   UNL     1       5.087   4.107  18.674  0.00  0.00    +0.000 C 
BRANCH  11  12
ATOM     12  C   UNL     1       3.673   4.371  19.186  0.00  0.00    +0.000 C 
ATOM     13  O   UNL     1       3.472   5.255  20.024  0.00  0.00    +0.000 OA
BRANCH  12  15
ATOM     14  C   UNL     1       1.561   3.111  19.758  0.00  0.00    +0.000 C 
ATOM     15  C   UNL     1       2.502   3.540  18.613  0.00  0.00    +0.000 C 
ATOM     16  C   UNL     1       3.025   2.273  17.924  0.00  0.00    +0.000 C 
ATOM     17  C   UNL     1       1.700   4.398  17.628  0.00  0.00    +0.000 C 
ENDBRANCH  12  15
ENDBRANCH  11  12
ENDBRANCH  10  11
ENDBRANCH   1  10
TORSDOF 4
ENDMDL
