MODEL 1
REMARK VINA RESULT:      -8.1      0.000      0.000
REMARK  Name = 
REMARK  8 active torsions:
REMARK  status: ('A' for Active; 'I' for Inactive)
REMARK    1  A    between atoms: O_1  and  C_2
REMARK    2  A    between atoms: C_2  and  C_3
REMARK    3  A    between atoms: C_6  and  C_7
REMARK    4  A    between atoms: C_12  and  C_13
REMARK    5  A    between atoms: C_13  and  C_14
REMARK    6  A    between atoms: C_25  and  O_26
REMARK    7  A    between atoms: C_27  and  O_28
REMARK    8  A    between atoms: C_29  and  O_30
REMARK                            x       y       z     vdW  Elec       q    Type
REMARK                         _______ _______ _______ _____ _____    ______ ____
ROOT
ATOM      1  C   UNL     1       5.151   5.519  17.467  0.00  0.00    +0.000 C 
ATOM      2  C   UNL     1       4.978   6.892  16.866  0.00  0.00    +0.000 C 
ATOM      3  O   UNL     1       3.586   7.136  17.119  0.00  0.00    +0.000 OA
ATOM      4  C   UNL     1       3.306   6.461  18.378  0.00  0.00    +0.000 C 
ATOM      5  O   UNL     1       4.562   5.841  18.790  0.00  0.00    +0.000 OA
ATOM      6  C   UNL     1       2.314   5.256  18.133  0.00  0.00    +0.000 C 
ATOM      7  C   UNL     1       3.114   4.040  17.656  0.00  0.00    +0.000 C 
ATOM      8  C   UNL     1       4.234   4.480  16.724  0.00  0.00    +0.000 C 
ENDROOT
BRANCH   4   9
ATOM      9  C   UNL     1       2.557   7.467  19.265  0.00  0.00    +0.000 A 
ATOM     10  C   UNL     1       2.217   7.207  20.585  0.00  0.00    +0.000 A 
ATOM     11  C   UNL     1       1.222   7.979  21.211  0.00  0.00    +0.000 A 
ATOM     12  C   UNL     1       0.588   9.036  20.535  0.00  0.00    +0.000 A 
ATOM     13 CL   UNL     1      -0.726   9.831  21.326  0.00  0.00    +0.000 Cl
ATOM     14  C   UNL     1       0.992   9.394  19.244  0.00  0.00    +0.000 A 
ATOM     15  C   UNL     1       1.973   8.595  18.629  0.00  0.00    +0.000 A 
BRANCH  14  16
ATOM     16  C   UNL     1       0.415  10.572  18.479  0.00  0.00    +0.000 C 
BRANCH  16  17
ATOM     17  C   UNL     1      -1.083  10.621  18.226  0.00  0.00    +0.000 A 
ATOM     18  C   UNL     1      -1.592   9.813  17.168  0.00  0.00    +0.000 A 
ATOM     19  C   UNL     1      -2.944   9.836  16.816  0.00  0.00    +0.000 A 
ATOM     20  C   UNL     1      -3.779  10.661  17.532  0.00  0.00    +0.000 A 
ATOM     21  C   UNL     1      -3.311  11.438  18.579  0.00  0.00    +0.000 A 
ATOM     22  C   UNL     1      -1.969  11.438  18.933  0.00  0.00    +0.000 A 
ATOM     23  C   UNL     1      -4.418  12.274  19.096  0.00  0.00    +0.000 C 
ATOM     24  C   UNL     1      -5.598  11.614  18.379  0.00  0.00    +0.000 C 
ATOM     25  O   UNL     1      -5.112  10.823  17.269  0.00  0.00    +0.000 OA
ENDBRANCH  16  17
ENDBRANCH  14  16
ENDBRANCH   4   9
BRANCH   6  26
ATOM     26  O   UNL     1       1.592   4.818  19.307  0.00  0.00    +0.000 OA
ATOM     27  H   UNL     1       2.172   4.958  20.080  0.00  0.00    +0.000 HD
ENDBRANCH   6  26
BRANCH   7  28
ATOM     28  O   UNL     1       2.316   3.053  16.984  0.00  0.00    +0.000 OA
ATOM     29  H   UNL     1       1.416   3.410  16.873  0.00  0.00    +0.000 HD
ENDBRANCH   7  28
BRANCH   8  30
ATOM     30  O   UNL     1       4.930   3.301  16.296  0.00  0.00    +0.000 OA
ATOM     31  H   UNL     1       5.076   2.776  17.113  0.00  0.00    +0.000 HD
ENDBRANCH   8  30
BRANCH   1  32
ATOM     32  C   UNL     1       6.603   5.019  17.439  0.00  0.00    +0.000 C 
BRANCH  32  33
ATOM     33  O   UNL     1       6.897   4.024  18.409  0.00  0.00    +0.000 OA
ATOM     34  H   UNL     1       6.082   3.495  18.503  0.00  0.00    +0.000 HD
ENDBRANCH  32  33
ENDBRANCH   1  32
TORSDOF 8
ENDMDL
MODEL 2
REMARK VINA RESULT:      -7.9      2.657      3.787
REMARK  Name = 
REMARK  8 active torsions:
REMARK  status: ('A' for Active; 'I' for Inactive)
REMARK    1  A    between atoms: O_1  and  C_2
REMARK    2  A    between atoms: C_2  and  C_3
REMARK    3  A    between atoms: C_6  and  C_7
REMARK    4  A    between atoms: C_12  and  C_13
REMARK    5  A    between atoms: C_13  and  C_14
REMARK    6  A    between atoms: C_25  and  O_26
REMARK    7  A    between atoms: C_27  and  O_28
REMARK    8  A    between atoms: C_29  and  O_30
REMARK                            x       y       z     vdW  Elec       q    Type
REMARK                         _______ _______ _______ _____ _____    ______ ____
ROOT
ATOM      1  C   UNL     1       5.322   5.257  17.777  0.00  0.00    +0.000 C 
ATOM      2  C   UNL     1       5.338   6.641  17.175  0.00  0.00    +0.000 C 
ATOM      3  O   UNL     1       3.947   6.991  17.240  0.00  0.00    +0.000 OA
ATOM      4  C   UNL     1       3.448   6.337  18.442  0.00  0.00    +0.000 C 
ATOM      5  O   UNL     1       4.585   5.621  19.011  0.00  0.00    +0.000 OA
ATOM      6  C   UNL     1       2.409   5.213  18.048  0.00  0.00    +0.000 C 
ATOM      7  C   UNL     1       3.171   3.940  17.669  0.00  0.00    +0.000 C 
ATOM      8  C   UNL     1       4.437   4.294  16.903  0.00  0.00    +0.000 C 
ENDROOT
BRANCH   4   9
ATOM      9  C   UNL     1       2.664   7.396  19.231  0.00  0.00    +0.000 A 
ATOM     10  C   UNL     1       2.250   7.211  20.542  0.00  0.00    +0.000 A 
ATOM     11  C   UNL     1       1.231   8.025  21.071  0.00  0.00    +0.000 A 
ATOM     12  C   UNL     1       0.649   9.050  20.306  0.00  0.00    +0.000 A 
ATOM     13 CL   UNL     1      -0.696   9.899  20.980  0.00  0.00    +0.000 Cl
ATOM     14  C   UNL     1       1.127   9.335  19.022  0.00  0.00    +0.000 A 
ATOM     15  C   UNL     1       2.130   8.495  18.505  0.00  0.00    +0.000 A 
BRANCH  14  16
ATOM     16  C   UNL     1       0.608  10.475  18.165  0.00  0.00    +0.000 C 
BRANCH  16  17
ATOM     17  C   UNL     1       1.081  11.890  18.459  0.00  0.00    +0.000 A 
ATOM     18  C   UNL     1       0.107  12.818  18.927  0.00  0.00    +0.000 A 
ATOM     19  C   UNL     1       0.428  14.158  19.166  0.00  0.00    +0.000 A 
ATOM     20  C   UNL     1       1.725  14.555  18.940  0.00  0.00    +0.000 A 
ATOM     21  C   UNL     1       2.694  13.665  18.506  0.00  0.00    +0.000 A 
ATOM     22  C   UNL     1       2.390  12.335  18.251  0.00  0.00    +0.000 A 
ATOM     23  C   UNL     1       3.959  14.399  18.276  0.00  0.00    +0.000 C 
ATOM     24  C   UNL     1       3.607  15.736  18.933  0.00  0.00    +0.000 C 
ATOM     25  O   UNL     1       2.172  15.841  19.082  0.00  0.00    +0.000 OA
ENDBRANCH  16  17
ENDBRANCH  14  16
ENDBRANCH   4   9
BRANCH   6  26
ATOM     26  O   UNL     1       1.503   4.831  19.109  0.00  0.00    +0.000 OA
ATOM     27  H   UNL     1       1.239   3.904  18.953  0.00  0.00    +0.000 HD
ENDBRANCH   6  26
BRANCH   7  28
ATOM     28  O   UNL     1       2.398   3.019  16.883  0.00  0.00    +0.000 OA
ATOM     29  H   UNL     1       1.576   2.820  17.365  0.00  0.00    +0.000 HD
ENDBRANCH   7  28
BRANCH   8  30
ATOM     30  O   UNL     1       5.093   3.065  16.559  0.00  0.00    +0.000 OA
ATOM     31  H   UNL     1       5.610   3.266  15.749  0.00  0.00    +0.000 HD
ENDBRANCH   8  30
BRANCH   1  32
ATOM     32  C   UNL     1       6.721   4.646  17.939  0.00  0.00    +0.000 C 
BRANCH  32  33
ATOM     33  O   UNL     1       7.539   4.743  16.780  0.00  0.00    +0.000 OA
ATOM     34  H   UNL     1       6.955   5.066  16.068  0.00  0.00    +0.000 HD
ENDBRANCH  32  33
ENDBRANCH   1  32
TORSDOF 8
ENDMDL
MODEL 3
REMARK VINA RESULT:      -7.9      1.771      3.203
REMARK  Name = 
REMARK  8 active torsions:
REMARK  status: ('A' for Active; 'I' for Inactive)
REMARK    1  A    between atoms: O_1  and  C_2
REMARK    2  A    between atoms: C_2  and  C_3
REMARK    3  A    between atoms: C_6  and  C_7
REMARK    4  A    between atoms: C_12  and  C_13
REMARK    5  A    between atoms: C_13  and  C_14
REMARK    6  A    between atoms: C_25  and  O_26
REMARK    7  A    between atoms: C_27  and  O_28
REMARK    8  A    between atoms: C_29  and  O_30
REMARK                            x       y       z     vdW  Elec       q    Type
REMARK                         _______ _______ _______ _____ _____    ______ ____
ROOT
ATOM      1  C   UNL     1       2.710   3.546  19.401  0.00  0.00    +0.000 C 
ATOM      2  C   UNL     1       2.081   4.366  20.500  0.00  0.00    +0.000 C 
ATOM      3  O   UNL     1       2.763   5.619  20.340  0.00  0.00    +0.000 OA
ATOM      4  C   UNL     1       3.014   5.733  18.910  0.00  0.00    +0.000 C 
ATOM      5  O   UNL     1       2.471   4.520  18.308  0.00  0.00    +0.000 OA
ATOM      6  C   UNL     1       4.568   5.671  18.632  0.00  0.00    +0.000 C 
ATOM      7  C   UNL     1       5.010   4.204  18.594  0.00  0.00    +0.000 C 
ATOM      8  C   UNL     1       4.257   3.402  19.645  0.00  0.00    +0.000 C 
ENDROOT
BRANCH   4   9
ATOM      9  C   UNL     1       2.554   7.137  18.488  0.00  0.00    +0.000 A 
ATOM     10  C   UNL     1       3.181   7.873  17.494  0.00  0.00    +0.000 A 
ATOM     11  C   UNL     1       2.970   9.262  17.419  0.00  0.00    +0.000 A 
ATOM     12  C   UNL     1       2.105   9.915  18.314  0.00  0.00    +0.000 A 
ATOM     13 CL   UNL     1       2.023  11.640  18.247  0.00  0.00    +0.000 Cl
ATOM     14  C   UNL     1       1.370   9.182  19.252  0.00  0.00    +0.000 A 
ATOM     15  C   UNL     1       1.613   7.798  19.323  0.00  0.00    +0.000 A 
BRANCH  14  16
ATOM     16  C   UNL     1       0.357   9.801  20.197  0.00  0.00    +0.000 C 
BRANCH  16  17
ATOM     17  C   UNL     1      -0.880  10.467  19.614  0.00  0.00    +0.000 A 
ATOM     18  C   UNL     1      -1.431  11.564  20.339  0.00  0.00    +0.000 A 
ATOM     19  C   UNL     1      -2.602  12.202  19.920  0.00  0.00    +0.000 A 
ATOM     20  C   UNL     1      -3.208  11.742  18.775  0.00  0.00    +0.000 A 
ATOM     21  C   UNL     1      -2.678  10.692  18.042  0.00  0.00    +0.000 A 
ATOM     22  C   UNL     1      -1.524  10.038  18.451  0.00  0.00    +0.000 A 
ATOM     23  C   UNL     1      -3.590  10.375  16.920  0.00  0.00    +0.000 C 
ATOM     24  C   UNL     1      -4.515  11.592  16.985  0.00  0.00    +0.000 C 
ATOM     25  O   UNL     1      -4.382  12.236  18.274  0.00  0.00    +0.000 OA
ENDBRANCH  16  17
ENDBRANCH  14  16
ENDBRANCH   4   9
BRANCH   6  26
ATOM     26  O   UNL     1       4.979   6.239  17.366  0.00  0.00    +0.000 OA
ATOM     27  H   UNL     1       4.486   5.780  16.661  0.00  0.00    +0.000 HD
ENDBRANCH   6  26
BRANCH   7  28
ATOM     28  O   UNL     1       6.420   4.023  18.797  0.00  0.00    +0.000 OA
ATOM     29  H   UNL     1       6.884   4.286  17.983  0.00  0.00    +0.000 HD
ENDBRANCH   7  28
BRANCH   8  30
ATOM     30  O   UNL     1       4.727   2.049  19.576  0.00  0.00    +0.000 OA
ATOM     31  H   UNL     1       4.900   1.883  18.624  0.00  0.00    +0.000 HD
ENDBRANCH   8  30
BRANCH   1  32
ATOM     32  C   UNL     1       2.093   2.147  19.254  0.00  0.00    +0.000 C 
BRANCH  32  33
ATOM     33  O   UNL     1       2.437   1.481  18.047  0.00  0.00    +0.000 OA
ATOM     34  H   UNL     1       2.615   0.554  18.295  0.00  0.00    +0.000 HD
ENDBRANCH  32  33
ENDBRANCH   1  32
TORSDOF 8
ENDMDL
MODEL 4
REMARK VINA RESULT:      -7.8      2.551      3.271
REMARK  Name = 
REMARK  8 active torsions:
REMARK  status: ('A' for Active; 'I' for Inactive)
REMARK    1  A    between atoms: O_1  and  C_2
REMARK    2  A    between atoms: C_2  and  C_3
REMARK    3  A    between atoms: C_6  and  C_7
REMARK    4  A    between atoms: C_12  and  C_13
REMARK    5  A    between atoms: C_13  and  C_14
REMARK    6  A    between atoms: C_25  and  O_26
REMARK    7  A    between atoms: C_27  and  O_28
REMARK    8  A    between atoms: C_29  and  O_30
REMARK                            x       y       z     vdW  Elec       q    Type
REMARK                         _______ _______ _______ _____ _____    ______ ____
ROOT
ATOM      1  C   UNL     1       5.378   5.261  17.661  0.00  0.00    +0.000 C 
ATOM      2  C   UNL     1       5.371   6.640  17.049  0.00  0.00    +0.000 C 
ATOM      3  O   UNL     1       3.976   6.971  17.122  0.00  0.00    +0.000 OA
ATOM      4  C   UNL     1       3.494   6.320  18.332  0.00  0.00    +0.000 C 
ATOM      5  O   UNL     1       4.645   5.624  18.898  0.00  0.00    +0.000 OA
ATOM      6  C   UNL     1       2.468   5.179  17.954  0.00  0.00    +0.000 C 
ATOM      7  C   UNL     1       3.246   3.913  17.578  0.00  0.00    +0.000 C 
ATOM      8  C   UNL     1       4.501   4.279  16.801  0.00  0.00    +0.000 C 
ENDROOT
BRANCH   4   9
ATOM      9  C   UNL     1       2.701   7.374  19.119  0.00  0.00    +0.000 A 
ATOM     10  C   UNL     1       2.334   7.210  20.446  0.00  0.00    +0.000 A 
ATOM     11  C   UNL     1       1.306   8.005  20.987  0.00  0.00    +0.000 A 
ATOM     12  C   UNL     1       0.668   8.991  20.215  0.00  0.00    +0.000 A 
ATOM     13 CL   UNL     1      -0.683   9.815  20.910  0.00  0.00    +0.000 Cl
ATOM     14  C   UNL     1       1.097   9.257  18.910  0.00  0.00    +0.000 A 
ATOM     15  C   UNL     1       2.110   8.436  18.383  0.00  0.00    +0.000 A 
BRANCH  14  16
ATOM     16  C   UNL     1       0.515  10.358  18.041  0.00  0.00    +0.000 C 
BRANCH  16  17
ATOM     17  C   UNL     1       0.873  11.803  18.349  0.00  0.00    +0.000 A 
ATOM     18  C   UNL     1       2.258  12.141  18.370  0.00  0.00    +0.000 A 
ATOM     19  C   UNL     1       2.692  13.426  18.703  0.00  0.00    +0.000 A 
ATOM     20  C   UNL     1       1.736  14.367  19.007  0.00  0.00    +0.000 A 
ATOM     21  C   UNL     1       0.384  14.067  18.972  0.00  0.00    +0.000 A 
ATOM     22  C   UNL     1      -0.065  12.793  18.656  0.00  0.00    +0.000 A 
ATOM     23  C   UNL     1      -0.386  15.249  19.424  0.00  0.00    +0.000 C 
ATOM     24  C   UNL     1       0.724  16.302  19.413  0.00  0.00    +0.000 C 
ATOM     25  O   UNL     1       2.014  15.649  19.398  0.00  0.00    +0.000 OA
ENDBRANCH  16  17
ENDBRANCH  14  16
ENDBRANCH   4   9
BRANCH   6  26
ATOM     26  O   UNL     1       1.575   4.792  19.024  0.00  0.00    +0.000 OA
ATOM     27  H   UNL     1       2.123   4.547  19.794  0.00  0.00    +0.000 HD
ENDBRANCH   6  26
BRANCH   7  28
ATOM     28  O   UNL     1       2.480   2.976  16.805  0.00  0.00    +0.000 OA
ATOM     29  H   UNL     1       2.386   2.156  17.322  0.00  0.00    +0.000 HD
ENDBRANCH   7  28
BRANCH   8  30
ATOM     30  O   UNL     1       5.171   3.057  16.461  0.00  0.00    +0.000 OA
ATOM     31  H   UNL     1       6.113   3.304  16.336  0.00  0.00    +0.000 HD
ENDBRANCH   8  30
BRANCH   1  32
ATOM     32  C   UNL     1       6.787   4.671  17.818  0.00  0.00    +0.000 C 
BRANCH  32  33
ATOM     33  O   UNL     1       7.569   4.702  16.632  0.00  0.00    +0.000 OA
ATOM     34  H   UNL     1       7.768   3.770  16.419  0.00  0.00    +0.000 HD
ENDBRANCH  32  33
ENDBRANCH   1  32
TORSDOF 8
ENDMDL
MODEL 5
REMARK VINA RESULT:      -7.7      2.682      3.417
REMARK  Name = 
REMARK  8 active torsions:
REMARK  status: ('A' for Active; 'I' for Inactive)
REMARK    1  A    between atoms: O_1  and  C_2
REMARK    2  A    between atoms: C_2  and  C_3
REMARK    3  A    between atoms: C_6  and  C_7
REMARK    4  A    between atoms: C_12  and  C_13
REMARK    5  A    between atoms: C_13  and  C_14
REMARK    6  A    between atoms: C_25  and  O_26
REMARK    7  A    between atoms: C_27  and  O_28
REMARK    8  A    between atoms: C_29  and  O_30
REMARK                            x       y       z     vdW  Elec       q    Type
REMARK                         _______ _______ _______ _____ _____    ______ ____
ROOT
ATOM      1  C   UNL     1       4.624   4.978  18.384  0.00  0.00    +0.000 C 
ATOM      2  C   UNL     1       4.463   6.161  17.462  0.00  0.00    +0.000 C 
ATOM      3  O   UNL     1       3.104   6.540  17.727  0.00  0.00    +0.000 OA
ATOM      4  C   UNL     1       2.890   6.224  19.132  0.00  0.00    +0.000 C 
ATOM      5  O   UNL     1       4.146   5.658  19.612  0.00  0.00    +0.000 OA
ATOM      6  C   UNL     1       1.835   5.056  19.264  0.00  0.00    +0.000 C 
ATOM      7  C   UNL     1       2.549   3.714  19.068  0.00  0.00    +0.000 C 
ATOM      8  C   UNL     1       3.614   3.839  17.990  0.00  0.00    +0.000 C 
ENDROOT
BRANCH   4   9
ATOM      9  C   UNL     1       2.248   7.463  19.774  0.00  0.00    +0.000 A 
ATOM     10  C   UNL     1       1.934   7.541  21.123  0.00  0.00    +0.000 A 
ATOM     11  C   UNL     1       1.020   8.513  21.570  0.00  0.00    +0.000 A 
ATOM     12  C   UNL     1       0.446   9.435  20.677  0.00  0.00    +0.000 A 
ATOM     13 CL   UNL     1      -0.778  10.494  21.284  0.00  0.00    +0.000 Cl
ATOM     14  C   UNL     1       0.833   9.455  19.333  0.00  0.00    +0.000 A 
ATOM     15  C   UNL     1       1.730   8.460  18.904  0.00  0.00    +0.000 A 
BRANCH  14  16
ATOM     16  C   UNL     1       0.321  10.469  18.325  0.00  0.00    +0.000 C 
BRANCH  16  17
ATOM     17  C   UNL     1       0.768  11.917  18.448  0.00  0.00    +0.000 A 
ATOM     18  C   UNL     1       2.170  12.170  18.409  0.00  0.00    +0.000 A 
ATOM     19  C   UNL     1       2.686  13.459  18.576  0.00  0.00    +0.000 A 
ATOM     20  C   UNL     1       1.792  14.485  18.774  0.00  0.00    +0.000 A 
ATOM     21  C   UNL     1       0.424  14.265  18.793  0.00  0.00    +0.000 A 
ATOM     22  C   UNL     1      -0.104  12.991  18.643  0.00  0.00    +0.000 A 
ATOM     23  C   UNL     1      -0.267  15.537  19.106  0.00  0.00    +0.000 C 
ATOM     24  C   UNL     1       0.902  16.513  18.952  0.00  0.00    +0.000 C 
ATOM     25  O   UNL     1       2.152  15.786  19.001  0.00  0.00    +0.000 OA
ENDBRANCH  16  17
ENDBRANCH  14  16
ENDBRANCH   4   9
BRANCH   6  26
ATOM     26  O   UNL     1       1.184   4.972  20.553  0.00  0.00    +0.000 OA
ATOM     27  H   UNL     1       0.282   5.334  20.454  0.00  0.00    +0.000 HD
ENDBRANCH   6  26
BRANCH   7  28
ATOM     28  O   UNL     1       1.664   2.637  18.722  0.00  0.00    +0.000 OA
ATOM     29  H   UNL     1       2.199   1.836  18.576  0.00  0.00    +0.000 HD
ENDBRANCH   7  28
BRANCH   8  30
ATOM     30  O   UNL     1       4.229   2.552  17.838  0.00  0.00    +0.000 OA
ATOM     31  H   UNL     1       3.811   1.983  18.520  0.00  0.00    +0.000 HD
ENDBRANCH   8  30
BRANCH   1  32
ATOM     32  C   UNL     1       6.048   4.405  18.398  0.00  0.00    +0.000 C 
BRANCH  32  33
ATOM     33  O   UNL     1       6.550   4.057  17.114  0.00  0.00    +0.000 OA
ATOM     34  H   UNL     1       7.521   4.027  17.207  0.00  0.00    +0.000 HD
ENDBRANCH  32  33
ENDBRANCH   1  32
TORSDOF 8
ENDMDL
MODEL 6
REMARK VINA RESULT:      -7.7      2.227      3.700
REMARK  Name = 
REMARK  8 active torsions:
REMARK  status: ('A' for Active; 'I' for Inactive)
REMARK    1  A    between atoms: O_1  and  C_2
REMARK    2  A    between atoms: C_2  and  C_3
REMARK    3  A    between atoms: C_6  and  C_7
REMARK    4  A    between atoms: C_12  and  C_13
REMARK    5  A    between atoms: C_13  and  C_14
REMARK    6  A    between atoms: C_25  and  O_26
REMARK    7  A    between atoms: C_27  and  O_28
REMARK    8  A    between atoms: C_29  and  O_30
REMARK                            x       y       z     vdW  Elec       q    Type
REMARK                         _______ _______ _______ _____ _____    ______ ____
ROOT
ATOM      1  C   UNL     1       2.177   3.554  19.255  0.00  0.00    +0.000 C 
ATOM      2  C   UNL     1       1.400   4.137  20.409  0.00  0.00    +0.000 C 
ATOM      3  O   UNL     1       2.029   5.419  20.551  0.00  0.00    +0.000 OA
ATOM      4  C   UNL     1       2.416   5.803  19.201  0.00  0.00    +0.000 C 
ATOM      5  O   UNL     1       1.999   4.704  18.336  0.00  0.00    +0.000 OA
ATOM      6  C   UNL     1       3.991   5.842  19.085  0.00  0.00    +0.000 C 
ATOM      7  C   UNL     1       4.509   4.423  18.833  0.00  0.00    +0.000 C 
ATOM      8  C   UNL     1       3.697   3.417  19.636  0.00  0.00    +0.000 C 
ENDROOT
BRANCH   4   9
ATOM      9  C   UNL     1       1.929   7.245  18.991  0.00  0.00    +0.000 A 
ATOM     10  C   UNL     1       2.061   7.921  17.787  0.00  0.00    +0.000 A 
ATOM     11  C   UNL     1       1.957   9.324  17.764  0.00  0.00    +0.000 A 
ATOM     12  C   UNL     1       1.684  10.053  18.934  0.00  0.00    +0.000 A 
ATOM     13 CL   UNL     1       1.725  11.778  18.842  0.00  0.00    +0.000 Cl
ATOM     14  C   UNL     1       1.431   9.389  20.140  0.00  0.00    +0.000 A 
ATOM     15  C   UNL     1       1.562   7.988  20.145  0.00  0.00    +0.000 A 
BRANCH  14  16
ATOM     16  C   UNL     1       1.049  10.098  21.426  0.00  0.00    +0.000 C 
BRANCH  16  17
ATOM     17  C   UNL     1      -0.252  10.883  21.475  0.00  0.00    +0.000 A 
ATOM     18  C   UNL     1      -0.754  11.231  22.762  0.00  0.00    +0.000 A 
ATOM     19  C   UNL     1      -1.973  11.897  22.916  0.00  0.00    +0.000 A 
ATOM     20  C   UNL     1      -2.677  12.215  21.778  0.00  0.00    +0.000 A 
ATOM     21  C   UNL     1      -2.198  11.906  20.516  0.00  0.00    +0.000 A 
ATOM     22  C   UNL     1      -0.996  11.233  20.345  0.00  0.00    +0.000 A 
ATOM     23  C   UNL     1      -3.207  12.297  19.505  0.00  0.00    +0.000 C 
ATOM     24  C   UNL     1      -4.148  13.124  20.384  0.00  0.00    +0.000 C 
ATOM     25  O   UNL     1      -3.905  12.821  21.777  0.00  0.00    +0.000 OA
ENDBRANCH  16  17
ENDBRANCH  14  16
ENDBRANCH   4   9
BRANCH   6  26
ATOM     26  O   UNL     1       4.497   6.647  17.995  0.00  0.00    +0.000 OA
ATOM     27  H   UNL     1       5.467   6.700  18.090  0.00  0.00    +0.000 HD
ENDBRANCH   6  26
BRANCH   7  28
ATOM     28  O   UNL     1       5.899   4.252  19.151  0.00  0.00    +0.000 OA
ATOM     29  H   UNL     1       5.967   3.669  19.927  0.00  0.00    +0.000 HD
ENDBRANCH   7  28
BRANCH   8  30
ATOM     30  O   UNL     1       4.241   2.116  19.376  0.00  0.00    +0.000 OA
ATOM     31  H   UNL     1       4.115   1.970  18.413  0.00  0.00    +0.000 HD
ENDBRANCH   8  30
BRANCH   1  32
ATOM     32  C   UNL     1       1.650   2.187  18.794  0.00  0.00    +0.000 C 
BRANCH  32  33
ATOM     33  O   UNL     1       2.111   1.786  17.511  0.00  0.00    +0.000 OA
ATOM     34  H   UNL     1       1.990   0.818  17.474  0.00  0.00    +0.000 HD
ENDBRANCH  32  33
ENDBRANCH   1  32
TORSDOF 8
ENDMDL
MODEL 7
REMARK VINA RESULT:      -7.7      2.397      3.713
REMARK  Name = 
REMARK  8 active torsions:
REMARK  status: ('A' for Active; 'I' for Inactive)
REMARK    1  A    between atoms: O_1  and  C_2
REMARK    2  A    between atoms: C_2  and  C_3
REMARK    3  A    between atoms: C_6  and  C_7
REMARK    4  A    between atoms: C_12  and  C_13
REMARK    5  A    between atoms: C_13  and  C_14
REMARK    6  A    between atoms: C_25  and  O_26
REMARK    7  A    between atoms: C_27  and  O_28
REMARK    8  A    between atoms: C_29  and  O_30
REMARK                            x       y       z     vdW  Elec       q    Type
REMARK                         _______ _______ _______ _____ _____    ______ ____
ROOT
ATOM      1  C   UNL     1       2.225   3.569  19.286  0.00  0.00    +0.000 C 
ATOM      2  C   UNL     1       1.434   4.160  20.427  0.00  0.00    +0.000 C 
ATOM      3  O   UNL     1       2.055   5.447  20.561  0.00  0.00    +0.000 OA
ATOM      4  C   UNL     1       2.452   5.818  19.210  0.00  0.00    +0.000 C 
ATOM      5  O   UNL     1       2.049   4.708  18.353  0.00  0.00    +0.000 OA
ATOM      6  C   UNL     1       4.028   5.866  19.108  0.00  0.00    +0.000 C 
ATOM      7  C   UNL     1       4.556   4.447  18.876  0.00  0.00    +0.000 C 
ATOM      8  C   UNL     1       3.742   3.445  19.681  0.00  0.00    +0.000 C 
ENDROOT
BRANCH   4   9
ATOM      9  C   UNL     1       1.959   7.255  18.981  0.00  0.00    +0.000 A 
ATOM     10  C   UNL     1       2.108   7.924  17.775  0.00  0.00    +0.000 A 
ATOM     11  C   UNL     1       1.995   9.326  17.738  0.00  0.00    +0.000 A 
ATOM     12  C   UNL     1       1.696  10.061  18.898  0.00  0.00    +0.000 A 
ATOM     13 CL   UNL     1       1.726  11.786  18.793  0.00  0.00    +0.000 Cl
ATOM     14  C   UNL     1       1.426   9.404  20.104  0.00  0.00    +0.000 A 
ATOM     15  C   UNL     1       1.566   8.005  20.122  0.00  0.00    +0.000 A 
BRANCH  14  16
ATOM     16  C   UNL     1       1.017  10.120  21.379  0.00  0.00    +0.000 C 
BRANCH  16  17
ATOM     17  C   UNL     1      -0.319  10.844  21.419  0.00  0.00    +0.000 A 
ATOM     18  C   UNL     1      -0.926  11.160  20.168  0.00  0.00    +0.000 A 
ATOM     19  C   UNL     1      -2.123  11.878  20.097  0.00  0.00    +0.000 A 
ATOM     20  C   UNL     1      -2.707  12.268  21.279  0.00  0.00    +0.000 A 
ATOM     21  C   UNL     1      -2.147  11.953  22.507  0.00  0.00    +0.000 A 
ATOM     22  C   UNL     1      -0.952  11.252  22.596  0.00  0.00    +0.000 A 
ATOM     23  C   UNL     1      -2.953  12.575  23.582  0.00  0.00    +0.000 C 
ATOM     24  C   UNL     1      -4.178  13.006  22.772  0.00  0.00    +0.000 C 
ATOM     25  O   UNL     1      -3.850  13.017  21.363  0.00  0.00    +0.000 OA
ENDBRANCH  16  17
ENDBRANCH  14  16
ENDBRANCH   4   9
BRANCH   6  26
ATOM     26  O   UNL     1       4.539   6.662  18.014  0.00  0.00    +0.000 OA
ATOM     27  H   UNL     1       3.777   7.076  17.567  0.00  0.00    +0.000 HD
ENDBRANCH   6  26
BRANCH   7  28
ATOM     28  O   UNL     1       5.945   4.288  19.208  0.00  0.00    +0.000 OA
ATOM     29  H   UNL     1       6.214   3.381  18.975  0.00  0.00    +0.000 HD
ENDBRANCH   7  28
BRANCH   8  30
ATOM     30  O   UNL     1       4.296   2.144  19.440  0.00  0.00    +0.000 OA
ATOM     31  H   UNL     1       4.109   1.955  18.495  0.00  0.00    +0.000 HD
ENDBRANCH   8  30
BRANCH   1  32
ATOM     32  C   UNL     1       1.710   2.194  18.834  0.00  0.00    +0.000 C 
BRANCH  32  33
ATOM     33  O   UNL     1       2.098   1.830  17.516  0.00  0.00    +0.000 OA
ATOM     34  H   UNL     1       2.929   1.326  17.612  0.00  0.00    +0.000 HD
ENDBRANCH  32  33
ENDBRANCH   1  32
TORSDOF 8
ENDMDL
MODEL 8
REMARK VINA RESULT:      -7.7      1.179      2.503
REMARK  Name = 
REMARK  8 active torsions:
REMARK  status: ('A' for Active; 'I' for Inactive)
REMARK    1  A    between atoms: O_1  and  C_2
REMARK    2  A    between atoms: C_2  and  C_3
REMARK    3  A    between atoms: C_6  and  C_7
REMARK    4  A    between atoms: C_12  and  C_13
REMARK    5  A    between atoms: C_13  and  C_14
REMARK    6  A    between atoms: C_25  and  O_26
REMARK    7  A    between atoms: C_27  and  O_28
REMARK    8  A    between atoms: C_29  and  O_30
REMARK                            x       y       z     vdW  Elec       q    Type
REMARK                         _______ _______ _______ _____ _____    ______ ____
ROOT
ATOM      1  C   UNL     1       1.971   3.966  18.941  0.00  0.00    +0.000 C 
ATOM      2  C   UNL     1       1.967   4.069  20.447  0.00  0.00    +0.000 C 
ATOM      3  O   UNL     1       2.712   5.280  20.646  0.00  0.00    +0.000 OA
ATOM      4  C   UNL     1       2.385   6.119  19.502  0.00  0.00    +0.000 C 
ATOM      5  O   UNL     1       1.467   5.336  18.680  0.00  0.00    +0.000 OA
ATOM      6  C   UNL     1       3.668   6.325  18.604  0.00  0.00    +0.000 C 
ATOM      7  C   UNL     1       3.828   5.116  17.676  0.00  0.00    +0.000 C 
ATOM      8  C   UNL     1       3.444   3.839  18.408  0.00  0.00    +0.000 C 
ENDROOT
BRANCH   4   9
ATOM      9  C   UNL     1       2.015   7.503  20.056  0.00  0.00    +0.000 A 
ATOM     10  C   UNL     1       1.916   7.774  21.412  0.00  0.00    +0.000 A 
ATOM     11  C   UNL     1       1.217   8.916  21.844  0.00  0.00    +0.000 A 
ATOM     12  C   UNL     1       0.646   9.811  20.922  0.00  0.00    +0.000 A 
ATOM     13 CL   UNL     1      -0.324  11.101  21.540  0.00  0.00    +0.000 Cl
ATOM     14  C   UNL     1       0.829   9.625  19.547  0.00  0.00    +0.000 A 
ATOM     15  C   UNL     1       1.513   8.465  19.138  0.00  0.00    +0.000 A 
BRANCH  14  16
ATOM     16  C   UNL     1       0.315  10.587  18.493  0.00  0.00    +0.000 C 
BRANCH  16  17
ATOM     17  C   UNL     1      -1.179  10.651  18.222  0.00  0.00    +0.000 A 
ATOM     18  C   UNL     1      -1.681   9.857  17.150  0.00  0.00    +0.000 A 
ATOM     19  C   UNL     1      -3.028   9.893  16.781  0.00  0.00    +0.000 A 
ATOM     20  C   UNL     1      -3.865  10.719  17.493  0.00  0.00    +0.000 A 
ATOM     21  C   UNL     1      -3.405  11.483  18.553  0.00  0.00    +0.000 A 
ATOM     22  C   UNL     1      -2.067  11.470  18.924  0.00  0.00    +0.000 A 
ATOM     23  C   UNL     1      -4.512  12.323  19.063  0.00  0.00    +0.000 C 
ATOM     24  C   UNL     1      -5.688  11.679  18.325  0.00  0.00    +0.000 C 
ATOM     25  O   UNL     1      -5.194  10.894  17.215  0.00  0.00    +0.000 OA
ENDBRANCH  16  17
ENDBRANCH  14  16
ENDBRANCH   4   9
BRANCH   6  26
ATOM     26  O   UNL     1       3.620   7.484  17.739  0.00  0.00    +0.000 OA
ATOM     27  H   UNL     1       3.883   8.260  18.269  0.00  0.00    +0.000 HD
ENDBRANCH   6  26
BRANCH   7  28
ATOM     28  O   UNL     1       5.155   4.967  17.149  0.00  0.00    +0.000 OA
ATOM     29  H   UNL     1       5.791   5.213  17.844  0.00  0.00    +0.000 HD
ENDBRANCH   7  28
BRANCH   8  30
ATOM     30  O   UNL     1       3.634   2.746  17.498  0.00  0.00    +0.000 OA
ATOM     31  H   UNL     1       4.506   2.361  17.735  0.00  0.00    +0.000 HD
ENDBRANCH   8  30
BRANCH   1  32
ATOM     32  C   UNL     1       1.140   2.790  18.409  0.00  0.00    +0.000 C 
BRANCH  32  33
ATOM     33  O   UNL     1       1.581   1.514  18.852  0.00  0.00    +0.000 OA
ATOM     34  H   UNL     1       1.753   1.609  19.808  0.00  0.00    +0.000 HD
ENDBRANCH  32  33
ENDBRANCH   1  32
TORSDOF 8
ENDMDL
MODEL 9
REMARK VINA RESULT:      -7.6      1.041      1.697
REMARK  Name = 
REMARK  8 active torsions:
REMARK  status: ('A' for Active; 'I' for Inactive)
REMARK    1  A    between atoms: O_1  and  C_2
REMARK    2  A    between atoms: C_2  and  C_3
REMARK    3  A    between atoms: C_6  and  C_7
REMARK    4  A    between atoms: C_12  and  C_13
REMARK    5  A    between atoms: C_13  and  C_14
REMARK    6  A    between atoms: C_25  and  O_26
REMARK    7  A    between atoms: C_27  and  O_28
REMARK    8  A    between atoms: C_29  and  O_30
REMARK                            x       y       z     vdW  Elec       q    Type
REMARK                         _______ _______ _______ _____ _____    ______ ____
ROOT
ATOM      1  C   UNL     1       4.281   5.545  18.023  0.00  0.00    +0.000 C 
ATOM      2  C   UNL     1       4.076   6.900  17.391  0.00  0.00    +0.000 C 
ATOM      3  O   UNL     1       2.740   7.208  17.817  0.00  0.00    +0.000 OA
ATOM      4  C   UNL     1       2.610   6.595  19.131  0.00  0.00    +0.000 C 
ATOM      5  O   UNL     1       3.888   5.942  19.397  0.00  0.00    +0.000 OA
ATOM      6  C   UNL     1       1.553   5.422  19.073  0.00  0.00    +0.000 C 
ATOM      7  C   UNL     1       2.239   4.157  18.548  0.00  0.00    +0.000 C 
ATOM      8  C   UNL     1       3.236   4.516  17.456  0.00  0.00    +0.000 C 
ENDROOT
BRANCH   4   9
ATOM      9  C   UNL     1       2.023   7.664  20.065  0.00  0.00    +0.000 A 
ATOM     10  C   UNL     1       1.661   7.405  21.379  0.00  0.00    +0.000 A 
ATOM     11  C   UNL     1       0.794   8.289  22.048  0.00  0.00    +0.000 A 
ATOM     12  C   UNL     1       0.315   9.452  21.420  0.00  0.00    +0.000 A 
ATOM     13 CL   UNL     1      -0.863  10.397  22.259  0.00  0.00    +0.000 Cl
ATOM     14  C   UNL     1       0.755   9.797  20.137  0.00  0.00    +0.000 A 
ATOM     15  C   UNL     1       1.604   8.889  19.480  0.00  0.00    +0.000 A 
BRANCH  14  16
ATOM     16  C   UNL     1       0.348  11.074  19.425  0.00  0.00    +0.000 C 
BRANCH  16  17
ATOM     17  C   UNL     1      -0.928  11.080  18.598  0.00  0.00    +0.000 A 
ATOM     18  C   UNL     1      -2.054  11.762  19.144  0.00  0.00    +0.000 A 
ATOM     19  C   UNL     1      -3.290  11.772  18.492  0.00  0.00    +0.000 A 
ATOM     20  C   UNL     1      -3.387  11.104  17.294  0.00  0.00    +0.000 A 
ATOM     21  C   UNL     1      -2.300  10.453  16.733  0.00  0.00    +0.000 A 
ATOM     22  C   UNL     1      -1.069  10.421  17.374  0.00  0.00    +0.000 A 
ATOM     23  C   UNL     1      -2.732   9.764  15.496  0.00  0.00    +0.000 C 
ATOM     24  C   UNL     1      -4.119  10.387  15.323  0.00  0.00    +0.000 C 
ATOM     25  O   UNL     1      -4.542  10.987  16.569  0.00  0.00    +0.000 OA
ENDBRANCH  16  17
ENDBRANCH  14  16
ENDBRANCH   4   9
BRANCH   6  26
ATOM     26  O   UNL     1       0.982   5.060  20.352  0.00  0.00    +0.000 OA
ATOM     27  H   UNL     1       1.411   4.233  20.645  0.00  0.00    +0.000 HD
ENDBRANCH   6  26
BRANCH   7  28
ATOM     28  O   UNL     1       1.323   3.178  18.033  0.00  0.00    +0.000 OA
ATOM     29  H   UNL     1       0.936   2.695  18.785  0.00  0.00    +0.000 HD
ENDBRANCH   7  28
BRANCH   8  30
ATOM     30  O   UNL     1       3.827   3.294  16.992  0.00  0.00    +0.000 OA
ATOM     31  H   UNL     1       4.665   3.204  17.493  0.00  0.00    +0.000 HD
ENDBRANCH   8  30
BRANCH   1  32
ATOM     32  C   UNL     1       5.697   4.987  17.823  0.00  0.00    +0.000 C 
BRANCH  32  33
ATOM     33  O   UNL     1       6.000   3.858  18.631  0.00  0.00    +0.000 OA
ATOM     34  H   UNL     1       6.222   3.138  18.011  0.00  0.00    +0.000 HD
ENDBRANCH  32  33
ENDBRANCH   1  32
TORSDOF 8
ENDMDL
