MODEL 1
REMARK VINA RESULT:      -6.7      0.000      0.000
REMARK  Name = 
REMARK  6 active torsions:
REMARK  status: ('A' for Active; 'I' for Inactive)
REMARK    1  A    between atoms: C_1  and  C_2
REMARK    2  A    between atoms: C_2  and  O_3
REMARK    3  A    between atoms: C_2  and  C_4
REMARK    4  A    between atoms: C_8  and  C_9
REMARK    5  A    between atoms: C_9  and  O_11
REMARK    6  A    between atoms: C_12  and  C_13
REMARK                            x       y       z     vdW  Elec       q    Type
REMARK                         _______ _______ _______ _____ _____    ______ ____
ROOT
ATOM      1  C   UNL     1       1.782   5.931  19.200  0.00  0.00    +0.000 C 
ATOM      2  C   UNL     1       2.288   4.661  19.901  0.00  0.00    +0.000 C 
ATOM      3  O   UNL     1       2.397   4.308  21.055  0.00  0.00    +0.000 OA
ATOM      4  N   UNL     1       2.797   4.151  18.738  0.00  0.00    +0.000 N 
ATOM      5  C   UNL     1       4.138   3.769  18.714  0.00  0.00    +0.000 C 
ATOM      6  C   UNL     1       4.977   4.635  18.098  0.00  0.00    +0.000 C 
ATOM      7  S   UNL     1       4.109   6.031  17.464  0.00  0.00    +0.000 S 
ATOM      8  C   UNL     1       2.495   5.359  17.952  0.00  0.00    +0.000 C 
ENDROOT
BRANCH   6   9
ATOM      9  C   UNL     1       6.479   4.538  17.920  0.00  0.00    +0.000 C 
ATOM     10  C   UNL     1       7.176   5.541  16.992  0.00  0.00    +0.000 C 
ATOM     11  C   UNL     1       7.526   6.678  17.920  0.00  0.00    +0.000 C 
ATOM     12  C   UNL     1       7.934   5.922  19.159  0.00  0.00    +0.000 C 
ATOM     13  O   UNL     1       7.087   4.761  19.221  0.00  0.00    +0.000 OA
ENDBRANCH   6   9
BRANCH   1  15
ATOM     14  C   UNL     1       1.357   7.621  21.018  0.00  0.00    +0.000 C 
ATOM     15  C   UNL     1       2.228   7.242  19.826  0.00  0.00    +0.000 C 
BRANCH  15  16
ATOM     16  O   UNL     1       2.139   8.267  18.836  0.00  0.00    +0.000 OA
ATOM     17  H   UNL     1       1.378   8.078  18.259  0.00  0.00    +0.000 HD
ENDBRANCH  15  16
ENDBRANCH   1  15
BRANCH   5  18
ATOM     18  C   UNL     1       4.417   2.436  19.342  0.00  0.00    +0.000 C 
ATOM     19  O   UNL     1       4.994   2.344  20.419  0.00  0.00    +0.000 OA
BRANCH  18  20
ATOM     20  O   UNL     1       3.988   1.342  18.692  0.00  0.00    +0.000 OA
ATOM     21  H   UNL     1       4.674   0.654  18.537  0.00  0.00    +0.000 HD
ENDBRANCH  18  20
ENDBRANCH   5  18
TORSDOF 5
ENDMDL
MODEL 2
REMARK VINA RESULT:      -6.4      1.953      5.516
REMARK  Name = 
REMARK  6 active torsions:
REMARK  status: ('A' for Active; 'I' for Inactive)
REMARK    1  A    between atoms: C_1  and  C_2
REMARK    2  A    between atoms: C_2  and  O_3
REMARK    3  A    between atoms: C_2  and  C_4
REMARK    4  A    between atoms: C_8  and  C_9
REMARK    5  A    between atoms: C_9  and  O_11
REMARK    6  A    between atoms: C_12  and  C_13
REMARK                            x       y       z     vdW  Elec       q    Type
REMARK                         _______ _______ _______ _____ _____    ______ ____
ROOT
ATOM      1  C   UNL     1       6.039   5.101  16.895  0.00  0.00    +0.000 C 
ATOM      2  C   UNL     1       5.369   6.449  17.203  0.00  0.00    +0.000 C 
ATOM      3  O   UNL     1       5.766   7.545  17.534  0.00  0.00    +0.000 OA
ATOM      4  N   UNL     1       4.117   5.896  17.192  0.00  0.00    +0.000 N 
ATOM      5  C   UNL     1       3.300   6.086  18.306  0.00  0.00    +0.000 C 
ATOM      6  C   UNL     1       3.201   5.026  19.141  0.00  0.00    +0.000 C 
ATOM      7  S   UNL     1       4.144   3.657  18.558  0.00  0.00    +0.000 S 
ATOM      8  C   UNL     1       4.612   4.519  17.030  0.00  0.00    +0.000 C 
ENDROOT
BRANCH   6   9
ATOM      9  C   UNL     1       2.426   4.908  20.439  0.00  0.00    +0.000 C 
ATOM     10  C   UNL     1       0.929   4.583  20.375  0.00  0.00    +0.000 C 
ATOM     11  C   UNL     1       0.905   3.074  20.415  0.00  0.00    +0.000 C 
ATOM     12  C   UNL     1       2.007   2.797  21.406  0.00  0.00    +0.000 C 
ATOM     13  O   UNL     1       3.007   3.809  21.193  0.00  0.00    +0.000 OA
ENDBRANCH   6   9
BRANCH   1  15
ATOM     14  C   UNL     1       7.715   5.891  18.601  0.00  0.00    +0.000 C 
ATOM     15  C   UNL     1       7.147   4.692  17.852  0.00  0.00    +0.000 C 
BRANCH  15  16
ATOM     16  O   UNL     1       8.189   4.075  17.097  0.00  0.00    +0.000 OA
ATOM     17  H   UNL     1       8.320   3.168  17.428  0.00  0.00    +0.000 HD
ENDBRANCH  15  16
ENDBRANCH   1  15
BRANCH   5  18
ATOM     18  C   UNL     1       2.633   7.429  18.365  0.00  0.00    +0.000 C 
ATOM     19  O   UNL     1       2.099   7.832  19.392  0.00  0.00    +0.000 OA
BRANCH  18  20
ATOM     20  O   UNL     1       2.663   8.186  17.257  0.00  0.00    +0.000 OA
ATOM     21  H   UNL     1       2.485   9.142  17.401  0.00  0.00    +0.000 HD
ENDBRANCH  18  20
ENDBRANCH   5  18
TORSDOF 5
ENDMDL
MODEL 3
REMARK VINA RESULT:      -6.1     10.486     13.247
REMARK  Name = 
REMARK  6 active torsions:
REMARK  status: ('A' for Active; 'I' for Inactive)
REMARK    1  A    between atoms: C_1  and  C_2
REMARK    2  A    between atoms: C_2  and  O_3
REMARK    3  A    between atoms: C_2  and  C_4
REMARK    4  A    between atoms: C_8  and  C_9
REMARK    5  A    between atoms: C_9  and  O_11
REMARK    6  A    between atoms: C_12  and  C_13
REMARK                            x       y       z     vdW  Elec       q    Type
REMARK                         _______ _______ _______ _____ _____    ______ ____
ROOT
ATOM      1  C   UNL     1      -3.162  13.281  22.846  0.00  0.00    +0.000 C 
ATOM      2  C   UNL     1      -4.237  12.712  23.784  0.00  0.00    +0.000 C 
ATOM      3  O   UNL     1      -4.271  11.817  24.600  0.00  0.00    +0.000 OA
ATOM      4  N   UNL     1      -5.228  13.442  23.187  0.00  0.00    +0.000 N 
ATOM      5  C   UNL     1      -6.352  12.769  22.711  0.00  0.00    +0.000 C 
ATOM      6  C   UNL     1      -6.392  12.581  21.371  0.00  0.00    +0.000 C 
ATOM      7  S   UNL     1      -4.981  13.280  20.581  0.00  0.00    +0.000 S 
ATOM      8  C   UNL     1      -4.347  13.975  22.134  0.00  0.00    +0.000 C 
ENDROOT
BRANCH   6   9
ATOM      9  C   UNL     1      -7.446  11.873  20.541  0.00  0.00    +0.000 C 
ATOM     10  C   UNL     1      -7.285  11.845  19.017  0.00  0.00    +0.000 C 
ATOM     11  C   UNL     1      -6.490  10.585  18.780  0.00  0.00    +0.000 C 
ATOM     12  C   UNL     1      -7.110   9.660  19.797  0.00  0.00    +0.000 C 
ATOM     13  O   UNL     1      -7.442  10.474  20.935  0.00  0.00    +0.000 OA
ENDBRANCH   6   9
BRANCH   1  15
ATOM     14  C   UNL     1      -1.364  11.534  23.084  0.00  0.00    +0.000 C 
ATOM     15  C   UNL     1      -2.311  12.247  22.127  0.00  0.00    +0.000 C 
BRANCH  15  16
ATOM     16  O   UNL     1      -1.547  12.913  21.121  0.00  0.00    +0.000 OA
ATOM     17  H   UNL     1      -1.876  12.638  20.247  0.00  0.00    +0.000 HD
ENDBRANCH  15  16
ENDBRANCH   1  15
BRANCH   5  18
ATOM     18  C   UNL     1      -7.351  12.402  23.768  0.00  0.00    +0.000 C 
ATOM     19  O   UNL     1      -7.912  13.259  24.442  0.00  0.00    +0.000 OA
BRANCH  18  20
ATOM     20  O   UNL     1      -7.628  11.100  23.935  0.00  0.00    +0.000 OA
ATOM     21  H   UNL     1      -7.293  10.706  24.771  0.00  0.00    +0.000 HD
ENDBRANCH  18  20
ENDBRANCH   5  18
TORSDOF 5
ENDMDL
MODEL 4
REMARK VINA RESULT:      -6.1      1.760      4.105
REMARK  Name = 
REMARK  6 active torsions:
REMARK  status: ('A' for Active; 'I' for Inactive)
REMARK    1  A    between atoms: C_1  and  C_2
REMARK    2  A    between atoms: C_2  and  O_3
REMARK    3  A    between atoms: C_2  and  C_4
REMARK    4  A    between atoms: C_8  and  C_9
REMARK    5  A    between atoms: C_9  and  O_11
REMARK    6  A    between atoms: C_12  and  C_13
REMARK                            x       y       z     vdW  Elec       q    Type
REMARK                         _______ _______ _______ _____ _____    ______ ____
ROOT
ATOM      1  C   UNL     1       2.818   1.937  18.645  0.00  0.00    +0.000 C 
ATOM      2  C   UNL     1       4.223   2.316  19.138  0.00  0.00    +0.000 C 
ATOM      3  O   UNL     1       4.868   2.088  20.138  0.00  0.00    +0.000 OA
ATOM      4  N   UNL     1       4.400   3.216  18.123  0.00  0.00    +0.000 N 
ATOM      5  C   UNL     1       4.747   4.526  18.451  0.00  0.00    +0.000 C 
ATOM      6  C   UNL     1       3.739   5.428  18.384  0.00  0.00    +0.000 C 
ATOM      7  S   UNL     1       2.235   4.673  17.862  0.00  0.00    +0.000 S 
ATOM      8  C   UNL     1       3.030   3.062  17.604  0.00  0.00    +0.000 C 
ENDROOT
BRANCH   6   9
ATOM      9  C   UNL     1       3.768   6.911  18.696  0.00  0.00    +0.000 C 
ATOM     10  C   UNL     1       3.383   7.903  17.592  0.00  0.00    +0.000 C 
ATOM     11  C   UNL     1       1.894   8.061  17.779  0.00  0.00    +0.000 C 
ATOM     12  C   UNL     1       1.793   8.059  19.284  0.00  0.00    +0.000 C 
ATOM     13  O   UNL     1       2.803   7.151  19.756  0.00  0.00    +0.000 OA
ENDBRANCH   6   9
BRANCH   1  15
ATOM     14  C   UNL     1       0.405   2.513  19.078  0.00  0.00    +0.000 C 
ATOM     15  C   UNL     1       1.715   2.030  19.687  0.00  0.00    +0.000 C 
BRANCH  15  16
ATOM     16  O   UNL     1       2.129   2.948  20.699  0.00  0.00    +0.000 OA
ATOM     17  H   UNL     1       1.764   2.655  21.553  0.00  0.00    +0.000 HD
ENDBRANCH  15  16
ENDBRANCH   1  15
BRANCH   5  18
ATOM     18  C   UNL     1       6.196   4.721  18.787  0.00  0.00    +0.000 C 
ATOM     19  O   UNL     1       6.543   5.311  19.803  0.00  0.00    +0.000 OA
BRANCH  18  20
ATOM     20  O   UNL     1       7.102   4.203  17.943  0.00  0.00    +0.000 OA
ATOM     21  H   UNL     1       7.558   3.393  18.266  0.00  0.00    +0.000 HD
ENDBRANCH  18  20
ENDBRANCH   5  18
TORSDOF 5
ENDMDL
MODEL 5
REMARK VINA RESULT:      -6.0      2.215      3.371
REMARK  Name = 
REMARK  6 active torsions:
REMARK  status: ('A' for Active; 'I' for Inactive)
REMARK    1  A    between atoms: C_1  and  C_2
REMARK    2  A    between atoms: C_2  and  O_3
REMARK    3  A    between atoms: C_2  and  C_4
REMARK    4  A    between atoms: C_8  and  C_9
REMARK    5  A    between atoms: C_9  and  O_11
REMARK    6  A    between atoms: C_12  and  C_13
REMARK                            x       y       z     vdW  Elec       q    Type
REMARK                         _______ _______ _______ _____ _____    ______ ____
ROOT
ATOM      1  C   UNL     1       1.695   2.906  18.753  0.00  0.00    +0.000 C 
ATOM      2  C   UNL     1       2.791   2.584  17.725  0.00  0.00    +0.000 C 
ATOM      3  O   UNL     1       3.490   1.622  17.494  0.00  0.00    +0.000 OA
ATOM      4  N   UNL     1       2.857   3.884  17.302  0.00  0.00    +0.000 N 
ATOM      5  C   UNL     1       4.097   4.521  17.310  0.00  0.00    +0.000 C 
ATOM      6  C   UNL     1       4.300   5.383  18.333  0.00  0.00    +0.000 C 
ATOM      7  S   UNL     1       2.890   5.477  19.385  0.00  0.00    +0.000 S 
ATOM      8  C   UNL     1       1.915   4.375  18.322  0.00  0.00    +0.000 C 
ENDROOT
BRANCH   6   9
ATOM      9  C   UNL     1       5.531   6.211  18.650  0.00  0.00    +0.000 C 
ATOM     10  C   UNL     1       6.759   5.507  19.239  0.00  0.00    +0.000 C 
ATOM     11  C   UNL     1       7.545   5.109  18.014  0.00  0.00    +0.000 C 
ATOM     12  C   UNL     1       7.337   6.316  17.135  0.00  0.00    +0.000 C 
ATOM     13  O   UNL     1       6.003   6.784  17.401  0.00  0.00    +0.000 OA
ENDBRANCH   6   9
BRANCH   1  15
ATOM     14  C   UNL     1       1.286   3.339  21.200  0.00  0.00    +0.000 C 
ATOM     15  C   UNL     1       1.984   2.454  20.175  0.00  0.00    +0.000 C 
BRANCH  15  16
ATOM     16  O   UNL     1       3.395   2.512  20.388  0.00  0.00    +0.000 OA
ATOM     17  H   UNL     1       3.564   2.974  21.229  0.00  0.00    +0.000 HD
ENDBRANCH  15  16
ENDBRANCH   1  15
BRANCH   5  18
ATOM     18  C   UNL     1       4.985   4.170  16.153  0.00  0.00    +0.000 C 
ATOM     19  O   UNL     1       4.996   4.842  15.128  0.00  0.00    +0.000 OA
BRANCH  18  20
ATOM     20  O   UNL     1       5.786   3.102  16.288  0.00  0.00    +0.000 OA
ATOM     21  H   UNL     1       6.180   2.767  15.451  0.00  0.00    +0.000 HD
ENDBRANCH  18  20
ENDBRANCH   5  18
TORSDOF 5
ENDMDL
MODEL 6
REMARK VINA RESULT:      -5.8      2.186      3.095
REMARK  Name = 
REMARK  6 active torsions:
REMARK  status: ('A' for Active; 'I' for Inactive)
REMARK    1  A    between atoms: C_1  and  C_2
REMARK    2  A    between atoms: C_2  and  O_3
REMARK    3  A    between atoms: C_2  and  C_4
REMARK    4  A    between atoms: C_8  and  C_9
REMARK    5  A    between atoms: C_9  and  O_11
REMARK    6  A    between atoms: C_12  and  C_13
REMARK                            x       y       z     vdW  Elec       q    Type
REMARK                         _______ _______ _______ _____ _____    ______ ____
ROOT
ATOM      1  C   UNL     1       1.655   3.878  18.608  0.00  0.00    +0.000 C 
ATOM      2  C   UNL     1       2.391   3.321  17.380  0.00  0.00    +0.000 C 
ATOM      3  O   UNL     1       2.450   2.239  16.838  0.00  0.00    +0.000 OA
ATOM      4  N   UNL     1       3.153   4.450  17.251  0.00  0.00    +0.000 N 
ATOM      5  C   UNL     1       4.539   4.313  17.212  0.00  0.00    +0.000 C 
ATOM      6  C   UNL     1       5.187   4.628  18.358  0.00  0.00    +0.000 C 
ATOM      7  S   UNL     1       4.063   5.160  19.606  0.00  0.00    +0.000 S 
ATOM      8  C   UNL     1       2.638   5.066  18.486  0.00  0.00    +0.000 C 
ENDROOT
BRANCH   6   9
ATOM      9  C   UNL     1       6.672   4.566  18.659  0.00  0.00    +0.000 C 
ATOM     10  C   UNL     1       7.659   5.078  17.603  0.00  0.00    +0.000 C 
ATOM     11  C   UNL     1       7.815   6.536  17.961  0.00  0.00    +0.000 C 
ATOM     12  C   UNL     1       7.819   6.462  19.467  0.00  0.00    +0.000 C 
ATOM     13  O   UNL     1       6.915   5.402  19.822  0.00  0.00    +0.000 OA
ENDBRANCH   6   9
BRANCH   1  15
ATOM     14  C   UNL     1       1.500   3.780  21.120  0.00  0.00    +0.000 C 
ATOM     15  C   UNL     1       1.660   2.979  19.833  0.00  0.00    +0.000 C 
BRANCH  15  16
ATOM     16  O   UNL     1       2.901   2.275  19.870  0.00  0.00    +0.000 OA
ATOM     17  H   UNL     1       3.132   2.002  18.964  0.00  0.00    +0.000 HD
ENDBRANCH  15  16
ENDBRANCH   1  15
BRANCH   5  18
ATOM     18  C   UNL     1       5.083   3.875  15.884  0.00  0.00    +0.000 C 
ATOM     19  O   UNL     1       5.070   4.620  14.911  0.00  0.00    +0.000 OA
BRANCH  18  20
ATOM     20  O   UNL     1       5.608   2.642  15.804  0.00  0.00    +0.000 OA
ATOM     21  H   UNL     1       5.867   2.357  14.900  0.00  0.00    +0.000 HD
ENDBRANCH  18  20
ENDBRANCH   5  18
TORSDOF 5
ENDMDL
MODEL 7
REMARK VINA RESULT:      -5.7      1.364      1.563
REMARK  Name = 
REMARK  6 active torsions:
REMARK  status: ('A' for Active; 'I' for Inactive)
REMARK    1  A    between atoms: C_1  and  C_2
REMARK    2  A    between atoms: C_2  and  O_3
REMARK    3  A    between atoms: C_2  and  C_4
REMARK    4  A    between atoms: C_8  and  C_9
REMARK    5  A    between atoms: C_9  and  O_11
REMARK    6  A    between atoms: C_12  and  C_13
REMARK                            x       y       z     vdW  Elec       q    Type
REMARK                         _______ _______ _______ _____ _____    ______ ____
ROOT
ATOM      1  C   UNL     1       1.207   4.541  19.786  0.00  0.00    +0.000 C 
ATOM      2  C   UNL     1       1.951   3.258  20.187  0.00  0.00    +0.000 C 
ATOM      3  O   UNL     1       2.143   2.672  21.230  0.00  0.00    +0.000 OA
ATOM      4  N   UNL     1       2.526   3.133  18.951  0.00  0.00    +0.000 N 
ATOM      5  C   UNL     1       3.913   3.020  18.875  0.00  0.00    +0.000 C 
ATOM      6  C   UNL     1       4.567   4.144  18.499  0.00  0.00    +0.000 C 
ATOM      7  S   UNL     1       3.446   5.466  18.182  0.00  0.00    +0.000 S 
ATOM      8  C   UNL     1       1.992   4.415  18.458  0.00  0.00    +0.000 C 
ENDROOT
BRANCH   6   9
ATOM      9  C   UNL     1       6.058   4.369  18.342  0.00  0.00    +0.000 C 
ATOM     10  C   UNL     1       6.662   4.352  16.933  0.00  0.00    +0.000 C 
ATOM     11  C   UNL     1       6.567   5.795  16.503  0.00  0.00    +0.000 C 
ATOM     12  C   UNL     1       6.907   6.500  17.792  0.00  0.00    +0.000 C 
ATOM     13  O   UNL     1       6.354   5.698  18.850  0.00  0.00    +0.000 OA
ENDBRANCH   6   9
BRANCH   1  15
ATOM     14  C   UNL     1       1.726   7.001  19.931  0.00  0.00    +0.000 C 
ATOM     15  C   UNL     1       1.415   5.729  20.710  0.00  0.00    +0.000 C 
BRANCH  15  16
ATOM     16  O   UNL     1       2.506   5.436  21.583  0.00  0.00    +0.000 OA
ATOM     17  H   UNL     1       3.193   4.967  21.077  0.00  0.00    +0.000 HD
ENDBRANCH  15  16
ENDBRANCH   1  15
BRANCH   5  18
ATOM     18  C   UNL     1       4.443   1.652  19.184  0.00  0.00    +0.000 C 
ATOM     19  O   UNL     1       5.156   1.448  20.160  0.00  0.00    +0.000 OA
BRANCH  18  20
ATOM     20  O   UNL     1       4.089   0.649  18.365  0.00  0.00    +0.000 OA
ATOM     21  H   UNL     1       4.337  -0.250  18.675  0.00  0.00    +0.000 HD
ENDBRANCH  18  20
ENDBRANCH   5  18
TORSDOF 5
ENDMDL
MODEL 8
REMARK VINA RESULT:      -5.6      1.906      4.826
REMARK  Name = 
REMARK  6 active torsions:
REMARK  status: ('A' for Active; 'I' for Inactive)
REMARK    1  A    between atoms: C_1  and  C_2
REMARK    2  A    between atoms: C_2  and  O_3
REMARK    3  A    between atoms: C_2  and  C_4
REMARK    4  A    between atoms: C_8  and  C_9
REMARK    5  A    between atoms: C_9  and  O_11
REMARK    6  A    between atoms: C_12  and  C_13
REMARK                            x       y       z     vdW  Elec       q    Type
REMARK                         _______ _______ _______ _____ _____    ______ ____
ROOT
ATOM      1  C   UNL     1       7.160   5.060  17.308  0.00  0.00    +0.000 C 
ATOM      2  C   UNL     1       6.218   4.001  16.715  0.00  0.00    +0.000 C 
ATOM      3  O   UNL     1       5.946   3.631  15.594  0.00  0.00    +0.000 OA
ATOM      4  N   UNL     1       5.611   3.780  17.922  0.00  0.00    +0.000 N 
ATOM      5  C   UNL     1       4.223   3.891  17.996  0.00  0.00    +0.000 C 
ATOM      6  C   UNL     1       3.761   5.034  18.554  0.00  0.00    +0.000 C 
ATOM      7  S   UNL     1       5.084   6.080  19.065  0.00  0.00    +0.000 S 
ATOM      8  C   UNL     1       6.345   4.857  18.607  0.00  0.00    +0.000 C 
ENDROOT
BRANCH   6   9
ATOM      9  C   UNL     1       2.327   5.478  18.762  0.00  0.00    +0.000 C 
ATOM     10  C   UNL     1       1.416   4.630  19.657  0.00  0.00    +0.000 C 
ATOM     11  C   UNL     1       1.626   5.230  21.025  0.00  0.00    +0.000 C 
ATOM     12  C   UNL     1       1.708   6.697  20.685  0.00  0.00    +0.000 C 
ATOM     13  O   UNL     1       2.364   6.780  19.408  0.00  0.00    +0.000 OA
ENDBRANCH   6   9
BRANCH   1  15
ATOM     14  C   UNL     1       7.560   7.537  17.523  0.00  0.00    +0.000 C 
ATOM     15  C   UNL     1       7.169   6.398  16.588  0.00  0.00    +0.000 C 
BRANCH  15  16
ATOM     16  O   UNL     1       5.860   6.643  16.074  0.00  0.00    +0.000 OA
ATOM     17  H   UNL     1       5.869   6.492  15.112  0.00  0.00    +0.000 HD
ENDBRANCH  15  16
ENDBRANCH   1  15
BRANCH   5  18
ATOM     18  C   UNL     1       3.476   2.698  17.477  0.00  0.00    +0.000 C 
ATOM     19  O   UNL     1       2.495   2.824  16.752  0.00  0.00    +0.000 OA
BRANCH  18  20
ATOM     20  O   UNL     1       3.934   1.483  17.817  0.00  0.00    +0.000 OA
ATOM     21  H   UNL     1       4.881   1.321  17.608  0.00  0.00    +0.000 HD
ENDBRANCH  18  20
ENDBRANCH   5  18
TORSDOF 5
ENDMDL
MODEL 9
REMARK VINA RESULT:      -5.6      2.050      4.054
REMARK  Name = 
REMARK  6 active torsions:
REMARK  status: ('A' for Active; 'I' for Inactive)
REMARK    1  A    between atoms: C_1  and  C_2
REMARK    2  A    between atoms: C_2  and  O_3
REMARK    3  A    between atoms: C_2  and  C_4
REMARK    4  A    between atoms: C_8  and  C_9
REMARK    5  A    between atoms: C_9  and  O_11
REMARK    6  A    between atoms: C_12  and  C_13
REMARK                            x       y       z     vdW  Elec       q    Type
REMARK                         _______ _______ _______ _____ _____    ______ ____
ROOT
ATOM      1  C   UNL     1       2.630   2.787  20.065  0.00  0.00    +0.000 C 
ATOM      2  C   UNL     1       1.858   4.115  20.016  0.00  0.00    +0.000 C 
ATOM      3  O   UNL     1       0.721   4.432  19.743  0.00  0.00    +0.000 OA
ATOM      4  N   UNL     1       3.000   4.852  20.171  0.00  0.00    +0.000 N 
ATOM      5  C   UNL     1       3.281   5.844  19.231  0.00  0.00    +0.000 C 
ATOM      6  C   UNL     1       4.224   5.525  18.315  0.00  0.00    +0.000 C 
ATOM      7  S   UNL     1       4.867   3.907  18.589  0.00  0.00    +0.000 S 
ATOM      8  C   UNL     1       3.892   3.682  20.103  0.00  0.00    +0.000 C 
ENDROOT
BRANCH   6   9
ATOM      9  C   UNL     1       4.741   6.353  17.155  0.00  0.00    +0.000 C 
ATOM     10  C   UNL     1       6.059   7.119  17.327  0.00  0.00    +0.000 C 
ATOM     11  C   UNL     1       7.094   6.124  16.862  0.00  0.00    +0.000 C 
ATOM     12  C   UNL     1       6.381   5.493  15.693  0.00  0.00    +0.000 C 
ATOM     13  O   UNL     1       4.988   5.445  16.047  0.00  0.00    +0.000 OA
ENDBRANCH   6   9
BRANCH   1  15
ATOM     14  C   UNL     1       3.655   1.164  18.435  0.00  0.00    +0.000 C 
ATOM     15  C   UNL     1       2.373   1.842  18.903  0.00  0.00    +0.000 C 
BRANCH  15  16
ATOM     16  O   UNL     1       1.820   2.595  17.824  0.00  0.00    +0.000 OA
ATOM     17  H   UNL     1       0.866   2.713  17.982  0.00  0.00    +0.000 HD
ENDBRANCH  15  16
ENDBRANCH   1  15
BRANCH   5  18
ATOM     18  C   UNL     1       2.512   7.118  19.424  0.00  0.00    +0.000 C 
ATOM     19  O   UNL     1       2.150   7.796  18.469  0.00  0.00    +0.000 OA
BRANCH  18  20
ATOM     20  O   UNL     1       2.214   7.478  20.682  0.00  0.00    +0.000 OA
ATOM     21  H   UNL     1       2.826   8.133  21.084  0.00  0.00    +0.000 HD
ENDBRANCH  18  20
ENDBRANCH   5  18
TORSDOF 5
ENDMDL
