MODEL 1
REMARK VINA RESULT:      -7.4      0.000      0.000
REMARK  Name = 
REMARK  8 active torsions:
REMARK  status: ('A' for Active; 'I' for Inactive)
REMARK    1  A    between atoms: C_1  and  C_2
REMARK    2  A    between atoms: C_2  and  N_3
REMARK    3  A    between atoms: N_3  and  C_4
REMARK    4  A    between atoms: C_4  and  C_5
REMARK    5  A    between atoms: C_8  and  C_9
REMARK    6  A    between atoms: C_12  and  O_13
REMARK    7  A    between atoms: C_16  and  C_17
REMARK    8  A    between atoms: C_17  and  C_18
REMARK                            x       y       z     vdW  Elec       q    Type
REMARK                         _______ _______ _______ _____ _____    ______ ____
ROOT
ATOM      1  N   UNL     1       1.057   9.005  20.377  0.00  0.00    +0.000 N 
ATOM      2  C   UNL     1       1.804   8.214  19.539  0.00  0.00    +0.000 A 
ATOM      3  N   UNL     1       1.959   6.916  19.677  0.00  0.00    +0.000 NA
ATOM      4  C   UNL     1       2.711   6.371  18.637  0.00  0.00    +0.000 A 
ATOM      5  C   UNL     1       3.190   7.296  17.723  0.00  0.00    +0.000 A 
ATOM      6  S   UNL     1       2.685   8.864  18.199  0.00  0.00    +0.000 S 
ENDROOT
BRANCH   4   7
ATOM      7  C   UNL     1       2.986   4.934  18.620  0.00  0.00    +0.000 A 
ATOM      8  C   UNL     1       2.298   4.055  17.767  0.00  0.00    +0.000 A 
ATOM      9  C   UNL     1       2.652   2.709  17.684  0.00  0.00    +0.000 A 
ATOM     10  C   UNL     1       3.665   2.217  18.495  0.00  0.00    +0.000 A 
ATOM     11  C   UNL     1       4.301   3.045  19.410  0.00  0.00    +0.000 A 
ATOM     12  C   UNL     1       3.964   4.401  19.471  0.00  0.00    +0.000 A 
BRANCH  10  13
ATOM     13  O   UNL     1       4.063   0.916  18.415  0.00  0.00    +0.000 OA
ATOM     14  H   UNL     1       4.124   0.672  17.475  0.00  0.00    +0.000 HD
ENDBRANCH  10  13
ENDBRANCH   4   7
BRANCH   1  16
ATOM     15  C   UNL     1      -0.272   9.344  22.458  0.00  0.00    +0.000 C 
ATOM     16  C   UNL     1       0.547   8.391  21.605  0.00  0.00    +0.000 C 
ENDBRANCH   1  16
BRANCH   1  17
ATOM     17  C   UNL     1       0.461  10.227  19.816  0.00  0.00    +0.000 C 
ATOM     18  C   UNL     1      -0.740  10.053  18.906  0.00  0.00    +0.000 C 
ENDBRANCH   1  17
BRANCH   5  19
ATOM     19  C   UNL     1       4.085   7.176  16.519  0.00  0.00    +0.000 C 
BRANCH  19  20
ATOM     20  C   UNL     1       5.321   6.303  16.686  0.00  0.00    +0.000 A 
ATOM     21  C   UNL     1       6.349   6.589  17.598  0.00  0.00    +0.000 A 
ATOM     22  C   UNL     1       7.421   5.709  17.771  0.00  0.00    +0.000 A 
ATOM     23  C   UNL     1       7.483   4.529  17.035  0.00  0.00    +0.000 A 
ATOM     24  C   UNL     1       6.480   4.232  16.119  0.00  0.00    +0.000 A 
ATOM     25  C   UNL     1       5.406   5.108  15.947  0.00  0.00    +0.000 A 
ENDBRANCH  19  20
ENDBRANCH   5  19
TORSDOF 6
ENDMDL
MODEL 2
REMARK VINA RESULT:      -7.0      0.247      1.412
REMARK  Name = 
REMARK  8 active torsions:
REMARK  status: ('A' for Active; 'I' for Inactive)
REMARK    1  A    between atoms: C_1  and  C_2
REMARK    2  A    between atoms: C_2  and  N_3
REMARK    3  A    between atoms: N_3  and  C_4
REMARK    4  A    between atoms: C_4  and  C_5
REMARK    5  A    between atoms: C_8  and  C_9
REMARK    6  A    between atoms: C_12  and  O_13
REMARK    7  A    between atoms: C_16  and  C_17
REMARK    8  A    between atoms: C_17  and  C_18
REMARK                            x       y       z     vdW  Elec       q    Type
REMARK                         _______ _______ _______ _____ _____    ______ ____
ROOT
ATOM      1  N   UNL     1       0.945   9.123  20.337  0.00  0.00    +0.000 N 
ATOM      2  C   UNL     1       1.715   8.346  19.507  0.00  0.00    +0.000 A 
ATOM      3  N   UNL     1       1.870   7.046  19.629  0.00  0.00    +0.000 NA
ATOM      4  C   UNL     1       2.649   6.518  18.601  0.00  0.00    +0.000 A 
ATOM      5  C   UNL     1       3.151   7.458  17.714  0.00  0.00    +0.000 A 
ATOM      6  S   UNL     1       2.631   9.018  18.201  0.00  0.00    +0.000 S 
ENDROOT
BRANCH   4   7
ATOM      7  C   UNL     1       2.927   5.082  18.570  0.00  0.00    +0.000 A 
ATOM      8  C   UNL     1       3.906   4.496  19.390  0.00  0.00    +0.000 A 
ATOM      9  C   UNL     1       4.077   3.112  19.429  0.00  0.00    +0.000 A 
ATOM     10  C   UNL     1       3.307   2.304  18.605  0.00  0.00    +0.000 A 
ATOM     11  C   UNL     1       2.395   2.864  17.720  0.00  0.00    +0.000 A 
ATOM     12  C   UNL     1       2.204   4.250  17.704  0.00  0.00    +0.000 A 
BRANCH  10  13
ATOM     13  O   UNL     1       3.422   0.947  18.642  0.00  0.00    +0.000 OA
ATOM     14  H   UNL     1       2.850   0.611  19.353  0.00  0.00    +0.000 HD
ENDBRANCH  10  13
ENDBRANCH   4   7
BRANCH   1  16
ATOM     15  C   UNL     1      -0.068   9.487  22.585  0.00  0.00    +0.000 C 
ATOM     16  C   UNL     1       0.405   8.490  21.542  0.00  0.00    +0.000 C 
ENDBRANCH   1  16
BRANCH   1  17
ATOM     17  C   UNL     1       0.362  10.352  19.779  0.00  0.00    +0.000 C 
ATOM     18  C   UNL     1      -0.899  10.203  18.949  0.00  0.00    +0.000 C 
ENDBRANCH   1  17
BRANCH   5  19
ATOM     19  C   UNL     1       4.077   7.358  16.533  0.00  0.00    +0.000 C 
BRANCH  19  20
ATOM     20  C   UNL     1       5.195   6.329  16.642  0.00  0.00    +0.000 A 
ATOM     21  C   UNL     1       5.252   5.167  15.857  0.00  0.00    +0.000 A 
ATOM     22  C   UNL     1       6.343   4.298  15.938  0.00  0.00    +0.000 A 
ATOM     23  C   UNL     1       7.397   4.578  16.803  0.00  0.00    +0.000 A 
ATOM     24  C   UNL     1       7.356   5.720  17.597  0.00  0.00    +0.000 A 
ATOM     25  C   UNL     1       6.267   6.590  17.515  0.00  0.00    +0.000 A 
ENDBRANCH  19  20
ENDBRANCH   5  19
TORSDOF 6
ENDMDL
MODEL 3
REMARK VINA RESULT:      -7.0      3.212      6.702
REMARK  Name = 
REMARK  8 active torsions:
REMARK  status: ('A' for Active; 'I' for Inactive)
REMARK    1  A    between atoms: C_1  and  C_2
REMARK    2  A    between atoms: C_2  and  N_3
REMARK    3  A    between atoms: N_3  and  C_4
REMARK    4  A    between atoms: C_4  and  C_5
REMARK    5  A    between atoms: C_8  and  C_9
REMARK    6  A    between atoms: C_12  and  O_13
REMARK    7  A    between atoms: C_16  and  C_17
REMARK    8  A    between atoms: C_17  and  C_18
REMARK                            x       y       z     vdW  Elec       q    Type
REMARK                         _______ _______ _______ _____ _____    ______ ____
ROOT
ATOM      1  N   UNL     1       6.675   5.885  16.832  0.00  0.00    +0.000 N 
ATOM      2  C   UNL     1       5.359   5.924  17.222  0.00  0.00    +0.000 A 
ATOM      3  N   UNL     1       4.741   6.998  17.662  0.00  0.00    +0.000 NA
ATOM      4  C   UNL     1       3.392   6.753  17.914  0.00  0.00    +0.000 A 
ATOM      5  C   UNL     1       2.997   5.438  17.719  0.00  0.00    +0.000 A 
ATOM      6  S   UNL     1       4.353   4.516  17.221  0.00  0.00    +0.000 S 
ENDROOT
BRANCH   4   7
ATOM      7  C   UNL     1       2.541   7.835  18.409  0.00  0.00    +0.000 A 
ATOM      8  C   UNL     1       2.131   8.896  17.583  0.00  0.00    +0.000 A 
ATOM      9  C   UNL     1       1.229   9.856  18.041  0.00  0.00    +0.000 A 
ATOM     10  C   UNL     1       0.769   9.794  19.349  0.00  0.00    +0.000 A 
ATOM     11  C   UNL     1       1.226   8.808  20.212  0.00  0.00    +0.000 A 
ATOM     12  C   UNL     1       2.108   7.828  19.742  0.00  0.00    +0.000 A 
BRANCH  10  13
ATOM     13  O   UNL     1      -0.141  10.693  19.818  0.00  0.00    +0.000 OA
ATOM     14  H   UNL     1       0.245  11.583  19.748  0.00  0.00    +0.000 HD
ENDBRANCH  10  13
ENDBRANCH   4   7
BRANCH   1  16
ATOM     15  C   UNL     1       8.069   7.109  18.496  0.00  0.00    +0.000 C 
ATOM     16  C   UNL     1       7.490   7.073  17.092  0.00  0.00    +0.000 C 
ENDBRANCH   1  16
BRANCH   1  17
ATOM     17  C   UNL     1       7.062   4.884  15.826  0.00  0.00    +0.000 C 
ATOM     18  C   UNL     1       6.417   4.996  14.458  0.00  0.00    +0.000 C 
ENDBRANCH   1  17
BRANCH   5  19
ATOM     19  C   UNL     1       1.694   4.719  17.938  0.00  0.00    +0.000 C 
BRANCH  19  20
ATOM     20  C   UNL     1       1.576   3.920  19.229  0.00  0.00    +0.000 A 
ATOM     21  C   UNL     1       1.109   2.597  19.277  0.00  0.00    +0.000 A 
ATOM     22  C   UNL     1       1.099   1.882  20.477  0.00  0.00    +0.000 A 
ATOM     23  C   UNL     1       1.558   2.476  21.649  0.00  0.00    +0.000 A 
ATOM     24  C   UNL     1       2.015   3.790  21.625  0.00  0.00    +0.000 A 
ATOM     25  C   UNL     1       2.028   4.505  20.426  0.00  0.00    +0.000 A 
ENDBRANCH  19  20
ENDBRANCH   5  19
TORSDOF 6
ENDMDL
MODEL 4
REMARK VINA RESULT:      -6.8      3.239      6.738
REMARK  Name = 
REMARK  8 active torsions:
REMARK  status: ('A' for Active; 'I' for Inactive)
REMARK    1  A    between atoms: C_1  and  C_2
REMARK    2  A    between atoms: C_2  and  N_3
REMARK    3  A    between atoms: N_3  and  C_4
REMARK    4  A    between atoms: C_4  and  C_5
REMARK    5  A    between atoms: C_8  and  C_9
REMARK    6  A    between atoms: C_12  and  O_13
REMARK    7  A    between atoms: C_16  and  C_17
REMARK    8  A    between atoms: C_17  and  C_18
REMARK                            x       y       z     vdW  Elec       q    Type
REMARK                         _______ _______ _______ _____ _____    ______ ____
ROOT
ATOM      1  N   UNL     1       6.619   6.123  16.844  0.00  0.00    +0.000 N 
ATOM      2  C   UNL     1       5.307   6.105  17.248  0.00  0.00    +0.000 A 
ATOM      3  N   UNL     1       4.649   7.151  17.697  0.00  0.00    +0.000 NA
ATOM      4  C   UNL     1       3.314   6.848  17.963  0.00  0.00    +0.000 A 
ATOM      5  C   UNL     1       2.973   5.518  17.769  0.00  0.00    +0.000 A 
ATOM      6  S   UNL     1       4.362   4.655  17.254  0.00  0.00    +0.000 S 
ENDROOT
BRANCH   4   7
ATOM      7  C   UNL     1       2.423   7.892  18.470  0.00  0.00    +0.000 A 
ATOM      8  C   UNL     1       1.917   7.865  19.781  0.00  0.00    +0.000 A 
ATOM      9  C   UNL     1       1.163   8.926  20.281  0.00  0.00    +0.000 A 
ATOM     10  C   UNL     1       0.862  10.001  19.457  0.00  0.00    +0.000 A 
ATOM     11  C   UNL     1       1.275  10.011  18.132  0.00  0.00    +0.000 A 
ATOM     12  C   UNL     1       2.057   8.960  17.640  0.00  0.00    +0.000 A 
BRANCH  10  13
ATOM     13  O   UNL     1       0.159  11.071  19.924  0.00  0.00    +0.000 OA
ATOM     14  H   UNL     1      -0.721  10.762  20.199  0.00  0.00    +0.000 HD
ENDBRANCH  10  13
ENDBRANCH   4   7
BRANCH   1  16
ATOM     15  C   UNL     1       8.154   7.310  18.409  0.00  0.00    +0.000 C 
ATOM     16  C   UNL     1       7.386   7.344  17.098  0.00  0.00    +0.000 C 
ENDBRANCH   1  16
BRANCH   1  17
ATOM     17  C   UNL     1       7.038   5.142  15.831  0.00  0.00    +0.000 C 
ATOM     18  C   UNL     1       6.269   5.130  14.524  0.00  0.00    +0.000 C 
ENDBRANCH   1  17
BRANCH   5  19
ATOM     19  C   UNL     1       1.705   4.744  18.000  0.00  0.00    +0.000 C 
BRANCH  19  20
ATOM     20  C   UNL     1       1.613   3.980  19.314  0.00  0.00    +0.000 A 
ATOM     21  C   UNL     1       1.064   2.692  19.421  0.00  0.00    +0.000 A 
ATOM     22  C   UNL     1       1.081   2.003  20.636  0.00  0.00    +0.000 A 
ATOM     23  C   UNL     1       1.649   2.587  21.764  0.00  0.00    +0.000 A 
ATOM     24  C   UNL     1       2.189   3.867  21.683  0.00  0.00    +0.000 A 
ATOM     25  C   UNL     1       2.175   4.557  20.468  0.00  0.00    +0.000 A 
ENDBRANCH  19  20
ENDBRANCH   5  19
TORSDOF 6
ENDMDL
MODEL 5
REMARK VINA RESULT:      -6.6      3.265      6.718
REMARK  Name = 
REMARK  8 active torsions:
REMARK  status: ('A' for Active; 'I' for Inactive)
REMARK    1  A    between atoms: C_1  and  C_2
REMARK    2  A    between atoms: C_2  and  N_3
REMARK    3  A    between atoms: N_3  and  C_4
REMARK    4  A    between atoms: C_4  and  C_5
REMARK    5  A    between atoms: C_8  and  C_9
REMARK    6  A    between atoms: C_12  and  O_13
REMARK    7  A    between atoms: C_16  and  C_17
REMARK    8  A    between atoms: C_17  and  C_18
REMARK                            x       y       z     vdW  Elec       q    Type
REMARK                         _______ _______ _______ _____ _____    ______ ____
ROOT
ATOM      1  N   UNL     1       6.782   5.925  16.741  0.00  0.00    +0.000 N 
ATOM      2  C   UNL     1       5.474   5.912  17.159  0.00  0.00    +0.000 A 
ATOM      3  N   UNL     1       4.816   6.966  17.591  0.00  0.00    +0.000 NA
ATOM      4  C   UNL     1       3.486   6.664  17.878  0.00  0.00    +0.000 A 
ATOM      5  C   UNL     1       3.148   5.328  17.720  0.00  0.00    +0.000 A 
ATOM      6  S   UNL     1       4.536   4.459  17.211  0.00  0.00    +0.000 S 
ENDROOT
BRANCH   4   7
ATOM      7  C   UNL     1       2.595   7.716  18.369  0.00  0.00    +0.000 A 
ATOM      8  C   UNL     1       2.054   7.687  19.665  0.00  0.00    +0.000 A 
ATOM      9  C   UNL     1       1.301   8.755  20.153  0.00  0.00    +0.000 A 
ATOM     10  C   UNL     1       1.037   9.840  19.329  0.00  0.00    +0.000 A 
ATOM     11  C   UNL     1       1.485   9.853  18.015  0.00  0.00    +0.000 A 
ATOM     12  C   UNL     1       2.265   8.795  17.536  0.00  0.00    +0.000 A 
BRANCH  10  13
ATOM     13  O   UNL     1       0.336  10.915  19.785  0.00  0.00    +0.000 OA
ATOM     14  H   UNL     1      -0.574  10.630  19.972  0.00  0.00    +0.000 HD
ENDBRANCH  10  13
ENDBRANCH   4   7
BRANCH   1  16
ATOM     15  C   UNL     1       8.131   7.261  18.356  0.00  0.00    +0.000 C 
ATOM     16  C   UNL     1       7.546   7.155  16.958  0.00  0.00    +0.000 C 
ENDBRANCH   1  16
BRANCH   1  17
ATOM     17  C   UNL     1       7.194   4.922  15.748  0.00  0.00    +0.000 C 
ATOM     18  C   UNL     1       6.849   5.204  14.298  0.00  0.00    +0.000 C 
ENDBRANCH   1  17
BRANCH   5  19
ATOM     19  C   UNL     1       1.885   4.555  17.983  0.00  0.00    +0.000 C 
BRANCH  19  20
ATOM     20  C   UNL     1       1.802   3.840  19.325  0.00  0.00    +0.000 A 
ATOM     21  C   UNL     1       2.395   4.334  20.498  0.00  0.00    +0.000 A 
ATOM     22  C   UNL     1       2.218   3.682  21.721  0.00  0.00    +0.000 A 
ATOM     23  C   UNL     1       1.444   2.527  21.793  0.00  0.00    +0.000 A 
ATOM     24  C   UNL     1       0.856   2.016  20.640  0.00  0.00    +0.000 A 
ATOM     25  C   UNL     1       1.030   2.668  19.417  0.00  0.00    +0.000 A 
ENDBRANCH  19  20
ENDBRANCH   5  19
TORSDOF 6
ENDMDL
MODEL 6
REMARK VINA RESULT:      -6.4      1.930      4.033
REMARK  Name = 
REMARK  8 active torsions:
REMARK  status: ('A' for Active; 'I' for Inactive)
REMARK    1  A    between atoms: C_1  and  C_2
REMARK    2  A    between atoms: C_2  and  N_3
REMARK    3  A    between atoms: N_3  and  C_4
REMARK    4  A    between atoms: C_4  and  C_5
REMARK    5  A    between atoms: C_8  and  C_9
REMARK    6  A    between atoms: C_12  and  O_13
REMARK    7  A    between atoms: C_16  and  C_17
REMARK    8  A    between atoms: C_17  and  C_18
REMARK                            x       y       z     vdW  Elec       q    Type
REMARK                         _______ _______ _______ _____ _____    ______ ____
ROOT
ATOM      1  N   UNL     1       1.082   9.924  19.644  0.00  0.00    +0.000 N 
ATOM      2  C   UNL     1       1.533   8.632  19.755  0.00  0.00    +0.000 A 
ATOM      3  N   UNL     1       2.391   8.067  18.934  0.00  0.00    +0.000 NA
ATOM      4  C   UNL     1       2.718   6.772  19.337  0.00  0.00    +0.000 A 
ATOM      5  C   UNL     1       2.037   6.326  20.459  0.00  0.00    +0.000 A 
ATOM      6  S   UNL     1       0.973   7.560  20.993  0.00  0.00    +0.000 S 
ENDROOT
BRANCH   4   7
ATOM      7  C   UNL     1       3.664   5.986  18.544  0.00  0.00    +0.000 A 
ATOM      8  C   UNL     1       5.013   5.853  18.913  0.00  0.00    +0.000 A 
ATOM      9  C   UNL     1       5.870   5.008  18.209  0.00  0.00    +0.000 A 
ATOM     10  C   UNL     1       5.399   4.329  17.094  0.00  0.00    +0.000 A 
ATOM     11  C   UNL     1       4.094   4.511  16.656  0.00  0.00    +0.000 A 
ATOM     12  C   UNL     1       3.227   5.336  17.381  0.00  0.00    +0.000 A 
BRANCH  10  13
ATOM     13  O   UNL     1       6.198   3.467  16.405  0.00  0.00    +0.000 OA
ATOM     14  H   UNL     1       5.688   3.106  15.661  0.00  0.00    +0.000 HD
ENDBRANCH  10  13
ENDBRANCH   4   7
BRANCH   1  16
ATOM     15  C   UNL     1       1.869  12.093  18.703  0.00  0.00    +0.000 C 
ATOM     16  C   UNL     1       1.441  10.661  18.432  0.00  0.00    +0.000 C 
ENDBRANCH   1  16
BRANCH   1  17
ATOM     17  C   UNL     1       0.666  10.612  20.875  0.00  0.00    +0.000 C 
ATOM     18  C   UNL     1      -0.785  11.042  20.968  0.00  0.00    +0.000 C 
ENDBRANCH   1  17
BRANCH   5  19
ATOM     19  C   UNL     1       2.012   5.008  21.183  0.00  0.00    +0.000 C 
BRANCH  19  20
ATOM     20  C   UNL     1       2.084   3.761  20.312  0.00  0.00    +0.000 A 
ATOM     21  C   UNL     1       1.019   3.317  19.513  0.00  0.00    +0.000 A 
ATOM     22  C   UNL     1       1.167   2.213  18.668  0.00  0.00    +0.000 A 
ATOM     23  C   UNL     1       2.382   1.538  18.606  0.00  0.00    +0.000 A 
ATOM     24  C   UNL     1       3.447   1.956  19.398  0.00  0.00    +0.000 A 
ATOM     25  C   UNL     1       3.302   3.060  20.241  0.00  0.00    +0.000 A 
ENDBRANCH  19  20
ENDBRANCH   5  19
TORSDOF 6
ENDMDL
MODEL 7
REMARK VINA RESULT:      -6.4      1.877      3.839
REMARK  Name = 
REMARK  8 active torsions:
REMARK  status: ('A' for Active; 'I' for Inactive)
REMARK    1  A    between atoms: C_1  and  C_2
REMARK    2  A    between atoms: C_2  and  N_3
REMARK    3  A    between atoms: N_3  and  C_4
REMARK    4  A    between atoms: C_4  and  C_5
REMARK    5  A    between atoms: C_8  and  C_9
REMARK    6  A    between atoms: C_12  and  O_13
REMARK    7  A    between atoms: C_16  and  C_17
REMARK    8  A    between atoms: C_17  and  C_18
REMARK                            x       y       z     vdW  Elec       q    Type
REMARK                         _______ _______ _______ _____ _____    ______ ____
ROOT
ATOM      1  N   UNL     1       1.238   9.740  19.360  0.00  0.00    +0.000 N 
ATOM      2  C   UNL     1       1.702   8.456  19.505  0.00  0.00    +0.000 A 
ATOM      3  N   UNL     1       2.636   7.910  18.757  0.00  0.00    +0.000 NA
ATOM      4  C   UNL     1       2.952   6.621  19.184  0.00  0.00    +0.000 A 
ATOM      5  C   UNL     1       2.187   6.158  20.243  0.00  0.00    +0.000 A 
ATOM      6  S   UNL     1       1.060   7.370  20.689  0.00  0.00    +0.000 S 
ENDROOT
BRANCH   4   7
ATOM      7  C   UNL     1       3.976   5.855  18.471  0.00  0.00    +0.000 A 
ATOM      8  C   UNL     1       3.721   5.248  17.230  0.00  0.00    +0.000 A 
ATOM      9  C   UNL     1       4.740   4.620  16.514  0.00  0.00    +0.000 A 
ATOM     10  C   UNL     1       6.014   4.546  17.059  0.00  0.00    +0.000 A 
ATOM     11  C   UNL     1       6.271   5.059  18.324  0.00  0.00    +0.000 A 
ATOM     12  C   UNL     1       5.255   5.715  19.027  0.00  0.00    +0.000 A 
BRANCH  10  13
ATOM     13  O   UNL     1       7.042   3.973  16.373  0.00  0.00    +0.000 OA
ATOM     14  H   UNL     1       6.704   3.180  15.922  0.00  0.00    +0.000 HD
ENDBRANCH  10  13
ENDBRANCH   4   7
BRANCH   1  16
ATOM     15  C   UNL     1       2.051  11.931  18.492  0.00  0.00    +0.000 C 
ATOM     16  C   UNL     1       1.684  10.489  18.184  0.00  0.00    +0.000 C 
ENDBRANCH   1  16
BRANCH   1  17
ATOM     17  C   UNL     1       0.707  10.416  20.553  0.00  0.00    +0.000 C 
ATOM     18  C   UNL     1      -0.755  10.818  20.525  0.00  0.00    +0.000 C 
ENDBRANCH   1  17
BRANCH   5  19
ATOM     19  C   UNL     1       2.126   4.836  20.959  0.00  0.00    +0.000 C 
BRANCH  19  20
ATOM     20  C   UNL     1       2.434   3.603  20.121  0.00  0.00    +0.000 A 
ATOM     21  C   UNL     1       1.577   3.118  19.120  0.00  0.00    +0.000 A 
ATOM     22  C   UNL     1       1.947   2.031  18.323  0.00  0.00    +0.000 A 
ATOM     23  C   UNL     1       3.178   1.412  18.512  0.00  0.00    +0.000 A 
ATOM     24  C   UNL     1       4.037   1.870  19.506  0.00  0.00    +0.000 A 
ATOM     25  C   UNL     1       3.672   2.958  20.301  0.00  0.00    +0.000 A 
ENDBRANCH  19  20
ENDBRANCH   5  19
TORSDOF 6
ENDMDL
MODEL 8
REMARK VINA RESULT:      -6.3      3.046      5.537
REMARK  Name = 
REMARK  8 active torsions:
REMARK  status: ('A' for Active; 'I' for Inactive)
REMARK    1  A    between atoms: C_1  and  C_2
REMARK    2  A    between atoms: C_2  and  N_3
REMARK    3  A    between atoms: N_3  and  C_4
REMARK    4  A    between atoms: C_4  and  C_5
REMARK    5  A    between atoms: C_8  and  C_9
REMARK    6  A    between atoms: C_12  and  O_13
REMARK    7  A    between atoms: C_16  and  C_17
REMARK    8  A    between atoms: C_17  and  C_18
REMARK                            x       y       z     vdW  Elec       q    Type
REMARK                         _______ _______ _______ _____ _____    ______ ____
ROOT
ATOM      1  N   UNL     1       2.398   2.632  19.099  0.00  0.00    +0.000 N 
ATOM      2  C   UNL     1       2.779   3.870  18.642  0.00  0.00    +0.000 A 
ATOM      3  N   UNL     1       2.200   5.001  18.979  0.00  0.00    +0.000 NA
ATOM      4  C   UNL     1       2.847   6.101  18.417  0.00  0.00    +0.000 A 
ATOM      5  C   UNL     1       3.905   5.785  17.580  0.00  0.00    +0.000 A 
ATOM      6  S   UNL     1       4.067   4.079  17.506  0.00  0.00    +0.000 S 
ENDROOT
BRANCH   4   7
ATOM      7  C   UNL     1       2.344   7.449  18.685  0.00  0.00    +0.000 A 
ATOM      8  C   UNL     1       2.294   8.436  17.685  0.00  0.00    +0.000 A 
ATOM      9  C   UNL     1       1.707   9.677  17.930  0.00  0.00    +0.000 A 
ATOM     10  C   UNL     1       1.212   9.963  19.194  0.00  0.00    +0.000 A 
ATOM     11  C   UNL     1       1.329   9.039  20.224  0.00  0.00    +0.000 A 
ATOM     12  C   UNL     1       1.892   7.783  19.969  0.00  0.00    +0.000 A 
BRANCH  10  13
ATOM     13  O   UNL     1       0.599  11.151  19.459  0.00  0.00    +0.000 OA
ATOM     14  H   UNL     1       0.067  11.048  20.266  0.00  0.00    +0.000 HD
ENDBRANCH  10  13
ENDBRANCH   4   7
BRANCH   1  16
ATOM     15  C   UNL     1       1.364   2.723  21.365  0.00  0.00    +0.000 C 
ATOM     16  C   UNL     1       1.157   2.551  19.870  0.00  0.00    +0.000 C 
ENDBRANCH   1  16
BRANCH   1  17
ATOM     17  C   UNL     1       3.427   1.583  19.173  0.00  0.00    +0.000 C 
ATOM     18  C   UNL     1       4.563   1.800  20.155  0.00  0.00    +0.000 C 
ENDBRANCH   1  17
BRANCH   5  19
ATOM     19  C   UNL     1       4.814   6.620  16.720  0.00  0.00    +0.000 C 
BRANCH  19  20
ATOM     20  C   UNL     1       6.151   7.009  17.336  0.00  0.00    +0.000 A 
ATOM     21  C   UNL     1       6.750   8.264  17.148  0.00  0.00    +0.000 A 
ATOM     22  C   UNL     1       7.937   8.599  17.805  0.00  0.00    +0.000 A 
ATOM     23  C   UNL     1       8.545   7.685  18.661  0.00  0.00    +0.000 A 
ATOM     24  C   UNL     1       7.973   6.432  18.853  0.00  0.00    +0.000 A 
ATOM     25  C   UNL     1       6.785   6.096  18.200  0.00  0.00    +0.000 A 
ENDBRANCH  19  20
ENDBRANCH   5  19
TORSDOF 6
ENDMDL
MODEL 9
REMARK VINA RESULT:      -6.1      3.786      7.528
REMARK  Name = 
REMARK  8 active torsions:
REMARK  status: ('A' for Active; 'I' for Inactive)
REMARK    1  A    between atoms: C_1  and  C_2
REMARK    2  A    between atoms: C_2  and  N_3
REMARK    3  A    between atoms: N_3  and  C_4
REMARK    4  A    between atoms: C_4  and  C_5
REMARK    5  A    between atoms: C_8  and  C_9
REMARK    6  A    between atoms: C_12  and  O_13
REMARK    7  A    between atoms: C_16  and  C_17
REMARK    8  A    between atoms: C_17  and  C_18
REMARK                            x       y       z     vdW  Elec       q    Type
REMARK                         _______ _______ _______ _____ _____    ______ ____
ROOT
ATOM      1  N   UNL     1       1.830  14.426  18.594  0.00  0.00    +0.000 N 
ATOM      2  C   UNL     1       1.213  13.204  18.706  0.00  0.00    +0.000 A 
ATOM      3  N   UNL     1       1.843  12.053  18.786  0.00  0.00    +0.000 NA
ATOM      4  C   UNL     1       0.959  10.989  18.963  0.00  0.00    +0.000 A 
ATOM      5  C   UNL     1      -0.381  11.343  18.951  0.00  0.00    +0.000 A 
ATOM      6  S   UNL     1      -0.509  13.035  18.706  0.00  0.00    +0.000 S 
ENDROOT
BRANCH   4   7
ATOM      7  C   UNL     1       1.481   9.627  19.076  0.00  0.00    +0.000 A 
ATOM      8  C   UNL     1       1.388   8.892  20.270  0.00  0.00    +0.000 A 
ATOM      9  C   UNL     1       1.788   7.557  20.324  0.00  0.00    +0.000 A 
ATOM     10  C   UNL     1       2.335   6.959  19.198  0.00  0.00    +0.000 A 
ATOM     11  C   UNL     1       2.520   7.689  18.031  0.00  0.00    +0.000 A 
ATOM     12  C   UNL     1       2.091   9.020  17.969  0.00  0.00    +0.000 A 
BRANCH  10  13
ATOM     13  O   UNL     1       2.703   5.648  19.205  0.00  0.00    +0.000 OA
ATOM     14  H   UNL     1       1.901   5.106  19.303  0.00  0.00    +0.000 HD
ENDBRANCH  10  13
ENDBRANCH   4   7
BRANCH   1  16
ATOM     15  C   UNL     1       3.745  15.583  17.498  0.00  0.00    +0.000 C 
ATOM     16  C   UNL     1       3.277  14.432  18.371  0.00  0.00    +0.000 C 
ENDBRANCH   1  16
BRANCH   1  17
ATOM     17  C   UNL     1       1.122  15.601  19.124  0.00  0.00    +0.000 C 
ATOM     18  C   UNL     1       1.466  16.034  20.537  0.00  0.00    +0.000 C 
ENDBRANCH   1  17
BRANCH   5  19
ATOM     19  C   UNL     1      -1.651  10.541  19.026  0.00  0.00    +0.000 C 
BRANCH  19  20
ATOM     20  C   UNL     1      -2.516  10.533  17.771  0.00  0.00    +0.000 A 
ATOM     21  C   UNL     1      -3.732  11.227  17.670  0.00  0.00    +0.000 A 
ATOM     22  C   UNL     1      -4.444  11.254  16.468  0.00  0.00    +0.000 A 
ATOM     23  C   UNL     1      -3.952  10.591  15.348  0.00  0.00    +0.000 A 
ATOM     24  C   UNL     1      -2.754   9.890  15.430  0.00  0.00    +0.000 A 
ATOM     25  C   UNL     1      -2.039   9.863  16.630  0.00  0.00    +0.000 A 
ENDBRANCH  19  20
ENDBRANCH   5  19
TORSDOF 6
ENDMDL
