MODEL 1
REMARK VINA RESULT:      -8.0      0.000      0.000
REMARK  Name = 
REMARK  10 active torsions:
REMARK  status: ('A' for Active; 'I' for Inactive)
REMARK    1  A    between atoms: C_1  and  O_2
REMARK    2  A    between atoms: O_2  and  C_3
REMARK    3  A    between atoms: C_8  and  N_9
REMARK    4  A    between atoms: N_12  and  C_13
REMARK    5  A    between atoms: C_13  and  C_14
REMARK    6  A    between atoms: C_14  and  C_15
REMARK    7  A    between atoms: C_15  and  C_16
REMARK    8  A    between atoms: C_16  and  N_17
REMARK    9  A    between atoms: C_18  and  C_20
REMARK   10  A    between atoms: C_21  and  C_22
REMARK                            x       y       z     vdW  Elec       q    Type
REMARK                         _______ _______ _______ _____ _____    ______ ____
ROOT
ATOM      1  C   UNL     1       8.083   8.611  17.458  0.00  0.00    +0.000 C 
ENDROOT
BRANCH   1   2
ATOM      2  C   UNL     1       7.601   7.246  17.957  0.00  0.00    +0.000 C 
BRANCH   2   3
ATOM      3  C   UNL     1       7.074   6.333  16.840  0.00  0.00    +0.000 C 
BRANCH   3   7
ATOM      4  N   UNL     1       4.360   4.807  18.747  0.00  0.00    +0.000 N 
ATOM      5  C   UNL     1       5.539   5.422  19.367  0.00  0.00    +0.000 C 
ATOM      6  C   UNL     1       6.819   4.810  18.757  0.00  0.00    +0.000 C 
ATOM      7  N   UNL     1       6.910   4.938  17.276  0.00  0.00    +0.000 NA
ATOM      8  C   UNL     1       5.685   4.334  16.697  0.00  0.00    +0.000 C 
ATOM      9  C   UNL     1       4.343   4.853  17.274  0.00  0.00    +0.000 C 
BRANCH   4  15
ATOM     10  C   UNL     1       3.220   2.916  19.885  0.00  0.00    +0.000 A 
ATOM     11  C   UNL     1       2.095   2.452  20.588  0.00  0.00    +0.000 A 
ATOM     12  C   UNL     1       1.053   3.312  20.925  0.00  0.00    +0.000 A 
ATOM     13  C   UNL     1       1.126   4.645  20.558  0.00  0.00    +0.000 A 
ATOM     14  C   UNL     1       2.236   5.111  19.852  0.00  0.00    +0.000 A 
ATOM     15  C   UNL     1       3.310   4.274  19.479  0.00  0.00    +0.000 A 
BRANCH  10  17
ATOM     16  C   UNL     1       3.943   1.349  18.256  0.00  0.00    +0.000 C 
ATOM     17  O   UNL     1       4.202   2.036  19.480  0.00  0.00    +0.000 OA
ENDBRANCH  10  17
ENDBRANCH   4  15
ENDBRANCH   3   7
ENDBRANCH   2   3
ENDBRANCH   1   2
BRANCH   1  18
ATOM     18  C   UNL     1       8.641   9.457  18.599  0.00  0.00    +0.000 C 
BRANCH  18  19
ATOM     19  N   UNL     1       8.966  10.794  18.169  0.00  0.00    +0.000 N 
ATOM     20  C   UNL     1       9.895  11.548  18.834  0.00  0.00    +0.000 C 
ATOM     21  O   UNL     1      10.509  11.166  19.825  0.00  0.00    +0.000 OA
ATOM     22  H   UNL     1       8.535  11.140  17.323  0.00  0.00    +0.000 HD
BRANCH  20  23
ATOM     23  C   UNL     1      10.091  12.882  18.228  0.00  0.00    +0.000 C 
ATOM     24  C   UNL     1      10.109  13.953  19.036  0.00  0.00    +0.000 C 
BRANCH  24  25
ATOM     25  C   UNL     1      10.296  15.333  18.580  0.00  0.00    +0.000 A 
ATOM     26  C   UNL     1      11.483  15.662  17.905  0.00  0.00    +0.000 A 
ATOM     27  C   UNL     1      11.697  16.955  17.392  0.00  0.00    +0.000 A 
ATOM     28  C   UNL     1      10.721  17.942  17.535  0.00  0.00    +0.000 A 
ATOM     29  C   UNL     1       9.552  17.596  18.177  0.00  0.00    +0.000 A 
ATOM     30  C   UNL     1       9.340  16.333  18.689  0.00  0.00    +0.000 A 
ATOM     31  O   UNL     1       8.102  16.224  19.255  0.00  0.00    +0.000 OA
ATOM     32  C   UNL     1       7.523  17.492  18.897  0.00  0.00    +0.000 C 
ATOM     33  O   UNL     1       8.482  18.420  18.358  0.00  0.00    +0.000 OA
ENDBRANCH  24  25
ENDBRANCH  20  23
ENDBRANCH  18  19
ENDBRANCH   1  18
TORSDOF 9
ENDMDL
MODEL 2
REMARK VINA RESULT:      -7.8      6.536      8.782
REMARK  Name = 
REMARK  10 active torsions:
REMARK  status: ('A' for Active; 'I' for Inactive)
REMARK    1  A    between atoms: C_1  and  O_2
REMARK    2  A    between atoms: O_2  and  C_3
REMARK    3  A    between atoms: C_8  and  N_9
REMARK    4  A    between atoms: N_12  and  C_13
REMARK    5  A    between atoms: C_13  and  C_14
REMARK    6  A    between atoms: C_14  and  C_15
REMARK    7  A    between atoms: C_15  and  C_16
REMARK    8  A    between atoms: C_16  and  N_17
REMARK    9  A    between atoms: C_18  and  C_20
REMARK   10  A    between atoms: C_21  and  C_22
REMARK                            x       y       z     vdW  Elec       q    Type
REMARK                         _______ _______ _______ _____ _____    ______ ____
ROOT
ATOM      1  C   UNL     1       0.821   4.220  20.573  0.00  0.00    +0.000 C 
ENDROOT
BRANCH   1   2
ATOM      2  C   UNL     1       0.938   3.387  19.294  0.00  0.00    +0.000 C 
BRANCH   2   3
ATOM      3  C   UNL     1       1.654   2.043  19.498  0.00  0.00    +0.000 C 
BRANCH   3   7
ATOM      4  N   UNL     1       4.458   4.022  18.252  0.00  0.00    +0.000 N 
ATOM      5  C   UNL     1       3.091   4.142  17.736  0.00  0.00    +0.000 C 
ATOM      6  C   UNL     1       2.572   2.747  17.324  0.00  0.00    +0.000 C 
ATOM      7  N   UNL     1       2.605   1.737  18.418  0.00  0.00    +0.000 NA
ATOM      8  C   UNL     1       3.997   1.674  18.930  0.00  0.00    +0.000 C 
ATOM      9  C   UNL     1       4.625   3.032  19.332  0.00  0.00    +0.000 C 
BRANCH   4  15
ATOM     10  C   UNL     1       6.056   4.761  16.499  0.00  0.00    +0.000 A 
ATOM     11  C   UNL     1       7.151   5.569  16.150  0.00  0.00    +0.000 A 
ATOM     12  C   UNL     1       7.713   6.454  17.067  0.00  0.00    +0.000 A 
ATOM     13  C   UNL     1       7.184   6.537  18.343  0.00  0.00    +0.000 A 
ATOM     14  C   UNL     1       6.102   5.731  18.701  0.00  0.00    +0.000 A 
ATOM     15  C   UNL     1       5.509   4.811  17.809  0.00  0.00    +0.000 A 
BRANCH  10  17
ATOM     16  C   UNL     1       5.791   4.114  14.232  0.00  0.00    +0.000 C 
ATOM     17  O   UNL     1       5.568   3.825  15.611  0.00  0.00    +0.000 OA
ENDBRANCH  10  17
ENDBRANCH   4  15
ENDBRANCH   3   7
ENDBRANCH   2   3
ENDBRANCH   1   2
BRANCH   1  18
ATOM     18  C   UNL     1       2.011   5.162  20.736  0.00  0.00    +0.000 C 
BRANCH  18  19
ATOM     19  N   UNL     1       1.596   6.535  20.876  0.00  0.00    +0.000 N 
ATOM     20  C   UNL     1       1.981   7.489  19.974  0.00  0.00    +0.000 C 
ATOM     21  O   UNL     1       2.692   7.267  18.999  0.00  0.00    +0.000 OA
ATOM     22  H   UNL     1       0.960   6.766  21.627  0.00  0.00    +0.000 HD
BRANCH  20  23
ATOM     23  C   UNL     1       1.441   8.829  20.290  0.00  0.00    +0.000 C 
ATOM     24  C   UNL     1       0.233   8.910  20.867  0.00  0.00    +0.000 C 
BRANCH  24  25
ATOM     25  C   UNL     1      -0.427  10.164  21.239  0.00  0.00    +0.000 A 
ATOM     26  C   UNL     1      -0.598  10.454  22.603  0.00  0.00    +0.000 A 
ATOM     27  C   UNL     1      -1.171  11.668  23.025  0.00  0.00    +0.000 A 
ATOM     28  C   UNL     1      -1.574  12.622  22.090  0.00  0.00    +0.000 A 
ATOM     29  C   UNL     1      -1.376  12.333  20.756  0.00  0.00    +0.000 A 
ATOM     30  C   UNL     1      -0.822  11.142  20.337  0.00  0.00    +0.000 A 
ATOM     31  O   UNL     1      -0.704  11.097  18.977  0.00  0.00    +0.000 OA
ATOM     32  C   UNL     1      -1.091  12.437  18.623  0.00  0.00    +0.000 C 
ATOM     33  O   UNL     1      -1.667  13.169  19.721  0.00  0.00    +0.000 OA
ENDBRANCH  24  25
ENDBRANCH  20  23
ENDBRANCH  18  19
ENDBRANCH   1  18
TORSDOF 9
ENDMDL
MODEL 3
REMARK VINA RESULT:      -7.7      2.129      2.851
REMARK  Name = 
REMARK  10 active torsions:
REMARK  status: ('A' for Active; 'I' for Inactive)
REMARK    1  A    between atoms: C_1  and  O_2
REMARK    2  A    between atoms: O_2  and  C_3
REMARK    3  A    between atoms: C_8  and  N_9
REMARK    4  A    between atoms: N_12  and  C_13
REMARK    5  A    between atoms: C_13  and  C_14
REMARK    6  A    between atoms: C_14  and  C_15
REMARK    7  A    between atoms: C_15  and  C_16
REMARK    8  A    between atoms: C_16  and  N_17
REMARK    9  A    between atoms: C_18  and  C_20
REMARK   10  A    between atoms: C_21  and  C_22
REMARK                            x       y       z     vdW  Elec       q    Type
REMARK                         _______ _______ _______ _____ _____    ______ ____
ROOT
ATOM      1  C   UNL     1       8.352   9.507  17.971  0.00  0.00    +0.000 C 
ENDROOT
BRANCH   1   2
ATOM      2  C   UNL     1       8.212   7.996  18.172  0.00  0.00    +0.000 C 
BRANCH   2   3
ATOM      3  C   UNL     1       7.421   7.296  17.057  0.00  0.00    +0.000 C 
BRANCH   3   7
ATOM      4  N   UNL     1       4.688   4.970  17.726  0.00  0.00    +0.000 N 
ATOM      5  C   UNL     1       5.489   5.602  18.780  0.00  0.00    +0.000 C 
ATOM      6  C   UNL     1       6.988   5.353  18.505  0.00  0.00    +0.000 C 
ATOM      7  N   UNL     1       7.452   5.830  17.173  0.00  0.00    +0.000 NA
ATOM      8  C   UNL     1       6.593   5.192  16.144  0.00  0.00    +0.000 C 
ATOM      9  C   UNL     1       5.066   5.350  16.353  0.00  0.00    +0.000 C 
BRANCH   4  15
ATOM     10  C   UNL     1       2.343   4.558  18.435  0.00  0.00    +0.000 A 
ATOM     11  C   UNL     1       1.330   3.625  18.718  0.00  0.00    +0.000 A 
ATOM     12  C   UNL     1       1.542   2.260  18.547  0.00  0.00    +0.000 A 
ATOM     13  C   UNL     1       2.771   1.814  18.094  0.00  0.00    +0.000 A 
ATOM     14  C   UNL     1       3.785   2.734  17.819  0.00  0.00    +0.000 A 
ATOM     15  C   UNL     1       3.620   4.126  17.988  0.00  0.00    +0.000 A 
BRANCH  10  17
ATOM     16  C   UNL     1       2.162   6.265  20.073  0.00  0.00    +0.000 C 
ATOM     17  O   UNL     1       2.149   5.899  18.694  0.00  0.00    +0.000 OA
ENDBRANCH  10  17
ENDBRANCH   4  15
ENDBRANCH   3   7
ENDBRANCH   2   3
ENDBRANCH   1   2
BRANCH   1  18
ATOM     18  C   UNL     1       9.426  10.095  18.882  0.00  0.00    +0.000 C 
BRANCH  18  19
ATOM     19  N   UNL     1       9.169  11.479  19.193  0.00  0.00    +0.000 N 
ATOM     20  C   UNL     1       9.859  12.486  18.573  0.00  0.00    +0.000 C 
ATOM     21  O   UNL     1      10.729  12.305  17.728  0.00  0.00    +0.000 OA
ATOM     22  H   UNL     1       8.422  11.691  19.839  0.00  0.00    +0.000 HD
BRANCH  20  23
ATOM     23  C   UNL     1       9.439  13.830  19.024  0.00  0.00    +0.000 C 
ATOM     24  C   UNL     1       8.130  14.120  19.034  0.00  0.00    +0.000 C 
BRANCH  24  25
ATOM     25  C   UNL     1       7.568  15.406  19.456  0.00  0.00    +0.000 A 
ATOM     26  C   UNL     1       8.388  16.296  20.167  0.00  0.00    +0.000 A 
ATOM     27  C   UNL     1       7.925  17.569  20.549  0.00  0.00    +0.000 A 
ATOM     28  C   UNL     1       6.634  17.980  20.216  0.00  0.00    +0.000 A 
ATOM     29  C   UNL     1       5.850  17.104  19.497  0.00  0.00    +0.000 A 
ATOM     30  C   UNL     1       6.296  15.853  19.126  0.00  0.00    +0.000 A 
ATOM     31  O   UNL     1       5.354  15.182  18.400  0.00  0.00    +0.000 OA
ATOM     32  C   UNL     1       4.357  16.204  18.230  0.00  0.00    +0.000 C 
ATOM     33  O   UNL     1       4.590  17.364  19.050  0.00  0.00    +0.000 OA
ENDBRANCH  24  25
ENDBRANCH  20  23
ENDBRANCH  18  19
ENDBRANCH   1  18
TORSDOF 9
ENDMDL
MODEL 4
REMARK VINA RESULT:      -7.7      2.131     12.553
REMARK  Name = 
REMARK  10 active torsions:
REMARK  status: ('A' for Active; 'I' for Inactive)
REMARK    1  A    between atoms: C_1  and  O_2
REMARK    2  A    between atoms: O_2  and  C_3
REMARK    3  A    between atoms: C_8  and  N_9
REMARK    4  A    between atoms: N_12  and  C_13
REMARK    5  A    between atoms: C_13  and  C_14
REMARK    6  A    between atoms: C_14  and  C_15
REMARK    7  A    between atoms: C_15  and  C_16
REMARK    8  A    between atoms: C_16  and  N_17
REMARK    9  A    between atoms: C_18  and  C_20
REMARK   10  A    between atoms: C_21  and  C_22
REMARK                            x       y       z     vdW  Elec       q    Type
REMARK                         _______ _______ _______ _____ _____    ______ ____
ROOT
ATOM      1  C   UNL     1       8.111   8.821  17.581  0.00  0.00    +0.000 C 
ENDROOT
BRANCH   1   2
ATOM      2  C   UNL     1       8.522   9.905  18.581  0.00  0.00    +0.000 C 
BRANCH   2   3
ATOM      3  C   UNL     1       9.680  10.788  18.090  0.00  0.00    +0.000 C 
BRANCH   3   7
ATOM      4  N   UNL     1      10.049  14.409  18.373  0.00  0.00    +0.000 N 
ATOM      5  C   UNL     1      11.043  13.542  17.733  0.00  0.00    +0.000 C 
ATOM      6  C   UNL     1      11.434  12.404  18.701  0.00  0.00    +0.000 C 
ATOM      7  N   UNL     1      10.285  11.582  19.170  0.00  0.00    +0.000 NA
ATOM      8  C   UNL     1       9.293  12.502  19.780  0.00  0.00    +0.000 C 
ATOM      9  C   UNL     1       8.866  13.705  18.901  0.00  0.00    +0.000 C 
BRANCH   4  15
ATOM     10  C   UNL     1      10.289  16.534  19.637  0.00  0.00    +0.000 A 
ATOM     11  C   UNL     1      10.365  17.937  19.604  0.00  0.00    +0.000 A 
ATOM     12  C   UNL     1      10.353  18.630  18.397  0.00  0.00    +0.000 A 
ATOM     13  C   UNL     1      10.260  17.925  17.209  0.00  0.00    +0.000 A 
ATOM     14  C   UNL     1      10.174  16.532  17.234  0.00  0.00    +0.000 A 
ATOM     15  C   UNL     1      10.172  15.789  18.434  0.00  0.00    +0.000 A 
BRANCH  10  17
ATOM     16  C   UNL     1      11.281  16.119  21.752  0.00  0.00    +0.000 C 
ATOM     17  O   UNL     1      10.211  15.867  20.841  0.00  0.00    +0.000 OA
ENDBRANCH  10  17
ENDBRANCH   4  15
ENDBRANCH   3   7
ENDBRANCH   2   3
ENDBRANCH   1   2
BRANCH   1  18
ATOM     18  C   UNL     1       8.150   7.433  18.214  0.00  0.00    +0.000 C 
BRANCH  18  19
ATOM     19  N   UNL     1       6.900   6.733  18.056  0.00  0.00    +0.000 N 
ATOM     20  C   UNL     1       6.648   5.974  16.945  0.00  0.00    +0.000 C 
ATOM     21  O   UNL     1       7.435   5.831  16.015  0.00  0.00    +0.000 OA
ATOM     22  H   UNL     1       6.236   6.766  18.816  0.00  0.00    +0.000 HD
BRANCH  20  23
ATOM     23  C   UNL     1       5.317   5.330  16.980  0.00  0.00    +0.000 C 
ATOM     24  C   UNL     1       4.962   4.659  18.086  0.00  0.00    +0.000 C 
BRANCH  24  25
ATOM     25  C   UNL     1       3.679   3.975  18.266  0.00  0.00    +0.000 A 
ATOM     26  C   UNL     1       3.425   2.815  17.515  0.00  0.00    +0.000 A 
ATOM     27  C   UNL     1       2.237   2.081  17.685  0.00  0.00    +0.000 A 
ATOM     28  C   UNL     1       1.284   2.487  18.619  0.00  0.00    +0.000 A 
ATOM     29  C   UNL     1       1.558   3.612  19.365  0.00  0.00    +0.000 A 
ATOM     30  C   UNL     1       2.717   4.340  19.197  0.00  0.00    +0.000 A 
ATOM     31  O   UNL     1       2.776   5.393  20.065  0.00  0.00    +0.000 OA
ATOM     32  C   UNL     1       1.619   5.142  20.881  0.00  0.00    +0.000 C 
ATOM     33  O   UNL     1       0.762   4.116  20.348  0.00  0.00    +0.000 OA
ENDBRANCH  24  25
ENDBRANCH  20  23
ENDBRANCH  18  19
ENDBRANCH   1  18
TORSDOF 9
ENDMDL
MODEL 5
REMARK VINA RESULT:      -7.6      3.219      4.110
REMARK  Name = 
REMARK  10 active torsions:
REMARK  status: ('A' for Active; 'I' for Inactive)
REMARK    1  A    between atoms: C_1  and  O_2
REMARK    2  A    between atoms: O_2  and  C_3
REMARK    3  A    between atoms: C_8  and  N_9
REMARK    4  A    between atoms: N_12  and  C_13
REMARK    5  A    between atoms: C_13  and  C_14
REMARK    6  A    between atoms: C_14  and  C_15
REMARK    7  A    between atoms: C_15  and  C_16
REMARK    8  A    between atoms: C_16  and  N_17
REMARK    9  A    between atoms: C_18  and  C_20
REMARK   10  A    between atoms: C_21  and  C_22
REMARK                            x       y       z     vdW  Elec       q    Type
REMARK                         _______ _______ _______ _____ _____    ______ ____
ROOT
ATOM      1  C   UNL     1       8.592   8.555  18.353  0.00  0.00    +0.000 C 
ENDROOT
BRANCH   1   2
ATOM      2  C   UNL     1       7.308   8.119  17.643  0.00  0.00    +0.000 C 
BRANCH   2   3
ATOM      3  C   UNL     1       7.452   6.801  16.866  0.00  0.00    +0.000 C 
BRANCH   3   7
ATOM      4  N   UNL     1       4.674   4.703  17.967  0.00  0.00    +0.000 N 
ATOM      5  C   UNL     1       5.114   5.904  18.684  0.00  0.00    +0.000 C 
ATOM      6  C   UNL     1       6.630   5.809  18.964  0.00  0.00    +0.000 C 
ATOM      7  N   UNL     1       7.465   5.623  17.745  0.00  0.00    +0.000 NA
ATOM      8  C   UNL     1       6.963   4.419  17.037  0.00  0.00    +0.000 C 
ATOM      9  C   UNL     1       5.441   4.398  16.745  0.00  0.00    +0.000 C 
BRANCH   4  15
ATOM     10  C   UNL     1       3.628   2.950  19.382  0.00  0.00    +0.000 A 
ATOM     11  C   UNL     1       2.485   2.190  19.688  0.00  0.00    +0.000 A 
ATOM     12  C   UNL     1       1.282   2.402  19.020  0.00  0.00    +0.000 A 
ATOM     13  C   UNL     1       1.211   3.373  18.037  0.00  0.00    +0.000 A 
ATOM     14  C   UNL     1       2.344   4.125  17.721  0.00  0.00    +0.000 A 
ATOM     15  C   UNL     1       3.588   3.938  18.363  0.00  0.00    +0.000 A 
BRANCH  10  17
ATOM     16  C   UNL     1       4.911   1.406  20.647  0.00  0.00    +0.000 C 
ATOM     17  O   UNL     1       4.835   2.669  19.987  0.00  0.00    +0.000 OA
ENDBRANCH  10  17
ENDBRANCH   4  15
ENDBRANCH   3   7
ENDBRANCH   2   3
ENDBRANCH   1   2
BRANCH   1  18
ATOM     18  C   UNL     1       8.861  10.044  18.157  0.00  0.00    +0.000 C 
BRANCH  18  19
ATOM     19  N   UNL     1       9.048  10.728  19.412  0.00  0.00    +0.000 N 
ATOM     20  C   UNL     1      10.227  11.356  19.710  0.00  0.00    +0.000 C 
ATOM     21  O   UNL     1      11.198  11.388  18.961  0.00  0.00    +0.000 OA
ATOM     22  H   UNL     1       8.262  10.785  20.044  0.00  0.00    +0.000 HD
BRANCH  20  23
ATOM     23  C   UNL     1      10.211  12.006  21.038  0.00  0.00    +0.000 C 
ATOM     24  C   UNL     1       9.130  12.717  21.387  0.00  0.00    +0.000 C 
BRANCH  24  25
ATOM     25  C   UNL     1       8.971  13.413  22.667  0.00  0.00    +0.000 A 
ATOM     26  C   UNL     1       9.350  14.763  22.749  0.00  0.00    +0.000 A 
ATOM     27  C   UNL     1       9.168  15.502  23.933  0.00  0.00    +0.000 A 
ATOM     28  C   UNL     1       8.592  14.907  25.055  0.00  0.00    +0.000 A 
ATOM     29  C   UNL     1       8.203  13.589  24.951  0.00  0.00    +0.000 A 
ATOM     30  C   UNL     1       8.386  12.858  23.796  0.00  0.00    +0.000 A 
ATOM     31  O   UNL     1       7.898  11.589  23.925  0.00  0.00    +0.000 OA
ATOM     32  C   UNL     1       7.260  11.669  25.212  0.00  0.00    +0.000 C 
ATOM     33  O   UNL     1       7.584  12.873  25.931  0.00  0.00    +0.000 OA
ENDBRANCH  24  25
ENDBRANCH  20  23
ENDBRANCH  18  19
ENDBRANCH   1  18
TORSDOF 9
ENDMDL
MODEL 6
REMARK VINA RESULT:      -7.5      1.779     12.542
REMARK  Name = 
REMARK  10 active torsions:
REMARK  status: ('A' for Active; 'I' for Inactive)
REMARK    1  A    between atoms: C_1  and  O_2
REMARK    2  A    between atoms: O_2  and  C_3
REMARK    3  A    between atoms: C_8  and  N_9
REMARK    4  A    between atoms: N_12  and  C_13
REMARK    5  A    between atoms: C_13  and  C_14
REMARK    6  A    between atoms: C_14  and  C_15
REMARK    7  A    between atoms: C_15  and  C_16
REMARK    8  A    between atoms: C_16  and  N_17
REMARK    9  A    between atoms: C_18  and  C_20
REMARK   10  A    between atoms: C_21  and  C_22
REMARK                            x       y       z     vdW  Elec       q    Type
REMARK                         _______ _______ _______ _____ _____    ______ ____
ROOT
ATOM      1  C   UNL     1       7.817   9.539  17.873  0.00  0.00    +0.000 C 
ENDROOT
BRANCH   1   2
ATOM      2  C   UNL     1       9.057  10.411  18.083  0.00  0.00    +0.000 C 
BRANCH   2   3
ATOM      3  C   UNL     1       9.389  10.663  19.562  0.00  0.00    +0.000 C 
BRANCH   3   7
ATOM      4  N   UNL     1      10.300  14.091  18.698  0.00  0.00    +0.000 N 
ATOM      5  C   UNL     1      10.440  12.960  17.776  0.00  0.00    +0.000 C 
ATOM      6  C   UNL     1      11.251  11.836  18.458  0.00  0.00    +0.000 C 
ATOM      7  N   UNL     1      10.671  11.361  19.745  0.00  0.00    +0.000 NA
ATOM      8  C   UNL     1      10.517  12.542  20.631  0.00  0.00    +0.000 C 
ATOM      9  C   UNL     1       9.751  13.743  20.021  0.00  0.00    +0.000 C 
BRANCH   4  15
ATOM     10  C   UNL     1       9.664  16.326  17.819  0.00  0.00    +0.000 A 
ATOM     11  C   UNL     1      10.070  17.620  17.450  0.00  0.00    +0.000 A 
ATOM     12  C   UNL     1      11.389  18.034  17.613  0.00  0.00    +0.000 A 
ATOM     13  C   UNL     1      12.317  17.155  18.144  0.00  0.00    +0.000 A 
ATOM     14  C   UNL     1      11.924  15.865  18.505  0.00  0.00    +0.000 A 
ATOM     15  C   UNL     1      10.601  15.398  18.347  0.00  0.00    +0.000 A 
BRANCH  10  17
ATOM     16  C   UNL     1       7.383  16.392  18.467  0.00  0.00    +0.000 C 
ATOM     17  O   UNL     1       8.377  15.900  17.569  0.00  0.00    +0.000 OA
ENDBRANCH  10  17
ENDBRANCH   4  15
ENDBRANCH   3   7
ENDBRANCH   2   3
ENDBRANCH   1   2
BRANCH   1  18
ATOM     18  C   UNL     1       8.191   8.072  17.680  0.00  0.00    +0.000 C 
BRANCH  18  19
ATOM     19  N   UNL     1       7.218   7.185  18.266  0.00  0.00    +0.000 N 
ATOM     20  C   UNL     1       6.552   6.261  17.508  0.00  0.00    +0.000 C 
ATOM     21  O   UNL     1       6.717   6.113  16.301  0.00  0.00    +0.000 OA
ATOM     22  H   UNL     1       7.083   7.221  19.267  0.00  0.00    +0.000 HD
BRANCH  20  23
ATOM     23  C   UNL     1       5.607   5.443  18.299  0.00  0.00    +0.000 C 
ATOM     24  C   UNL     1       4.315   5.802  18.319  0.00  0.00    +0.000 C 
BRANCH  24  25
ATOM     25  C   UNL     1       3.267   5.089  19.054  0.00  0.00    +0.000 A 
ATOM     26  C   UNL     1       2.530   5.791  20.022  0.00  0.00    +0.000 A 
ATOM     27  C   UNL     1       1.472   5.179  20.720  0.00  0.00    +0.000 A 
ATOM     28  C   UNL     1       1.123   3.854  20.454  0.00  0.00    +0.000 A 
ATOM     29  C   UNL     1       1.840   3.187  19.484  0.00  0.00    +0.000 A 
ATOM     30  C   UNL     1       2.882   3.779  18.803  0.00  0.00    +0.000 A 
ATOM     31  O   UNL     1       3.419   2.932  17.876  0.00  0.00    +0.000 OA
ATOM     32  C   UNL     1       2.502   1.827  17.949  0.00  0.00    +0.000 C 
ATOM     33  O   UNL     1       1.601   1.912  19.069  0.00  0.00    +0.000 OA
ENDBRANCH  24  25
ENDBRANCH  20  23
ENDBRANCH  18  19
ENDBRANCH   1  18
TORSDOF 9
ENDMDL
MODEL 7
REMARK VINA RESULT:      -7.5      3.711      4.836
REMARK  Name = 
REMARK  10 active torsions:
REMARK  status: ('A' for Active; 'I' for Inactive)
REMARK    1  A    between atoms: C_1  and  O_2
REMARK    2  A    between atoms: O_2  and  C_3
REMARK    3  A    between atoms: C_8  and  N_9
REMARK    4  A    between atoms: N_12  and  C_13
REMARK    5  A    between atoms: C_13  and  C_14
REMARK    6  A    between atoms: C_14  and  C_15
REMARK    7  A    between atoms: C_15  and  C_16
REMARK    8  A    between atoms: C_16  and  N_17
REMARK    9  A    between atoms: C_18  and  C_20
REMARK   10  A    between atoms: C_21  and  C_22
REMARK                            x       y       z     vdW  Elec       q    Type
REMARK                         _______ _______ _______ _____ _____    ______ ____
ROOT
ATOM      1  C   UNL     1       8.739   9.131  18.870  0.00  0.00    +0.000 C 
ENDROOT
BRANCH   1   2
ATOM      2  C   UNL     1       8.270   8.548  17.535  0.00  0.00    +0.000 C 
BRANCH   2   3
ATOM      3  C   UNL     1       6.939   7.787  17.629  0.00  0.00    +0.000 C 
BRANCH   3   7
ATOM      4  N   UNL     1       4.565   5.055  18.110  0.00  0.00    +0.000 N 
ATOM      5  C   UNL     1       5.558   5.450  19.114  0.00  0.00    +0.000 C 
ATOM      6  C   UNL     1       6.962   5.474  18.470  0.00  0.00    +0.000 C 
ATOM      7  N   UNL     1       7.073   6.364  17.282  0.00  0.00    +0.000 NA
ATOM      8  C   UNL     1       6.031   5.949  16.310  0.00  0.00    +0.000 C 
ATOM      9  C   UNL     1       4.589   5.854  16.871  0.00  0.00    +0.000 C 
BRANCH   4  15
ATOM     10  C   UNL     1       2.339   4.251  18.861  0.00  0.00    +0.000 A 
ATOM     11  C   UNL     1       1.476   3.162  19.078  0.00  0.00    +0.000 A 
ATOM     12  C   UNL     1       1.857   1.865  18.746  0.00  0.00    +0.000 A 
ATOM     13  C   UNL     1       3.108   1.644  18.196  0.00  0.00    +0.000 A 
ATOM     14  C   UNL     1       3.974   2.719  17.986  0.00  0.00    +0.000 A 
ATOM     15  C   UNL     1       3.635   4.048  18.318  0.00  0.00    +0.000 A 
BRANCH  10  17
ATOM     16  C   UNL     1       1.860   5.686  20.689  0.00  0.00    +0.000 C 
ATOM     17  O   UNL     1       1.984   5.517  19.278  0.00  0.00    +0.000 OA
ENDBRANCH  10  17
ENDBRANCH   4  15
ENDBRANCH   3   7
ENDBRANCH   2   3
ENDBRANCH   1   2
BRANCH   1  18
ATOM     18  C   UNL     1       9.377  10.506  18.686  0.00  0.00    +0.000 C 
BRANCH  18  19
ATOM     19  N   UNL     1       9.307  11.298  19.889  0.00  0.00    +0.000 N 
ATOM     20  C   UNL     1       9.869  12.544  19.951  0.00  0.00    +0.000 C 
ATOM     21  O   UNL     1      10.464  13.078  19.021  0.00  0.00    +0.000 OA
ATOM     22  H   UNL     1       8.778  10.933  20.668  0.00  0.00    +0.000 HD
BRANCH  20  23
ATOM     23  C   UNL     1       9.678  13.194  21.266  0.00  0.00    +0.000 C 
ATOM     24  C   UNL     1       8.792  12.659  22.119  0.00  0.00    +0.000 C 
BRANCH  24  25
ATOM     25  C   UNL     1       8.499  13.191  23.453  0.00  0.00    +0.000 A 
ATOM     26  C   UNL     1       8.918  14.495  23.763  0.00  0.00    +0.000 A 
ATOM     27  C   UNL     1       8.616  15.083  25.005  0.00  0.00    +0.000 A 
ATOM     28  C   UNL     1       7.879  14.380  25.958  0.00  0.00    +0.000 A 
ATOM     29  C   UNL     1       7.453  13.111  25.629  0.00  0.00    +0.000 A 
ATOM     30  C   UNL     1       7.753  12.527  24.417  0.00  0.00    +0.000 A 
ATOM     31  O   UNL     1       7.202  11.282  24.312  0.00  0.00    +0.000 OA
ATOM     32  C   UNL     1       6.409  11.230  25.511  0.00  0.00    +0.000 C 
ATOM     33  O   UNL     1       6.686  12.311  26.420  0.00  0.00    +0.000 OA
ENDBRANCH  24  25
ENDBRANCH  20  23
ENDBRANCH  18  19
ENDBRANCH   1  18
TORSDOF 9
ENDMDL
MODEL 8
REMARK VINA RESULT:      -7.5      3.491      4.411
REMARK  Name = 
REMARK  10 active torsions:
REMARK  status: ('A' for Active; 'I' for Inactive)
REMARK    1  A    between atoms: C_1  and  O_2
REMARK    2  A    between atoms: O_2  and  C_3
REMARK    3  A    between atoms: C_8  and  N_9
REMARK    4  A    between atoms: N_12  and  C_13
REMARK    5  A    between atoms: C_13  and  C_14
REMARK    6  A    between atoms: C_14  and  C_15
REMARK    7  A    between atoms: C_15  and  C_16
REMARK    8  A    between atoms: C_16  and  N_17
REMARK    9  A    between atoms: C_18  and  C_20
REMARK   10  A    between atoms: C_21  and  C_22
REMARK                            x       y       z     vdW  Elec       q    Type
REMARK                         _______ _______ _______ _____ _____    ______ ____
ROOT
ATOM      1  C   UNL     1       8.749   9.293  18.619  0.00  0.00    +0.000 C 
ENDROOT
BRANCH   1   2
ATOM      2  C   UNL     1       7.831   8.543  17.650  0.00  0.00    +0.000 C 
BRANCH   2   3
ATOM      3  C   UNL     1       7.689   7.047  17.970  0.00  0.00    +0.000 C 
BRANCH   3   7
ATOM      4  N   UNL     1       4.727   4.928  18.237  0.00  0.00    +0.000 N 
ATOM      5  C   UNL     1       6.097   4.429  18.398  0.00  0.00    +0.000 C 
ATOM      6  C   UNL     1       6.942   4.841  17.173  0.00  0.00    +0.000 C 
ATOM      7  N   UNL     1       6.973   6.308  16.919  0.00  0.00    +0.000 NA
ATOM      8  C   UNL     1       5.569   6.772  16.796  0.00  0.00    +0.000 C 
ATOM      9  C   UNL     1       4.626   6.373  17.960  0.00  0.00    +0.000 C 
BRANCH   4  15
ATOM     10  C   UNL     1       2.660   4.258  19.441  0.00  0.00    +0.000 A 
ATOM     11  C   UNL     1       1.574   3.371  19.539  0.00  0.00    +0.000 A 
ATOM     12  C   UNL     1       1.381   2.362  18.599  0.00  0.00    +0.000 A 
ATOM     13  C   UNL     1       2.277   2.228  17.553  0.00  0.00    +0.000 A 
ATOM     14  C   UNL     1       3.364   3.099  17.453  0.00  0.00    +0.000 A 
ATOM     15  C   UNL     1       3.605   4.128  18.388  0.00  0.00    +0.000 A 
BRANCH  10  17
ATOM     16  C   UNL     1       1.917   6.234  20.522  0.00  0.00    +0.000 C 
ATOM     17  O   UNL     1       2.889   5.194  20.427  0.00  0.00    +0.000 OA
ENDBRANCH  10  17
ENDBRANCH   4  15
ENDBRANCH   3   7
ENDBRANCH   2   3
ENDBRANCH   1   2
BRANCH   1  18
ATOM     18  C   UNL     1       9.108  10.679  18.089  0.00  0.00    +0.000 C 
BRANCH  18  19
ATOM     19  N   UNL     1       8.910  11.703  19.083  0.00  0.00    +0.000 N 
ATOM     20  C   UNL     1       9.936  12.117  19.889  0.00  0.00    +0.000 C 
ATOM     21  O   UNL     1      11.075  11.666  19.840  0.00  0.00    +0.000 OA
ATOM     22  H   UNL     1       8.007  12.154  19.129  0.00  0.00    +0.000 HD
BRANCH  20  23
ATOM     23  C   UNL     1       9.531  13.183  20.832  0.00  0.00    +0.000 C 
ATOM     24  C   UNL     1       9.370  12.864  22.124  0.00  0.00    +0.000 C 
BRANCH  24  25
ATOM     25  C   UNL     1       8.976  13.811  23.170  0.00  0.00    +0.000 A 
ATOM     26  C   UNL     1       9.098  15.186  22.912  0.00  0.00    +0.000 A 
ATOM     27  C   UNL     1       8.681  16.145  23.853  0.00  0.00    +0.000 A 
ATOM     28  C   UNL     1       8.123  15.747  25.068  0.00  0.00    +0.000 A 
ATOM     29  C   UNL     1       7.987  14.395  25.296  0.00  0.00    +0.000 A 
ATOM     30  C   UNL     1       8.400  13.450  24.381  0.00  0.00    +0.000 A 
ATOM     31  O   UNL     1       8.138  12.183  24.817  0.00  0.00    +0.000 OA
ATOM     32  C   UNL     1       7.383  12.454  26.011  0.00  0.00    +0.000 C 
ATOM     33  O   UNL     1       7.420  13.839  26.403  0.00  0.00    +0.000 OA
ENDBRANCH  24  25
ENDBRANCH  20  23
ENDBRANCH  18  19
ENDBRANCH   1  18
TORSDOF 9
ENDMDL
MODEL 9
REMARK VINA RESULT:      -7.4      6.015     12.455
REMARK  Name = 
REMARK  10 active torsions:
REMARK  status: ('A' for Active; 'I' for Inactive)
REMARK    1  A    between atoms: C_1  and  O_2
REMARK    2  A    between atoms: O_2  and  C_3
REMARK    3  A    between atoms: C_8  and  N_9
REMARK    4  A    between atoms: N_12  and  C_13
REMARK    5  A    between atoms: C_13  and  C_14
REMARK    6  A    between atoms: C_14  and  C_15
REMARK    7  A    between atoms: C_15  and  C_16
REMARK    8  A    between atoms: C_16  and  N_17
REMARK    9  A    between atoms: C_18  and  C_20
REMARK   10  A    between atoms: C_21  and  C_22
REMARK                            x       y       z     vdW  Elec       q    Type
REMARK                         _______ _______ _______ _____ _____    ______ ____
ROOT
ATOM      1  C   UNL     1      -0.390   9.578  22.268  0.00  0.00    +0.000 C 
ENDROOT
BRANCH   1   2
ATOM      2  C   UNL     1      -0.882  10.969  22.675  0.00  0.00    +0.000 C 
BRANCH   2   3
ATOM      3  C   UNL     1      -1.579  11.733  21.538  0.00  0.00    +0.000 C 
BRANCH   3   7
ATOM      4  N   UNL     1       0.581  14.043  19.713  0.00  0.00    +0.000 N 
ATOM      5  C   UNL     1       0.986  13.360  20.946  0.00  0.00    +0.000 C 
ATOM      6  C   UNL     1      -0.070  13.611  22.045  0.00  0.00    +0.000 C 
ATOM      7  N   UNL     1      -1.449  13.192  21.673  0.00  0.00    +0.000 NA
ATOM      8  C   UNL     1      -1.802  13.881  20.406  0.00  0.00    +0.000 C 
ATOM      9  C   UNL     1      -0.782  13.723  19.250  0.00  0.00    +0.000 C 
BRANCH   4  15
ATOM     10  C   UNL     1       1.193  16.267  18.791  0.00  0.00    +0.000 A 
ATOM     11  C   UNL     1       2.082  17.030  18.014  0.00  0.00    +0.000 A 
ATOM     12  C   UNL     1       3.218  16.458  17.449  0.00  0.00    +0.000 A 
ATOM     13  C   UNL     1       3.475  15.113  17.654  0.00  0.00    +0.000 A 
ATOM     14  C   UNL     1       2.593  14.346  18.416  0.00  0.00    +0.000 A 
ATOM     15  C   UNL     1       1.423  14.881  18.998  0.00  0.00    +0.000 A 
BRANCH  10  17
ATOM     16  C   UNL     1      -0.821  17.411  18.282  0.00  0.00    +0.000 C 
ATOM     17  O   UNL     1       0.027  16.825  19.269  0.00  0.00    +0.000 OA
ENDBRANCH  10  17
ENDBRANCH   4  15
ENDBRANCH   3   7
ENDBRANCH   2   3
ENDBRANCH   1   2
BRANCH   1  18
ATOM     18  C   UNL     1       1.130   9.475  22.357  0.00  0.00    +0.000 C 
BRANCH  18  19
ATOM     19  N   UNL     1       1.632   8.309  21.676  0.00  0.00    +0.000 N 
ATOM     20  C   UNL     1       1.692   8.255  20.310  0.00  0.00    +0.000 C 
ATOM     21  O   UNL     1       1.332   9.164  19.569  0.00  0.00    +0.000 OA
ATOM     22  H   UNL     1       1.998   7.551  22.236  0.00  0.00    +0.000 HD
BRANCH  20  23
ATOM     23  C   UNL     1       2.248   6.979  19.809  0.00  0.00    +0.000 C 
ATOM     24  C   UNL     1       2.545   6.881  18.506  0.00  0.00    +0.000 C 
BRANCH  24  25
ATOM     25  C   UNL     1       3.102   5.685  17.869  0.00  0.00    +0.000 A 
ATOM     26  C   UNL     1       4.338   5.789  17.208  0.00  0.00    +0.000 A 
ATOM     27  C   UNL     1       4.953   4.665  16.628  0.00  0.00    +0.000 A 
ATOM     28  C   UNL     1       4.349   3.409  16.708  0.00  0.00    +0.000 A 
ATOM     29  C   UNL     1       3.150   3.319  17.382  0.00  0.00    +0.000 A 
ATOM     30  C   UNL     1       2.539   4.419  17.945  0.00  0.00    +0.000 A 
ATOM     31  O   UNL     1       1.378   4.076  18.579  0.00  0.00    +0.000 OA
ATOM     32  C   UNL     1       1.425   2.642  18.482  0.00  0.00    +0.000 C 
ATOM     33  O   UNL     1       2.454   2.167  17.594  0.00  0.00    +0.000 OA
ENDBRANCH  24  25
ENDBRANCH  20  23
ENDBRANCH  18  19
ENDBRANCH   1  18
TORSDOF 9
ENDMDL
