MODEL 1
REMARK VINA RESULT:      -6.2      0.000      0.000
REMARK  Name = 
REMARK  12 active torsions:
REMARK  status: ('A' for Active; 'I' for Inactive)
REMARK    1  A    between atoms: C_1  and  N_2
REMARK    2  A    between atoms: N_2  and  C_3
REMARK    3  A    between atoms: N_12  and  C_13
REMARK    4  A    between atoms: C_15  and  O_16
REMARK    5  A    between atoms: O_16  and  P_17
REMARK    6  A    between atoms: P_17  and  O_19
REMARK    7  A    between atoms: P_17  and  O_20
REMARK    8  A    between atoms: C_21  and  C_22
REMARK    9  A    between atoms: C_22  and  O_23
REMARK   10  A    between atoms: O_23  and  P_24
REMARK   11  A    between atoms: P_24  and  O_26
REMARK   12  A    between atoms: P_24  and  O_27
REMARK                            x       y       z     vdW  Elec       q    Type
REMARK                         _______ _______ _______ _____ _____    ______ ____
ROOT
ATOM      1  C   UNL     1       3.285   7.455  19.094  0.00  0.00    +0.000 C 
ATOM      2  C   UNL     1       3.798   6.729  17.836  0.00  0.00    +0.000 C 
ATOM      3  C   UNL     1       3.858   5.408  18.617  0.00  0.00    +0.000 C 
ATOM      4  C   UNL     1       2.970   6.058  19.721  0.00  0.00    +0.000 C 
ENDROOT
BRANCH   1  14
ATOM      5  C   UNL     1      -0.618  10.283  19.813  0.00  0.00    +0.000 A 
ATOM      6  N   UNL     1      -0.606  10.203  21.167  0.00  0.00    +0.000 NA
ATOM      7  C   UNL     1       0.356   9.471  21.753  0.00  0.00    +0.000 A 
ATOM      8 CL   UNL     1       0.301   9.399  23.462  0.00  0.00    +0.000 Cl
ATOM      9  N   UNL     1       1.370   8.794  21.188  0.00  0.00    +0.000 NA
ATOM     10  C   UNL     1       1.316   8.879  19.849  0.00  0.00    +0.000 A 
ATOM     11  C   UNL     1       0.374   9.576  19.102  0.00  0.00    +0.000 A 
ATOM     12  N   UNL     1       0.623   9.449  17.750  0.00  0.00    +0.000 NA
ATOM     13  C   UNL     1       1.681   8.670  17.675  0.00  0.00    +0.000 A 
ATOM     14  N   UNL     1       2.148   8.319  18.914  0.00  0.00    +0.000 N 
BRANCH   5  16
ATOM     15  C   UNL     1      -1.175  12.388  18.821  0.00  0.00    +0.000 C 
ATOM     16  N   UNL     1      -1.593  11.040  19.153  0.00  0.00    +0.000 N 
ATOM     17  H   UNL     1      -1.975  10.507  18.373  0.00  0.00    +0.000 HD
ENDBRANCH   5  16
ENDBRANCH   1  14
BRANCH   3  18
ATOM     18  O   UNL     1       3.311   4.235  17.994  0.00  0.00    +0.000 OA
BRANCH  18  19
ATOM     19  P   UNL     1       4.182   2.899  17.891  0.00  0.00    +0.000 P 
ATOM     20  O   UNL     1       3.415   1.623  17.908  0.00  0.00    +0.000 OA
BRANCH  19  21
ATOM     21  O   UNL     1       5.044   3.109  16.566  0.00  0.00    +0.000 OA
ATOM     22  H   UNL     1       5.930   2.708  16.649  0.00  0.00    +0.000 HD
ENDBRANCH  19  21
BRANCH  19  23
ATOM     23  O   UNL     1       5.287   3.021  19.036  0.00  0.00    +0.000 OA
ATOM     24  H   UNL     1       4.874   2.958  19.915  0.00  0.00    +0.000 HD
ENDBRANCH  19  23
ENDBRANCH  18  19
ENDBRANCH   3  18
BRANCH   4  25
ATOM     25  C   UNL     1       1.589   5.431  19.895  0.00  0.00    +0.000 C 
BRANCH  25  26
ATOM     26  O   UNL     1       1.611   4.729  21.132  0.00  0.00    +0.000 OA
BRANCH  26  27
ATOM     27  P   UNL     1       1.649   3.135  21.102  0.00  0.00    +0.000 P 
ATOM     28  O   UNL     1       1.070   2.431  22.279  0.00  0.00    +0.000 OA
BRANCH  27  29
ATOM     29  O   UNL     1       1.055   2.719  19.682  0.00  0.00    +0.000 OA
ATOM     30  H   UNL     1       1.601   3.083  18.959  0.00  0.00    +0.000 HD
ENDBRANCH  27  29
BRANCH  27  31
ATOM     31  O   UNL     1       3.191   2.781  20.885  0.00  0.00    +0.000 OA
ATOM     32  H   UNL     1       3.633   2.664  21.746  0.00  0.00    +0.000 HD
ENDBRANCH  27  31
ENDBRANCH  26  27
ENDBRANCH  25  26
ENDBRANCH   4  25
TORSDOF 11
ENDMDL
MODEL 2
REMARK VINA RESULT:      -6.2      1.549      2.106
REMARK  Name = 
REMARK  12 active torsions:
REMARK  status: ('A' for Active; 'I' for Inactive)
REMARK    1  A    between atoms: C_1  and  N_2
REMARK    2  A    between atoms: N_2  and  C_3
REMARK    3  A    between atoms: N_12  and  C_13
REMARK    4  A    between atoms: C_15  and  O_16
REMARK    5  A    between atoms: O_16  and  P_17
REMARK    6  A    between atoms: P_17  and  O_19
REMARK    7  A    between atoms: P_17  and  O_20
REMARK    8  A    between atoms: C_21  and  C_22
REMARK    9  A    between atoms: C_22  and  O_23
REMARK   10  A    between atoms: O_23  and  P_24
REMARK   11  A    between atoms: P_24  and  O_26
REMARK   12  A    between atoms: P_24  and  O_27
REMARK                            x       y       z     vdW  Elec       q    Type
REMARK                         _______ _______ _______ _____ _____    ______ ____
ROOT
ATOM      1  C   UNL     1       3.554   6.821  19.175  0.00  0.00    +0.000 C 
ATOM      2  C   UNL     1       4.793   6.654  18.276  0.00  0.00    +0.000 C 
ATOM      3  C   UNL     1       4.569   5.135  18.240  0.00  0.00    +0.000 C 
ATOM      4  C   UNL     1       3.128   5.367  18.785  0.00  0.00    +0.000 C 
ENDROOT
BRANCH   1  14
ATOM      5  C   UNL     1       0.008  10.163  19.165  0.00  0.00    +0.000 A 
ATOM      6  N   UNL     1      -0.339  10.010  20.467  0.00  0.00    +0.000 NA
ATOM      7  C   UNL     1       0.335   9.110  21.203  0.00  0.00    +0.000 A 
ATOM      8 CL   UNL     1      -0.166   8.956  22.832  0.00  0.00    +0.000 Cl
ATOM      9  N   UNL     1       1.361   8.319  20.846  0.00  0.00    +0.000 NA
ATOM     10  C   UNL     1       1.664   8.483  19.549  0.00  0.00    +0.000 A 
ATOM     11  C   UNL     1       1.047   9.353  18.659  0.00  0.00    +0.000 A 
ATOM     12  N   UNL     1       1.615   9.263  17.404  0.00  0.00    +0.000 NA
ATOM     13  C   UNL     1       2.543   8.339  17.521  0.00  0.00    +0.000 A 
ATOM     14  N   UNL     1       2.626   7.854  18.800  0.00  0.00    +0.000 N 
BRANCH   5  16
ATOM     15  C   UNL     1      -1.764  10.544  17.602  0.00  0.00    +0.000 C 
ATOM     16  N   UNL     1      -0.655  11.094  18.356  0.00  0.00    +0.000 N 
ATOM     17  H   UNL     1      -0.880  11.926  18.899  0.00  0.00    +0.000 HD
ENDBRANCH   5  16
ENDBRANCH   1  14
BRANCH   3  18
ATOM     18  O   UNL     1       4.650   4.476  16.966  0.00  0.00    +0.000 OA
BRANCH  18  19
ATOM     19  P   UNL     1       6.043   4.401  16.186  0.00  0.00    +0.000 P 
ATOM     20  O   UNL     1       6.376   5.579  15.339  0.00  0.00    +0.000 OA
BRANCH  19  21
ATOM     21  O   UNL     1       7.109   4.123  17.340  0.00  0.00    +0.000 OA
ATOM     22  H   UNL     1       6.919   4.654  18.138  0.00  0.00    +0.000 HD
ENDBRANCH  19  21
BRANCH  19  23
ATOM     23  O   UNL     1       6.021   3.010  15.405  0.00  0.00    +0.000 OA
ATOM     24  H   UNL     1       5.120   2.808  15.097  0.00  0.00    +0.000 HD
ENDBRANCH  19  23
ENDBRANCH  18  19
ENDBRANCH   3  18
BRANCH   4  25
ATOM     25  C   UNL     1       2.002   4.975  17.831  0.00  0.00    +0.000 C 
BRANCH  25  26
ATOM     26  O   UNL     1       1.145   4.096  18.549  0.00  0.00    +0.000 OA
BRANCH  26  27
ATOM     27  P   UNL     1       1.585   2.571  18.713  0.00  0.00    +0.000 P 
ATOM     28  O   UNL     1       2.245   2.200  19.994  0.00  0.00    +0.000 OA
BRANCH  27  29
ATOM     29  O   UNL     1       0.301   1.711  18.318  0.00  0.00    +0.000 OA
ATOM     30  H   UNL     1      -0.495   2.053  18.766  0.00  0.00    +0.000 HD
ENDBRANCH  27  29
BRANCH  27  31
ATOM     31  O   UNL     1       2.520   2.292  17.448  0.00  0.00    +0.000 OA
ATOM     32  H   UNL     1       3.366   1.904  17.736  0.00  0.00    +0.000 HD
ENDBRANCH  27  31
ENDBRANCH  26  27
ENDBRANCH  25  26
ENDBRANCH   4  25
TORSDOF 11
ENDMDL
MODEL 3
REMARK VINA RESULT:      -5.9      0.249      1.203
REMARK  Name = 
REMARK  12 active torsions:
REMARK  status: ('A' for Active; 'I' for Inactive)
REMARK    1  A    between atoms: C_1  and  N_2
REMARK    2  A    between atoms: N_2  and  C_3
REMARK    3  A    between atoms: N_12  and  C_13
REMARK    4  A    between atoms: C_15  and  O_16
REMARK    5  A    between atoms: O_16  and  P_17
REMARK    6  A    between atoms: P_17  and  O_19
REMARK    7  A    between atoms: P_17  and  O_20
REMARK    8  A    between atoms: C_21  and  C_22
REMARK    9  A    between atoms: C_22  and  O_23
REMARK   10  A    between atoms: O_23  and  P_24
REMARK   11  A    between atoms: P_24  and  O_26
REMARK   12  A    between atoms: P_24  and  O_27
REMARK                            x       y       z     vdW  Elec       q    Type
REMARK                         _______ _______ _______ _____ _____    ______ ____
ROOT
ATOM      1  C   UNL     1       3.180   7.652  19.043  0.00  0.00    +0.000 C 
ATOM      2  C   UNL     1       3.698   6.972  17.763  0.00  0.00    +0.000 C 
ATOM      3  C   UNL     1       3.798   5.633  18.509  0.00  0.00    +0.000 C 
ATOM      4  C   UNL     1       2.905   6.232  19.637  0.00  0.00    +0.000 C 
ENDROOT
BRANCH   1  14
ATOM      5  C   UNL     1      -0.774  10.377  19.874  0.00  0.00    +0.000 A 
ATOM      6  N   UNL     1      -0.735  10.278  21.226  0.00  0.00    +0.000 NA
ATOM      7  C   UNL     1       0.254   9.561  21.783  0.00  0.00    +0.000 A 
ATOM      8 CL   UNL     1       0.231   9.463  23.492  0.00  0.00    +0.000 Cl
ATOM      9  N   UNL     1       1.273   8.915  21.191  0.00  0.00    +0.000 NA
ATOM     10  C   UNL     1       1.193   9.019  19.855  0.00  0.00    +0.000 A 
ATOM     11  C   UNL     1       0.222   9.704  19.135  0.00  0.00    +0.000 A 
ATOM     12  N   UNL     1       0.449   9.603  17.777  0.00  0.00    +0.000 NA
ATOM     13  C   UNL     1       1.522   8.850  17.671  0.00  0.00    +0.000 A 
ATOM     14  N   UNL     1       2.020   8.491  18.896  0.00  0.00    +0.000 N 
BRANCH   5  16
ATOM     15  C   UNL     1      -1.362  12.446  18.825  0.00  0.00    +0.000 C 
ATOM     16  N   UNL     1      -1.777  11.122  19.242  0.00  0.00    +0.000 N 
ATOM     17  H   UNL     1      -2.216  10.562  18.512  0.00  0.00    +0.000 HD
ENDBRANCH   5  16
ENDBRANCH   1  14
BRANCH   3  18
ATOM     18  O   UNL     1       3.274   4.463  17.860  0.00  0.00    +0.000 OA
BRANCH  18  19
ATOM     19  P   UNL     1       4.231   3.224  17.541  0.00  0.00    +0.000 P 
ATOM     20  O   UNL     1       4.958   3.283  16.244  0.00  0.00    +0.000 OA
BRANCH  19  21
ATOM     21  O   UNL     1       5.195   3.153  18.810  0.00  0.00    +0.000 OA
ATOM     22  H   UNL     1       5.092   2.309  19.290  0.00  0.00    +0.000 HD
ENDBRANCH  19  21
BRANCH  19  23
ATOM     23  O   UNL     1       3.325   1.924  17.732  0.00  0.00    +0.000 OA
ATOM     24  H   UNL     1       3.770   1.282  18.312  0.00  0.00    +0.000 HD
ENDBRANCH  19  23
ENDBRANCH  18  19
ENDBRANCH   3  18
BRANCH   4  25
ATOM     25  C   UNL     1       1.541   5.566  19.807  0.00  0.00    +0.000 C 
BRANCH  25  26
ATOM     26  O   UNL     1       1.608   4.797  21.001  0.00  0.00    +0.000 OA
BRANCH  26  27
ATOM     27  P   UNL     1       1.845   3.224  20.881  0.00  0.00    +0.000 P 
ATOM     28  O   UNL     1       3.258   2.756  20.908  0.00  0.00    +0.000 OA
BRANCH  27  29
ATOM     29  O   UNL     1       0.872   2.562  21.957  0.00  0.00    +0.000 OA
ATOM     30  H   UNL     1      -0.061   2.689  21.704  0.00  0.00    +0.000 HD
ENDBRANCH  27  29
BRANCH  27  31
ATOM     31  O   UNL     1       1.099   2.815  19.528  0.00  0.00    +0.000 OA
ATOM     32  H   UNL     1       1.240   1.869  19.340  0.00  0.00    +0.000 HD
ENDBRANCH  27  31
ENDBRANCH  26  27
ENDBRANCH  25  26
ENDBRANCH   4  25
TORSDOF 11
ENDMDL
MODEL 4
REMARK VINA RESULT:      -5.8      1.584      2.191
REMARK  Name = 
REMARK  12 active torsions:
REMARK  status: ('A' for Active; 'I' for Inactive)
REMARK    1  A    between atoms: C_1  and  N_2
REMARK    2  A    between atoms: N_2  and  C_3
REMARK    3  A    between atoms: N_12  and  C_13
REMARK    4  A    between atoms: C_15  and  O_16
REMARK    5  A    between atoms: O_16  and  P_17
REMARK    6  A    between atoms: P_17  and  O_19
REMARK    7  A    between atoms: P_17  and  O_20
REMARK    8  A    between atoms: C_21  and  C_22
REMARK    9  A    between atoms: C_22  and  O_23
REMARK   10  A    between atoms: O_23  and  P_24
REMARK   11  A    between atoms: P_24  and  O_26
REMARK   12  A    between atoms: P_24  and  O_27
REMARK                            x       y       z     vdW  Elec       q    Type
REMARK                         _______ _______ _______ _____ _____    ______ ____
ROOT
ATOM      1  C   UNL     1       3.599   6.736  19.121  0.00  0.00    +0.000 C 
ATOM      2  C   UNL     1       4.843   6.579  18.228  0.00  0.00    +0.000 C 
ATOM      3  C   UNL     1       4.605   5.063  18.155  0.00  0.00    +0.000 C 
ATOM      4  C   UNL     1       3.162   5.297  18.695  0.00  0.00    +0.000 C 
ENDROOT
BRANCH   1  14
ATOM      5  C   UNL     1       0.102  10.130  19.168  0.00  0.00    +0.000 A 
ATOM      6  N   UNL     1      -0.237   9.969  20.471  0.00  0.00    +0.000 NA
ATOM      7  C   UNL     1       0.428   9.052  21.193  0.00  0.00    +0.000 A 
ATOM      8 CL   UNL     1      -0.065   8.888  22.824  0.00  0.00    +0.000 Cl
ATOM      9  N   UNL     1       1.439   8.249  20.822  0.00  0.00    +0.000 NA
ATOM     10  C   UNL     1       1.737   8.423  19.524  0.00  0.00    +0.000 A 
ATOM     11  C   UNL     1       1.126   9.311  18.647  0.00  0.00    +0.000 A 
ATOM     12  N   UNL     1       1.685   9.225  17.388  0.00  0.00    +0.000 NA
ATOM     13  C   UNL     1       2.600   8.286  17.489  0.00  0.00    +0.000 A 
ATOM     14  N   UNL     1       2.685   7.787  18.763  0.00  0.00    +0.000 N 
BRANCH   5  16
ATOM     15  C   UNL     1      -1.717  10.570  17.677  0.00  0.00    +0.000 C 
ATOM     16  N   UNL     1      -0.552  11.079  18.373  0.00  0.00    +0.000 N 
ATOM     17  H   UNL     1      -0.714  11.929  18.912  0.00  0.00    +0.000 HD
ENDBRANCH   5  16
ENDBRANCH   1  14
BRANCH   3  18
ATOM     18  O   UNL     1       4.690   4.432  16.867  0.00  0.00    +0.000 OA
BRANCH  18  19
ATOM     19  P   UNL     1       6.086   4.372  16.091  0.00  0.00    +0.000 P 
ATOM     20  O   UNL     1       6.162   3.398  14.968  0.00  0.00    +0.000 OA
BRANCH  19  21
ATOM     21  O   UNL     1       6.336   5.883  15.644  0.00  0.00    +0.000 OA
ATOM     22  H   UNL     1       6.808   5.930  14.791  0.00  0.00    +0.000 HD
ENDBRANCH  19  21
BRANCH  19  23
ATOM     23  O   UNL     1       7.193   4.166  17.221  0.00  0.00    +0.000 OA
ATOM     24  H   UNL     1       6.931   4.620  18.041  0.00  0.00    +0.000 HD
ENDBRANCH  19  23
ENDBRANCH  18  19
ENDBRANCH   3  18
BRANCH   4  25
ATOM     25  C   UNL     1       2.040   4.938  17.723  0.00  0.00    +0.000 C 
BRANCH  25  26
ATOM     26  O   UNL     1       1.168   4.053  18.415  0.00  0.00    +0.000 OA
BRANCH  26  27
ATOM     27  P   UNL     1       1.608   2.528  18.583  0.00  0.00    +0.000 P 
ATOM     28  O   UNL     1       2.651   2.026  17.648  0.00  0.00    +0.000 OA
BRANCH  27  29
ATOM     29  O   UNL     1       1.918   2.342  20.136  0.00  0.00    +0.000 OA
ATOM     30  H   UNL     1       2.266   1.448  20.314  0.00  0.00    +0.000 HD
ENDBRANCH  27  29
BRANCH  27  31
ATOM     31  O   UNL     1       0.242   1.708  18.461  0.00  0.00    +0.000 OA
ATOM     32  H   UNL     1       0.237   0.968  19.095  0.00  0.00    +0.000 HD
ENDBRANCH  27  31
ENDBRANCH  26  27
ENDBRANCH  25  26
ENDBRANCH   4  25
TORSDOF 11
ENDMDL
MODEL 5
REMARK VINA RESULT:      -5.7      2.260      4.030
REMARK  Name = 
REMARK  12 active torsions:
REMARK  status: ('A' for Active; 'I' for Inactive)
REMARK    1  A    between atoms: C_1  and  N_2
REMARK    2  A    between atoms: N_2  and  C_3
REMARK    3  A    between atoms: N_12  and  C_13
REMARK    4  A    between atoms: C_15  and  O_16
REMARK    5  A    between atoms: O_16  and  P_17
REMARK    6  A    between atoms: P_17  and  O_19
REMARK    7  A    between atoms: P_17  and  O_20
REMARK    8  A    between atoms: C_21  and  C_22
REMARK    9  A    between atoms: C_22  and  O_23
REMARK   10  A    between atoms: O_23  and  P_24
REMARK   11  A    between atoms: P_24  and  O_26
REMARK   12  A    between atoms: P_24  and  O_27
REMARK                            x       y       z     vdW  Elec       q    Type
REMARK                         _______ _______ _______ _____ _____    ______ ____
ROOT
ATOM      1  C   UNL     1       2.498   6.151  18.017  0.00  0.00    +0.000 C 
ATOM      2  C   UNL     1       2.081   4.695  17.742  0.00  0.00    +0.000 C 
ATOM      3  C   UNL     1       3.529   4.345  17.369  0.00  0.00    +0.000 C 
ATOM      4  C   UNL     1       3.988   5.677  18.036  0.00  0.00    +0.000 C 
ENDROOT
BRANCH   1  14
ATOM      5  C   UNL     1       0.931   9.232  21.452  0.00  0.00    +0.000 A 
ATOM      6  N   UNL     1       0.939  10.338  20.667  0.00  0.00    +0.000 NA
ATOM      7  C   UNL     1       1.321  10.207  19.387  0.00  0.00    +0.000 A 
ATOM      8 CL   UNL     1       1.324  11.646  18.459  0.00  0.00    +0.000 Cl
ATOM      9  N   UNL     1       1.692   9.101  18.720  0.00  0.00    +0.000 NA
ATOM     10  C   UNL     1       1.691   8.031  19.531  0.00  0.00    +0.000 A 
ATOM     11  C   UNL     1       1.344   8.012  20.876  0.00  0.00    +0.000 A 
ATOM     12  N   UNL     1       1.456   6.739  21.398  0.00  0.00    +0.000 NA
ATOM     13  C   UNL     1       1.887   6.002  20.397  0.00  0.00    +0.000 A 
ATOM     14  N   UNL     1       2.022   6.731  19.245  0.00  0.00    +0.000 N 
BRANCH   5  16
ATOM     15  C   UNL     1      -0.611  10.173  23.022  0.00  0.00    +0.000 C 
ATOM     16  N   UNL     1       0.531   9.311  22.791  0.00  0.00    +0.000 N 
ATOM     17  H   UNL     1       0.445   8.374  23.182  0.00  0.00    +0.000 HD
ENDBRANCH   5  16
ENDBRANCH   1  14
BRANCH   3  18
ATOM     18  O   UNL     1       4.094   3.147  17.926  0.00  0.00    +0.000 OA
BRANCH  18  19
ATOM     19  P   UNL     1       3.140   2.001  18.502  0.00  0.00    +0.000 P 
ATOM     20  O   UNL     1       2.520   2.279  19.826  0.00  0.00    +0.000 OA
BRANCH  19  21
ATOM     21  O   UNL     1       2.078   1.769  17.335  0.00  0.00    +0.000 OA
ATOM     22  H   UNL     1       2.385   1.094  16.700  0.00  0.00    +0.000 HD
ENDBRANCH  19  21
BRANCH  19  23
ATOM     23  O   UNL     1       4.003   0.659  18.444  0.00  0.00    +0.000 OA
ATOM     24  H   UNL     1       3.564  -0.002  17.881  0.00  0.00    +0.000 HD
ENDBRANCH  19  23
ENDBRANCH  18  19
ENDBRANCH   3  18
BRANCH   4  25
ATOM     25  C   UNL     1       4.874   5.513  19.268  0.00  0.00    +0.000 C 
BRANCH  25  26
ATOM     26  O   UNL     1       6.062   6.254  19.018  0.00  0.00    +0.000 OA
BRANCH  26  27
ATOM     27  P   UNL     1       7.322   5.489  18.407  0.00  0.00    +0.000 P 
ATOM     28  O   UNL     1       7.827   5.975  17.095  0.00  0.00    +0.000 OA
BRANCH  27  29
ATOM     29  O   UNL     1       8.395   5.424  19.585  0.00  0.00    +0.000 OA
ATOM     30  H   UNL     1       8.790   4.533  19.644  0.00  0.00    +0.000 HD
ENDBRANCH  27  29
BRANCH  27  31
ATOM     31  O   UNL     1       6.864   3.959  18.349  0.00  0.00    +0.000 OA
ATOM     32  H   UNL     1       7.490   3.403  18.849  0.00  0.00    +0.000 HD
ENDBRANCH  27  31
ENDBRANCH  26  27
ENDBRANCH  25  26
ENDBRANCH   4  25
TORSDOF 11
ENDMDL
MODEL 6
REMARK VINA RESULT:      -5.6      5.169      7.305
REMARK  Name = 
REMARK  12 active torsions:
REMARK  status: ('A' for Active; 'I' for Inactive)
REMARK    1  A    between atoms: C_1  and  N_2
REMARK    2  A    between atoms: N_2  and  C_3
REMARK    3  A    between atoms: N_12  and  C_13
REMARK    4  A    between atoms: C_15  and  O_16
REMARK    5  A    between atoms: O_16  and  P_17
REMARK    6  A    between atoms: P_17  and  O_19
REMARK    7  A    between atoms: P_17  and  O_20
REMARK    8  A    between atoms: C_21  and  C_22
REMARK    9  A    between atoms: C_22  and  O_23
REMARK   10  A    between atoms: O_23  and  P_24
REMARK   11  A    between atoms: P_24  and  O_26
REMARK   12  A    between atoms: P_24  and  O_27
REMARK                            x       y       z     vdW  Elec       q    Type
REMARK                         _______ _______ _______ _____ _____    ______ ____
ROOT
ATOM      1  C   UNL     1       2.050   7.468  17.763  0.00  0.00    +0.000 C 
ATOM      2  C   UNL     1       2.688   8.807  17.350  0.00  0.00    +0.000 C 
ATOM      3  C   UNL     1       1.650   9.567  18.188  0.00  0.00    +0.000 C 
ATOM      4  C   UNL     1       1.294   8.228  18.902  0.00  0.00    +0.000 C 
ENDROOT
BRANCH   1  14
ATOM      5  C   UNL     1       3.991   3.261  19.272  0.00  0.00    +0.000 A 
ATOM      6  N   UNL     1       2.841   2.544  19.218  0.00  0.00    +0.000 NA
ATOM      7  C   UNL     1       1.721   3.168  18.815  0.00  0.00    +0.000 A 
ATOM      8 CL   UNL     1       0.303   2.209  18.789  0.00  0.00    +0.000 Cl
ATOM      9  N   UNL     1       1.554   4.440  18.416  0.00  0.00    +0.000 NA
ATOM     10  C   UNL     1       2.707   5.123  18.499  0.00  0.00    +0.000 A 
ATOM     11  C   UNL     1       3.935   4.625  18.916  0.00  0.00    +0.000 A 
ATOM     12  N   UNL     1       4.906   5.606  18.876  0.00  0.00    +0.000 NA
ATOM     13  C   UNL     1       4.276   6.686  18.466  0.00  0.00    +0.000 A 
ATOM     14  N   UNL     1       2.954   6.440  18.205  0.00  0.00    +0.000 N 
BRANCH   5  16
ATOM     15  C   UNL     1       5.023   1.604  20.657  0.00  0.00    +0.000 C 
ATOM     16  N   UNL     1       5.188   2.657  19.675  0.00  0.00    +0.000 N 
ATOM     17  H   UNL     1       5.736   2.395  18.856  0.00  0.00    +0.000 HD
ENDBRANCH   5  16
ENDBRANCH   1  14
BRANCH   3  18
ATOM     18  O   UNL     1       2.120  10.620  19.045  0.00  0.00    +0.000 OA
BRANCH  18  19
ATOM     19  P   UNL     1       1.765  12.143  18.716  0.00  0.00    +0.000 P 
ATOM     20  O   UNL     1       1.971  13.112  19.828  0.00  0.00    +0.000 OA
BRANCH  19  21
ATOM     21  O   UNL     1       2.637  12.464  17.420  0.00  0.00    +0.000 OA
ATOM     22  H   UNL     1       2.594  13.411  17.185  0.00  0.00    +0.000 HD
ENDBRANCH  19  21
BRANCH  19  23
ATOM     23  O   UNL     1       0.282  12.118  18.128  0.00  0.00    +0.000 OA
ATOM     24  H   UNL     1      -0.060  11.207  18.109  0.00  0.00    +0.000 HD
ENDBRANCH  19  23
ENDBRANCH  18  19
ENDBRANCH   3  18
BRANCH   4  25
ATOM     25  C   UNL     1       1.616   8.183  20.394  0.00  0.00    +0.000 C 
BRANCH  25  26
ATOM     26  O   UNL     1       0.445   8.608  21.078  0.00  0.00    +0.000 OA
BRANCH  26  27
ATOM     27  P   UNL     1       0.609   9.540  22.362  0.00  0.00    +0.000 P 
ATOM     28  O   UNL     1      -0.453   9.440  23.400  0.00  0.00    +0.000 OA
BRANCH  27  29
ATOM     29  O   UNL     1       2.102   9.310  22.870  0.00  0.00    +0.000 OA
ATOM     30  H   UNL     1       2.128   9.225  23.842  0.00  0.00    +0.000 HD
ENDBRANCH  27  29
BRANCH  27  31
ATOM     31  O   UNL     1       0.732  11.017  21.764  0.00  0.00    +0.000 OA
ATOM     32  H   UNL     1       1.404  11.523  22.256  0.00  0.00    +0.000 HD
ENDBRANCH  27  31
ENDBRANCH  26  27
ENDBRANCH  25  26
ENDBRANCH   4  25
TORSDOF 11
ENDMDL
MODEL 7
REMARK VINA RESULT:      -5.5      1.468      2.064
REMARK  Name = 
REMARK  12 active torsions:
REMARK  status: ('A' for Active; 'I' for Inactive)
REMARK    1  A    between atoms: C_1  and  N_2
REMARK    2  A    between atoms: N_2  and  C_3
REMARK    3  A    between atoms: N_12  and  C_13
REMARK    4  A    between atoms: C_15  and  O_16
REMARK    5  A    between atoms: O_16  and  P_17
REMARK    6  A    between atoms: P_17  and  O_19
REMARK    7  A    between atoms: P_17  and  O_20
REMARK    8  A    between atoms: C_21  and  C_22
REMARK    9  A    between atoms: C_22  and  O_23
REMARK   10  A    between atoms: O_23  and  P_24
REMARK   11  A    between atoms: P_24  and  O_26
REMARK   12  A    between atoms: P_24  and  O_27
REMARK                            x       y       z     vdW  Elec       q    Type
REMARK                         _______ _______ _______ _____ _____    ______ ____
ROOT
ATOM      1  C   UNL     1       3.645   6.935  19.080  0.00  0.00    +0.000 C 
ATOM      2  C   UNL     1       4.819   6.813  18.091  0.00  0.00    +0.000 C 
ATOM      3  C   UNL     1       4.682   5.283  18.108  0.00  0.00    +0.000 C 
ATOM      4  C   UNL     1       3.276   5.449  18.759  0.00  0.00    +0.000 C 
ENDROOT
BRANCH   1  14
ATOM      5  C   UNL     1      -0.099  10.048  19.259  0.00  0.00    +0.000 A 
ATOM      6  N   UNL     1      -0.354   9.890  20.581  0.00  0.00    +0.000 NA
ATOM      7  C   UNL     1       0.419   9.045  21.282  0.00  0.00    +0.000 A 
ATOM      8 CL   UNL     1       0.028   8.880  22.940  0.00  0.00    +0.000 Cl
ATOM      9  N   UNL     1       1.468   8.314  20.870  0.00  0.00    +0.000 NA
ATOM     10  C   UNL     1       1.681   8.480  19.554  0.00  0.00    +0.000 A 
ATOM     11  C   UNL     1       0.956   9.299  18.697  0.00  0.00    +0.000 A 
ATOM     12  N   UNL     1       1.451   9.228  17.410  0.00  0.00    +0.000 NA
ATOM     13  C   UNL     1       2.441   8.365  17.477  0.00  0.00    +0.000 A 
ATOM     14  N   UNL     1       2.633   7.903  18.753  0.00  0.00    +0.000 N 
BRANCH   5  16
ATOM     15  C   UNL     1      -1.988  10.299  17.810  0.00  0.00    +0.000 C 
ATOM     16  N   UNL     1      -0.868  10.925  18.484  0.00  0.00    +0.000 N 
ATOM     17  H   UNL     1      -1.107  11.751  19.031  0.00  0.00    +0.000 HD
ENDBRANCH   5  16
ENDBRANCH   1  14
BRANCH   3  18
ATOM     18  O   UNL     1       4.703   4.593  16.848  0.00  0.00    +0.000 OA
BRANCH  18  19
ATOM     19  P   UNL     1       6.082   4.394  16.064  0.00  0.00    +0.000 P 
ATOM     20  O   UNL     1       6.451   5.481  15.117  0.00  0.00    +0.000 OA
BRANCH  19  21
ATOM     21  O   UNL     1       7.151   4.170  17.227  0.00  0.00    +0.000 OA
ATOM     22  H   UNL     1       7.745   4.939  17.320  0.00  0.00    +0.000 HD
ENDBRANCH  19  21
BRANCH  19  23
ATOM     23  O   UNL     1       5.992   2.944  15.404  0.00  0.00    +0.000 OA
ATOM     24  H   UNL     1       6.879   2.553  15.322  0.00  0.00    +0.000 HD
ENDBRANCH  19  23
ENDBRANCH  18  19
ENDBRANCH   3  18
BRANCH   4  25
ATOM     25  C   UNL     1       2.105   4.968  17.906  0.00  0.00    +0.000 C 
BRANCH  25  26
ATOM     26  O   UNL     1       1.633   3.765  18.500  0.00  0.00    +0.000 OA
BRANCH  26  27
ATOM     27  P   UNL     1       1.559   3.680  20.091  0.00  0.00    +0.000 P 
ATOM     28  O   UNL     1       2.774   3.180  20.791  0.00  0.00    +0.000 OA
BRANCH  27  29
ATOM     29  O   UNL     1       1.016   5.100  20.571  0.00  0.00    +0.000 OA
ATOM     30  H   UNL     1       1.541   5.822  20.177  0.00  0.00    +0.000 HD
ENDBRANCH  27  29
BRANCH  27  31
ATOM     31  O   UNL     1       0.279   2.769  20.378  0.00  0.00    +0.000 OA
ATOM     32  H   UNL     1       0.400   2.272  21.208  0.00  0.00    +0.000 HD
ENDBRANCH  27  31
ENDBRANCH  26  27
ENDBRANCH  25  26
ENDBRANCH   4  25
TORSDOF 11
ENDMDL
MODEL 8
REMARK VINA RESULT:      -5.4      5.533      7.711
REMARK  Name = 
REMARK  12 active torsions:
REMARK  status: ('A' for Active; 'I' for Inactive)
REMARK    1  A    between atoms: C_1  and  N_2
REMARK    2  A    between atoms: N_2  and  C_3
REMARK    3  A    between atoms: N_12  and  C_13
REMARK    4  A    between atoms: C_15  and  O_16
REMARK    5  A    between atoms: O_16  and  P_17
REMARK    6  A    between atoms: P_17  and  O_19
REMARK    7  A    between atoms: P_17  and  O_20
REMARK    8  A    between atoms: C_21  and  C_22
REMARK    9  A    between atoms: C_22  and  O_23
REMARK   10  A    between atoms: O_23  and  P_24
REMARK   11  A    between atoms: P_24  and  O_26
REMARK   12  A    between atoms: P_24  and  O_27
REMARK                            x       y       z     vdW  Elec       q    Type
REMARK                         _______ _______ _______ _____ _____    ______ ____
ROOT
ATOM      1  C   UNL     1       1.652   7.851  18.103  0.00  0.00    +0.000 C 
ATOM      2  C   UNL     1       2.446   9.023  17.497  0.00  0.00    +0.000 C 
ATOM      3  C   UNL     1       1.558  10.022  18.254  0.00  0.00    +0.000 C 
ATOM      4  C   UNL     1       1.057   8.850  19.149  0.00  0.00    +0.000 C 
ENDROOT
BRANCH   1  14
ATOM      5  C   UNL     1       4.876   4.261  18.784  0.00  0.00    +0.000 A 
ATOM      6  N   UNL     1       5.495   4.394  17.584  0.00  0.00    +0.000 NA
ATOM      7  C   UNL     1       5.058   5.348  16.745  0.00  0.00    +0.000 A 
ATOM      8 CL   UNL     1       5.872   5.447  15.242  0.00  0.00    +0.000 Cl
ATOM      9  N   UNL     1       4.078   6.249  16.921  0.00  0.00    +0.000 NA
ATOM     10  C   UNL     1       3.476   6.077  18.109  0.00  0.00    +0.000 A 
ATOM     11  C   UNL     1       3.798   5.125  19.069  0.00  0.00    +0.000 A 
ATOM     12  N   UNL     1       2.974   5.236  20.171  0.00  0.00    +0.000 NA
ATOM     13  C   UNL     1       2.150   6.219  19.878  0.00  0.00    +0.000 A 
ATOM     14  N   UNL     1       2.427   6.772  18.655  0.00  0.00    +0.000 N 
BRANCH   5  16
ATOM     15  C   UNL     1       4.403   2.156  19.820  0.00  0.00    +0.000 C 
ATOM     16  N   UNL     1       5.298   3.290  19.699  0.00  0.00    +0.000 N 
ATOM     17  H   UNL     1       6.272   3.047  19.522  0.00  0.00    +0.000 HD
ENDBRANCH   5  16
ENDBRANCH   1  14
BRANCH   3  18
ATOM     18  O   UNL     1       2.204  11.101  18.950  0.00  0.00    +0.000 OA
BRANCH  18  19
ATOM     19  P   UNL     1       1.803  12.615  18.635  0.00  0.00    +0.000 P 
ATOM     20  O   UNL     1       2.132  13.607  19.695  0.00  0.00    +0.000 OA
BRANCH  19  21
ATOM     21  O   UNL     1       2.514  12.914  17.239  0.00  0.00    +0.000 OA
ATOM     22  H   UNL     1       2.079  13.648  16.765  0.00  0.00    +0.000 HD
ENDBRANCH  19  21
BRANCH  19  23
ATOM     23  O   UNL     1       0.261  12.572  18.225  0.00  0.00    +0.000 OA
ATOM     24  H   UNL     1      -0.299  12.798  18.988  0.00  0.00    +0.000 HD
ENDBRANCH  19  23
ENDBRANCH  18  19
ENDBRANCH   3  18
BRANCH   4  25
ATOM     25  C   UNL     1       1.436   8.952  20.625  0.00  0.00    +0.000 C 
BRANCH  25  26
ATOM     26  O   UNL     1       0.231   9.188  21.341  0.00  0.00    +0.000 OA
BRANCH  26  27
ATOM     27  P   UNL     1      -0.172  10.694  21.679  0.00  0.00    +0.000 P 
ATOM     28  O   UNL     1      -1.212  11.317  20.816  0.00  0.00    +0.000 OA
BRANCH  27  29
ATOM     29  O   UNL     1      -0.464  10.717  23.247  0.00  0.00    +0.000 OA
ATOM     30  H   UNL     1      -1.424  10.704  23.420  0.00  0.00    +0.000 HD
ENDBRANCH  27  29
BRANCH  27  31
ATOM     31  O   UNL     1       1.211  11.492  21.632  0.00  0.00    +0.000 OA
ATOM     32  H   UNL     1       1.048  12.437  21.457  0.00  0.00    +0.000 HD
ENDBRANCH  27  31
ENDBRANCH  26  27
ENDBRANCH  25  26
ENDBRANCH   4  25
TORSDOF 11
ENDMDL
MODEL 9
REMARK VINA RESULT:      -5.4      1.656      2.325
REMARK  Name = 
REMARK  12 active torsions:
REMARK  status: ('A' for Active; 'I' for Inactive)
REMARK    1  A    between atoms: C_1  and  N_2
REMARK    2  A    between atoms: N_2  and  C_3
REMARK    3  A    between atoms: N_12  and  C_13
REMARK    4  A    between atoms: C_15  and  O_16
REMARK    5  A    between atoms: O_16  and  P_17
REMARK    6  A    between atoms: P_17  and  O_19
REMARK    7  A    between atoms: P_17  and  O_20
REMARK    8  A    between atoms: C_21  and  C_22
REMARK    9  A    between atoms: C_22  and  O_23
REMARK   10  A    between atoms: O_23  and  P_24
REMARK   11  A    between atoms: P_24  and  O_26
REMARK   12  A    between atoms: P_24  and  O_27
REMARK                            x       y       z     vdW  Elec       q    Type
REMARK                         _______ _______ _______ _____ _____    ______ ____
ROOT
ATOM      1  C   UNL     1       3.766   6.464  19.105  0.00  0.00    +0.000 C 
ATOM      2  C   UNL     1       5.068   6.304  18.299  0.00  0.00    +0.000 C 
ATOM      3  C   UNL     1       4.803   4.798  18.160  0.00  0.00    +0.000 C 
ATOM      4  C   UNL     1       3.330   5.049  18.601  0.00  0.00    +0.000 C 
ENDROOT
BRANCH   1  14
ATOM      5  C   UNL     1       0.371   9.959  19.022  0.00  0.00    +0.000 A 
ATOM      6  N   UNL     1      -0.044   9.786  20.301  0.00  0.00    +0.000 NA
ATOM      7  C   UNL     1       0.553   8.839  21.042  0.00  0.00    +0.000 A 
ATOM      8 CL   UNL     1      -0.033   8.663  22.641  0.00  0.00    +0.000 Cl
ATOM      9  N   UNL     1       1.560   8.012  20.712  0.00  0.00    +0.000 NA
ATOM     10  C   UNL     1       1.933   8.198  19.436  0.00  0.00    +0.000 A 
ATOM     11  C   UNL     1       1.398   9.118  18.543  0.00  0.00    +0.000 A 
ATOM     12  N   UNL     1       2.022   9.036  17.315  0.00  0.00    +0.000 NA
ATOM     13  C   UNL     1       2.903   8.069  17.449  0.00  0.00    +0.000 A 
ATOM     14  N   UNL     1       2.903   7.547  18.716  0.00  0.00    +0.000 N 
BRANCH   5  16
ATOM     15  C   UNL     1      -1.144  11.808  18.901  0.00  0.00    +0.000 C 
ATOM     16  N   UNL     1      -0.211  10.940  18.210  0.00  0.00    +0.000 N 
ATOM     17  H   UNL     1       0.513  11.425  17.681  0.00  0.00    +0.000 HD
ENDBRANCH   5  16
ENDBRANCH   1  14
BRANCH   3  18
ATOM     18  O   UNL     1       4.967   4.205  16.861  0.00  0.00    +0.000 OA
BRANCH  18  19
ATOM     19  P   UNL     1       6.300   4.470  16.020  0.00  0.00    +0.000 P 
ATOM     20  O   UNL     1       7.568   4.477  16.799  0.00  0.00    +0.000 OA
BRANCH  19  21
ATOM     21  O   UNL     1       6.257   3.355  14.880  0.00  0.00    +0.000 OA
ATOM     22  H   UNL     1       5.936   2.501  15.227  0.00  0.00    +0.000 HD
ENDBRANCH  19  21
BRANCH  19  23
ATOM     23  O   UNL     1       6.024   5.807  15.194  0.00  0.00    +0.000 OA
ATOM     24  H   UNL     1       5.769   6.530  15.794  0.00  0.00    +0.000 HD
ENDBRANCH  19  23
ENDBRANCH  18  19
ENDBRANCH   3  18
BRANCH   4  25
ATOM     25  C   UNL     1       2.274   4.748  17.540  0.00  0.00    +0.000 C 
BRANCH  25  26
ATOM     26  O   UNL     1       2.057   3.343  17.566  0.00  0.00    +0.000 OA
BRANCH  26  27
ATOM     27  P   UNL     1       1.265   2.717  18.802  0.00  0.00    +0.000 P 
ATOM     28  O   UNL     1       0.084   1.871  18.479  0.00  0.00    +0.000 OA
BRANCH  27  29
ATOM     29  O   UNL     1       2.376   2.038  19.722  0.00  0.00    +0.000 OA
ATOM     30  H   UNL     1       3.187   2.580  19.743  0.00  0.00    +0.000 HD
ENDBRANCH  27  29
BRANCH  27  31
ATOM     31  O   UNL     1       0.878   3.979  19.701  0.00  0.00    +0.000 OA
ATOM     32  H   UNL     1       1.232   3.870  20.603  0.00  0.00    +0.000 HD
ENDBRANCH  27  31
ENDBRANCH  26  27
ENDBRANCH  25  26
ENDBRANCH   4  25
TORSDOF 11
ENDMDL
