MODEL 1
REMARK VINA RESULT:      -7.0      0.000      0.000
REMARK  Name = 
REMARK  9 active torsions:
REMARK  status: ('A' for Active; 'I' for Inactive)
REMARK    1  A    between atoms: C_1  and  S_2
REMARK    2  A    between atoms: S_2  and  C_3
REMARK    3  A    between atoms: C_3  and  C_4
REMARK    4  A    between atoms: C_4  and  C_5
REMARK    5  A    between atoms: C_5  and  N_6
REMARK    6  A    between atoms: C_5  and  C_18
REMARK    7  A    between atoms: N_9  and  C_10
REMARK    8  A    between atoms: C_10  and  C_11
REMARK    9  A    between atoms: C_14  and  N_15
REMARK                            x       y       z     vdW  Elec       q    Type
REMARK                         _______ _______ _______ _____ _____    ______ ____
ROOT
ATOM      1  N   UNL     1       3.994   5.654  18.017  0.00  0.00    +0.000 N 
ATOM      2  C   UNL     1       2.882   6.434  17.844  0.00  0.00    +0.000 C 
ATOM      3  O   UNL     1       1.776   5.971  17.586  0.00  0.00    +0.000 OA
ATOM      4  N   UNL     1       3.132   7.770  17.995  0.00  0.00    +0.000 N 
ATOM      5  H   UNL     1       4.889   6.105  17.866  0.00  0.00    +0.000 HD
ATOM      6  H   UNL     1       3.899   8.015  18.606  0.00  0.00    +0.000 HD
ENDROOT
BRANCH   1   7
ATOM      7  C   UNL     1       3.935   4.206  17.745  0.00  0.00    +0.000 C 
BRANCH   7   8
ATOM      8  C   UNL     1       4.114   3.473  19.098  0.00  0.00    +0.000 C 
ATOM      9  O   UNL     1       5.226   3.359  19.617  0.00  0.00    +0.000 OA
ATOM     10  N   UNL     1       2.969   3.062  19.760  0.00  0.00    +0.000 N 
ATOM     11  C   UNL     1       1.592   3.162  19.317  0.00  0.00    +0.000 C 
ATOM     12  C   UNL     1       0.856   3.483  20.605  0.00  0.00    +0.000 C 
ATOM     13  C   UNL     1       1.583   2.627  21.638  0.00  0.00    +0.000 C 
ATOM     14  C   UNL     1       3.018   2.524  21.112  0.00  0.00    +0.000 C 
ENDBRANCH   7   8
BRANCH   7  15
ATOM     15  C   UNL     1       5.010   3.832  16.704  0.00  0.00    +0.000 C 
BRANCH  15  16
ATOM     16  C   UNL     1       6.273   4.693  16.792  0.00  0.00    +0.000 C 
BRANCH  16  18
ATOM     17  C   UNL     1       6.187   3.838  14.142  0.00  0.00    +0.000 C 
ATOM     18  S   UNL     1       6.707   5.274  15.110  0.00  0.00    +0.000 S 
ENDBRANCH  16  18
ENDBRANCH  15  16
ENDBRANCH   7  15
ENDBRANCH   1   7
BRANCH   4  19
ATOM     19  C   UNL     1       2.025   8.707  17.945  0.00  0.00    +0.000 C 
BRANCH  19  20
ATOM     20  C   UNL     1       1.337   8.876  19.276  0.00  0.00    +0.000 A 
ATOM     21  C   UNL     1       1.749   8.128  20.385  0.00  0.00    +0.000 A 
ATOM     22  C   UNL     1       1.152   8.316  21.637  0.00  0.00    +0.000 A 
ATOM     23  C   UNL     1       0.166   9.287  21.822  0.00  0.00    +0.000 A 
ATOM     24  C   UNL     1      -0.278  10.001  20.707  0.00  0.00    +0.000 A 
ATOM     25  C   UNL     1       0.313   9.816  19.451  0.00  0.00    +0.000 A 
BRANCH  23  26
ATOM     26  N   UNL     1      -0.515   9.383  23.043  0.00  0.00    +0.000 N 
ATOM     27  H   UNL     1      -1.214   8.659  23.176  0.00  0.00    +0.000 HD
ATOM     28  H   UNL     1       0.096   9.479  23.847  0.00  0.00    +0.000 HD
ENDBRANCH  23  26
ENDBRANCH  19  20
ENDBRANCH   4  19
TORSDOF 8
ENDMDL
MODEL 2
REMARK VINA RESULT:      -6.9      0.247      1.003
REMARK  Name = 
REMARK  9 active torsions:
REMARK  status: ('A' for Active; 'I' for Inactive)
REMARK    1  A    between atoms: C_1  and  S_2
REMARK    2  A    between atoms: S_2  and  C_3
REMARK    3  A    between atoms: C_3  and  C_4
REMARK    4  A    between atoms: C_4  and  C_5
REMARK    5  A    between atoms: C_5  and  N_6
REMARK    6  A    between atoms: C_5  and  C_18
REMARK    7  A    between atoms: N_9  and  C_10
REMARK    8  A    between atoms: C_10  and  C_11
REMARK    9  A    between atoms: C_14  and  N_15
REMARK                            x       y       z     vdW  Elec       q    Type
REMARK                         _______ _______ _______ _____ _____    ______ ____
ROOT
ATOM      1  N   UNL     1       4.060   5.544  18.111  0.00  0.00    +0.000 N 
ATOM      2  C   UNL     1       2.937   6.295  17.890  0.00  0.00    +0.000 C 
ATOM      3  O   UNL     1       1.850   5.804  17.602  0.00  0.00    +0.000 OA
ATOM      4  N   UNL     1       3.152   7.639  18.029  0.00  0.00    +0.000 N 
ATOM      5  H   UNL     1       4.949   6.012  17.983  0.00  0.00    +0.000 HD
ATOM      6  H   UNL     1       3.893   7.909  18.661  0.00  0.00    +0.000 HD
ENDROOT
BRANCH   1   7
ATOM      7  C   UNL     1       4.042   4.090  17.858  0.00  0.00    +0.000 C 
BRANCH   7   8
ATOM      8  C   UNL     1       4.169   3.381  19.230  0.00  0.00    +0.000 C 
ATOM      9  O   UNL     1       5.261   3.270  19.790  0.00  0.00    +0.000 OA
ATOM     10  N   UNL     1       2.999   2.988  19.857  0.00  0.00    +0.000 N 
ATOM     11  C   UNL     1       1.638   3.087  19.364  0.00  0.00    +0.000 C 
ATOM     12  C   UNL     1       0.860   3.434  20.620  0.00  0.00    +0.000 C 
ATOM     13  C   UNL     1       1.544   2.593  21.693  0.00  0.00    +0.000 C 
ATOM     14  C   UNL     1       2.996   2.474  21.220  0.00  0.00    +0.000 C 
ENDBRANCH   7   8
BRANCH   7  15
ATOM     15  C   UNL     1       5.173   3.723  16.877  0.00  0.00    +0.000 C 
BRANCH  15  16
ATOM     16  C   UNL     1       6.219   4.829  16.706  0.00  0.00    +0.000 C 
BRANCH  16  18
ATOM     17  C   UNL     1       6.252   3.833  14.104  0.00  0.00    +0.000 C 
ATOM     18  S   UNL     1       6.175   5.417  14.973  0.00  0.00    +0.000 S 
ENDBRANCH  16  18
ENDBRANCH  15  16
ENDBRANCH   7  15
ENDBRANCH   1   7
BRANCH   4  19
ATOM     19  C   UNL     1       2.027   8.549  17.929  0.00  0.00    +0.000 C 
BRANCH  19  20
ATOM     20  C   UNL     1       1.440   8.909  19.271  0.00  0.00    +0.000 A 
ATOM     21  C   UNL     1       0.606  10.025  19.402  0.00  0.00    +0.000 A 
ATOM     22  C   UNL     1       0.015  10.336  20.633  0.00  0.00    +0.000 A 
ATOM     23  C   UNL     1       0.203   9.514  21.746  0.00  0.00    +0.000 A 
ATOM     24  C   UNL     1       1.072   8.428  21.628  0.00  0.00    +0.000 A 
ATOM     25  C   UNL     1       1.669   8.112  20.400  0.00  0.00    +0.000 A 
BRANCH  23  26
ATOM     26  N   UNL     1      -0.285   9.899  23.001  0.00  0.00    +0.000 N 
ATOM     27  H   UNL     1      -0.266  10.902  23.155  0.00  0.00    +0.000 HD
ATOM     28  H   UNL     1      -1.184   9.491  23.235  0.00  0.00    +0.000 HD
ENDBRANCH  23  26
ENDBRANCH  19  20
ENDBRANCH   4  19
TORSDOF 8
ENDMDL
MODEL 3
REMARK VINA RESULT:      -6.8      2.795      4.594
REMARK  Name = 
REMARK  9 active torsions:
REMARK  status: ('A' for Active; 'I' for Inactive)
REMARK    1  A    between atoms: C_1  and  S_2
REMARK    2  A    between atoms: S_2  and  C_3
REMARK    3  A    between atoms: C_3  and  C_4
REMARK    4  A    between atoms: C_4  and  C_5
REMARK    5  A    between atoms: C_5  and  N_6
REMARK    6  A    between atoms: C_5  and  C_18
REMARK    7  A    between atoms: N_9  and  C_10
REMARK    8  A    between atoms: C_10  and  C_11
REMARK    9  A    between atoms: C_14  and  N_15
REMARK                            x       y       z     vdW  Elec       q    Type
REMARK                         _______ _______ _______ _____ _____    ______ ____
ROOT
ATOM      1  N   UNL     1       2.664   6.467  17.628  0.00  0.00    +0.000 N 
ATOM      2  C   UNL     1       2.301   7.388  18.573  0.00  0.00    +0.000 C 
ATOM      3  O   UNL     1       2.341   7.161  19.778  0.00  0.00    +0.000 OA
ATOM      4  N   UNL     1       1.898   8.580  18.037  0.00  0.00    +0.000 N 
ATOM      5  H   UNL     1       2.271   6.591  16.703  0.00  0.00    +0.000 HD
ATOM      6  H   UNL     1       2.295   8.823  17.140  0.00  0.00    +0.000 HD
ENDROOT
BRANCH   1   7
ATOM      7  C   UNL     1       2.982   5.082  18.025  0.00  0.00    +0.000 C 
BRANCH   7   8
ATOM      8  C   UNL     1       4.241   4.652  17.232  0.00  0.00    +0.000 C 
ATOM      9  O   UNL     1       4.179   4.407  16.025  0.00  0.00    +0.000 OA
ATOM     10  N   UNL     1       5.455   4.670  17.898  0.00  0.00    +0.000 N 
ATOM     11  C   UNL     1       5.709   4.978  19.292  0.00  0.00    +0.000 C 
ATOM     12  C   UNL     1       7.021   5.738  19.225  0.00  0.00    +0.000 C 
ATOM     13  C   UNL     1       7.795   4.994  18.141  0.00  0.00    +0.000 C 
ATOM     14  C   UNL     1       6.714   4.453  17.200  0.00  0.00    +0.000 C 
ENDBRANCH   7   8
BRANCH   7  15
ATOM     15  C   UNL     1       1.761   4.177  17.766  0.00  0.00    +0.000 C 
BRANCH  15  16
ATOM     16  C   UNL     1       1.574   3.085  18.824  0.00  0.00    +0.000 C 
BRANCH  16  18
ATOM     17  C   UNL     1       1.896   2.727  21.568  0.00  0.00    +0.000 C 
ATOM     18  S   UNL     1       1.112   3.874  20.410  0.00  0.00    +0.000 S 
ENDBRANCH  16  18
ENDBRANCH  15  16
ENDBRANCH   7  15
ENDBRANCH   1   7
BRANCH   4  19
ATOM     19  C   UNL     1       1.586   9.686  18.924  0.00  0.00    +0.000 C 
BRANCH  19  20
ATOM     20  C   UNL     1       0.204  10.247  18.700  0.00  0.00    +0.000 A 
ATOM     21  C   UNL     1      -0.263  11.309  19.483  0.00  0.00    +0.000 A 
ATOM     22  C   UNL     1      -1.523  11.871  19.247  0.00  0.00    +0.000 A 
ATOM     23  C   UNL     1      -2.324  11.420  18.196  0.00  0.00    +0.000 A 
ATOM     24  C   UNL     1      -1.879  10.330  17.445  0.00  0.00    +0.000 A 
ATOM     25  C   UNL     1      -0.620   9.761  17.677  0.00  0.00    +0.000 A 
BRANCH  23  26
ATOM     26  N   UNL     1      -3.632  11.898  18.046  0.00  0.00    +0.000 N 
ATOM     27  H   UNL     1      -3.819  12.745  18.574  0.00  0.00    +0.000 HD
ATOM     28  H   UNL     1      -3.935  11.972  17.080  0.00  0.00    +0.000 HD
ENDBRANCH  23  26
ENDBRANCH  19  20
ENDBRANCH   4  19
TORSDOF 8
ENDMDL
MODEL 4
REMARK VINA RESULT:      -6.8      3.009      4.911
REMARK  Name = 
REMARK  9 active torsions:
REMARK  status: ('A' for Active; 'I' for Inactive)
REMARK    1  A    between atoms: C_1  and  S_2
REMARK    2  A    between atoms: S_2  and  C_3
REMARK    3  A    between atoms: C_3  and  C_4
REMARK    4  A    between atoms: C_4  and  C_5
REMARK    5  A    between atoms: C_5  and  N_6
REMARK    6  A    between atoms: C_5  and  C_18
REMARK    7  A    between atoms: N_9  and  C_10
REMARK    8  A    between atoms: C_10  and  C_11
REMARK    9  A    between atoms: C_14  and  N_15
REMARK                            x       y       z     vdW  Elec       q    Type
REMARK                         _______ _______ _______ _____ _____    ______ ____
ROOT
ATOM      1  N   UNL     1       2.638   6.721  18.176  0.00  0.00    +0.000 N 
ATOM      2  C   UNL     1       2.181   7.767  18.932  0.00  0.00    +0.000 C 
ATOM      3  O   UNL     1       2.237   7.781  20.157  0.00  0.00    +0.000 OA
ATOM      4  N   UNL     1       1.665   8.789  18.183  0.00  0.00    +0.000 N 
ATOM      5  H   UNL     1       2.240   6.626  17.250  0.00  0.00    +0.000 HD
ATOM      6  H   UNL     1       2.042   8.892  17.250  0.00  0.00    +0.000 HD
ENDROOT
BRANCH   1   7
ATOM      7  C   UNL     1       3.089   5.477  18.827  0.00  0.00    +0.000 C 
BRANCH   7   8
ATOM      8  C   UNL     1       3.794   4.619  17.746  0.00  0.00    +0.000 C 
ATOM      9  O   UNL     1       3.146   3.902  16.981  0.00  0.00    +0.000 OA
ATOM     10  N   UNL     1       5.160   4.780  17.592  0.00  0.00    +0.000 N 
ATOM     11  C   UNL     1       6.060   5.611  18.370  0.00  0.00    +0.000 C 
ATOM     12  C   UNL     1       7.024   6.125  17.316  0.00  0.00    +0.000 C 
ATOM     13  C   UNL     1       7.212   4.916  16.404  0.00  0.00    +0.000 C 
ATOM     14  C   UNL     1       5.886   4.155  16.495  0.00  0.00    +0.000 C 
ENDBRANCH   7   8
BRANCH   7  15
ATOM     15  C   UNL     1       1.884   4.767  19.476  0.00  0.00    +0.000 C 
BRANCH  15  16
ATOM     16  C   UNL     1       2.089   4.444  20.959  0.00  0.00    +0.000 C 
BRANCH  16  18
ATOM     17  C   UNL     1       1.549   2.081  19.587  0.00  0.00    +0.000 C 
ATOM     18  S   UNL     1       1.517   2.733  21.273  0.00  0.00    +0.000 S 
ENDBRANCH  16  18
ENDBRANCH  15  16
ENDBRANCH   7  15
ENDBRANCH   1   7
BRANCH   4  19
ATOM     19  C   UNL     1       1.241  10.008  18.845  0.00  0.00    +0.000 C 
BRANCH  19  20
ATOM     20  C   UNL     1      -0.124  10.473  18.404  0.00  0.00    +0.000 A 
ATOM     21  C   UNL     1      -0.591  11.741  18.767  0.00  0.00    +0.000 A 
ATOM     22  C   UNL     1      -1.835  12.201  18.318  0.00  0.00    +0.000 A 
ATOM     23  C   UNL     1      -2.617  11.427  17.459  0.00  0.00    +0.000 A 
ATOM     24  C   UNL     1      -2.175  10.143  17.135  0.00  0.00    +0.000 A 
ATOM     25  C   UNL     1      -0.932   9.675  17.583  0.00  0.00    +0.000 A 
BRANCH  23  26
ATOM     26  N   UNL     1      -3.913  11.837  17.118  0.00  0.00    +0.000 N 
ATOM     27  H   UNL     1      -4.636  11.423  17.697  0.00  0.00    +0.000 HD
ATOM     28  H   UNL     1      -4.016  12.843  17.034  0.00  0.00    +0.000 HD
ENDBRANCH  23  26
ENDBRANCH  19  20
ENDBRANCH   4  19
TORSDOF 8
ENDMDL
MODEL 5
REMARK VINA RESULT:      -6.7      3.082      4.791
REMARK  Name = 
REMARK  9 active torsions:
REMARK  status: ('A' for Active; 'I' for Inactive)
REMARK    1  A    between atoms: C_1  and  S_2
REMARK    2  A    between atoms: S_2  and  C_3
REMARK    3  A    between atoms: C_3  and  C_4
REMARK    4  A    between atoms: C_4  and  C_5
REMARK    5  A    between atoms: C_5  and  N_6
REMARK    6  A    between atoms: C_5  and  C_18
REMARK    7  A    between atoms: N_9  and  C_10
REMARK    8  A    between atoms: C_10  and  C_11
REMARK    9  A    between atoms: C_14  and  N_15
REMARK                            x       y       z     vdW  Elec       q    Type
REMARK                         _______ _______ _______ _____ _____    ______ ____
ROOT
ATOM      1  N   UNL     1       2.641   7.880  17.625  0.00  0.00    +0.000 N 
ATOM      2  C   UNL     1       1.847   8.586  18.489  0.00  0.00    +0.000 C 
ATOM      3  O   UNL     1       1.687   8.266  19.662  0.00  0.00    +0.000 OA
ATOM      4  N   UNL     1       1.260   9.678  17.911  0.00  0.00    +0.000 N 
ATOM      5  H   UNL     1       2.439   7.984  16.638  0.00  0.00    +0.000 HD
ATOM      6  H   UNL     1       1.760  10.098  17.139  0.00  0.00    +0.000 HD
ENDROOT
BRANCH   1   7
ATOM      7  C   UNL     1       3.231   6.594  18.041  0.00  0.00    +0.000 C 
BRANCH   7   8
ATOM      8  C   UNL     1       4.511   6.377  17.197  0.00  0.00    +0.000 C 
ATOM      9  O   UNL     1       4.606   6.836  16.057  0.00  0.00    +0.000 OA
ATOM     10  N   UNL     1       5.586   5.757  17.811  0.00  0.00    +0.000 N 
ATOM     11  C   UNL     1       5.657   5.204  19.150  0.00  0.00    +0.000 C 
ATOM     12  C   UNL     1       7.072   5.556  19.574  0.00  0.00    +0.000 C 
ATOM     13  C   UNL     1       7.875   5.351  18.293  0.00  0.00    +0.000 C 
ATOM     14  C   UNL     1       6.887   5.663  17.165  0.00  0.00    +0.000 C 
ENDBRANCH   7   8
BRANCH   7  15
ATOM     15  C   UNL     1       2.190   5.469  17.868  0.00  0.00    +0.000 C 
BRANCH  15  16
ATOM     16  C   UNL     1       2.402   4.287  18.819  0.00  0.00    +0.000 C 
BRANCH  16  18
ATOM     17  C   UNL     1       3.707   1.826  18.843  0.00  0.00    +0.000 C 
ATOM     18  S   UNL     1       2.529   2.752  17.830  0.00  0.00    +0.000 S 
ENDBRANCH  16  18
ENDBRANCH  15  16
ENDBRANCH   7  15
ENDBRANCH   1   7
BRANCH   4  19
ATOM     19  C   UNL     1       0.476  10.579  18.735  0.00  0.00    +0.000 C 
BRANCH  19  20
ATOM     20  C   UNL     1      -0.946  10.727  18.257  0.00  0.00    +0.000 A 
ATOM     21  C   UNL     1      -1.439   9.902  17.239  0.00  0.00    +0.000 A 
ATOM     22  C   UNL     1      -2.773   9.996  16.824  0.00  0.00    +0.000 A 
ATOM     23  C   UNL     1      -3.656  10.879  17.449  0.00  0.00    +0.000 A 
ATOM     24  C   UNL     1      -3.155  11.735  18.431  0.00  0.00    +0.000 A 
ATOM     25  C   UNL     1      -1.820  11.648  18.849  0.00  0.00    +0.000 A 
BRANCH  23  26
ATOM     26  N   UNL     1      -4.951  11.058  16.946  0.00  0.00    +0.000 N 
ATOM     27  H   UNL     1      -4.978  11.535  16.050  0.00  0.00    +0.000 HD
ATOM     28  H   UNL     1      -5.514  10.214  16.949  0.00  0.00    +0.000 HD
ENDBRANCH  23  26
ENDBRANCH  19  20
ENDBRANCH   4  19
TORSDOF 8
ENDMDL
MODEL 6
REMARK VINA RESULT:      -6.7      4.044      8.394
REMARK  Name = 
REMARK  9 active torsions:
REMARK  status: ('A' for Active; 'I' for Inactive)
REMARK    1  A    between atoms: C_1  and  S_2
REMARK    2  A    between atoms: S_2  and  C_3
REMARK    3  A    between atoms: C_3  and  C_4
REMARK    4  A    between atoms: C_4  and  C_5
REMARK    5  A    between atoms: C_5  and  N_6
REMARK    6  A    between atoms: C_5  and  C_18
REMARK    7  A    between atoms: N_9  and  C_10
REMARK    8  A    between atoms: C_10  and  C_11
REMARK    9  A    between atoms: C_14  and  N_15
REMARK                            x       y       z     vdW  Elec       q    Type
REMARK                         _______ _______ _______ _____ _____    ______ ____
ROOT
ATOM      1  N   UNL     1       1.057   9.558  19.238  0.00  0.00    +0.000 N 
ATOM      2  C   UNL     1       1.882   8.991  18.304  0.00  0.00    +0.000 C 
ATOM      3  O   UNL     1       2.256   9.582  17.296  0.00  0.00    +0.000 OA
ATOM      4  N   UNL     1       2.245   7.709  18.612  0.00  0.00    +0.000 N 
ATOM      5  H   UNL     1       0.524   8.920  19.816  0.00  0.00    +0.000 HD
ATOM      6  H   UNL     1       2.268   7.476  19.596  0.00  0.00    +0.000 HD
ENDROOT
BRANCH   1   7
ATOM      7  C   UNL     1       0.453  10.880  18.990  0.00  0.00    +0.000 C 
BRANCH   7   8
ATOM      8  C   UNL     1       0.993  11.847  20.073  0.00  0.00    +0.000 C 
ATOM      9  O   UNL     1       0.891  11.579  21.272  0.00  0.00    +0.000 OA
ATOM     10  N   UNL     1       1.701  12.957  19.645  0.00  0.00    +0.000 N 
ATOM     11  C   UNL     1       1.953  13.390  18.283  0.00  0.00    +0.000 C 
ATOM     12  C   UNL     1       3.370  13.927  18.368  0.00  0.00    +0.000 C 
ATOM     13  C   UNL     1       3.395  14.619  19.728  0.00  0.00    +0.000 C 
ATOM     14  C   UNL     1       2.397  13.829  20.580  0.00  0.00    +0.000 C 
ENDBRANCH   7   8
BRANCH   7  15
ATOM     15  C   UNL     1      -1.084  10.755  18.999  0.00  0.00    +0.000 C 
BRANCH  15  16
ATOM     16  C   UNL     1      -1.649  10.052  17.760  0.00  0.00    +0.000 C 
BRANCH  16  18
ATOM     17  C   UNL     1      -3.020  10.938  15.503  0.00  0.00    +0.000 C 
ATOM     18  S   UNL     1      -3.228  10.855  17.297  0.00  0.00    +0.000 S 
ENDBRANCH  16  18
ENDBRANCH  15  16
ENDBRANCH   7  15
ENDBRANCH   1   7
BRANCH   4  19
ATOM     19  C   UNL     1       3.201   7.020  17.765  0.00  0.00    +0.000 C 
BRANCH  19  20
ATOM     20  C   UNL     1       3.144   5.521  17.912  0.00  0.00    +0.000 A 
ATOM     21  C   UNL     1       1.910   4.864  17.986  0.00  0.00    +0.000 A 
ATOM     22  C   UNL     1       1.846   3.468  18.068  0.00  0.00    +0.000 A 
ATOM     23  C   UNL     1       3.008   2.694  18.030  0.00  0.00    +0.000 A 
ATOM     24  C   UNL     1       4.240   3.350  18.004  0.00  0.00    +0.000 A 
ATOM     25  C   UNL     1       4.312   4.747  17.924  0.00  0.00    +0.000 A 
BRANCH  23  26
ATOM     26  N   UNL     1       2.945   1.311  18.241  0.00  0.00    +0.000 N 
ATOM     27  H   UNL     1       2.000   0.941  18.234  0.00  0.00    +0.000 HD
ATOM     28  H   UNL     1       3.572   0.776  17.649  0.00  0.00    +0.000 HD
ENDBRANCH  23  26
ENDBRANCH  19  20
ENDBRANCH   4  19
TORSDOF 8
ENDMDL
MODEL 7
REMARK VINA RESULT:      -6.6      2.821      4.736
REMARK  Name = 
REMARK  9 active torsions:
REMARK  status: ('A' for Active; 'I' for Inactive)
REMARK    1  A    between atoms: C_1  and  S_2
REMARK    2  A    between atoms: S_2  and  C_3
REMARK    3  A    between atoms: C_3  and  C_4
REMARK    4  A    between atoms: C_4  and  C_5
REMARK    5  A    between atoms: C_5  and  N_6
REMARK    6  A    between atoms: C_5  and  C_18
REMARK    7  A    between atoms: N_9  and  C_10
REMARK    8  A    between atoms: C_10  and  C_11
REMARK    9  A    between atoms: C_14  and  N_15
REMARK                            x       y       z     vdW  Elec       q    Type
REMARK                         _______ _______ _______ _____ _____    ______ ____
ROOT
ATOM      1  N   UNL     1       2.886   6.815  18.067  0.00  0.00    +0.000 N 
ATOM      2  C   UNL     1       2.286   7.727  18.892  0.00  0.00    +0.000 C 
ATOM      3  O   UNL     1       2.131   7.541  20.095  0.00  0.00    +0.000 OA
ATOM      4  N   UNL     1       1.885   8.861  18.241  0.00  0.00    +0.000 N 
ATOM      5  H   UNL     1       2.655   6.875  17.083  0.00  0.00    +0.000 HD
ATOM      6  H   UNL     1       2.413   9.113  17.416  0.00  0.00    +0.000 HD
ENDROOT
BRANCH   1   7
ATOM      7  C   UNL     1       3.245   5.478  18.576  0.00  0.00    +0.000 C 
BRANCH   7   8
ATOM      8  C   UNL     1       4.791   5.399  18.620  0.00  0.00    +0.000 C 
ATOM      9  O   UNL     1       5.393   5.305  19.691  0.00  0.00    +0.000 OA
ATOM     10  N   UNL     1       5.462   5.314  17.411  0.00  0.00    +0.000 N 
ATOM     11  C   UNL     1       4.908   5.361  16.072  0.00  0.00    +0.000 C 
ATOM     12  C   UNL     1       5.768   4.356  15.327  0.00  0.00    +0.000 C 
ATOM     13  C   UNL     1       7.157   4.591  15.913  0.00  0.00    +0.000 C 
ATOM     14  C   UNL     1       6.895   5.060  17.347  0.00  0.00    +0.000 C 
ENDBRANCH   7   8
BRANCH   7  15
ATOM     15  C   UNL     1       2.606   4.397  17.682  0.00  0.00    +0.000 C 
BRANCH  15  16
ATOM     16  C   UNL     1       2.741   2.978  18.244  0.00  0.00    +0.000 C 
BRANCH  16  18
ATOM     17  C   UNL     1       1.109   3.215  20.489  0.00  0.00    +0.000 C 
ATOM     18  S   UNL     1       1.106   2.431  18.860  0.00  0.00    +0.000 S 
ENDBRANCH  16  18
ENDBRANCH  15  16
ENDBRANCH   7  15
ENDBRANCH   1   7
BRANCH   4  19
ATOM     19  C   UNL     1       1.329   9.960  19.009  0.00  0.00    +0.000 C 
BRANCH  19  20
ATOM     20  C   UNL     1      -0.009  10.423  18.489  0.00  0.00    +0.000 A 
ATOM     21  C   UNL     1      -0.508  11.682  18.842  0.00  0.00    +0.000 A 
ATOM     22  C   UNL     1      -1.724  12.141  18.322  0.00  0.00    +0.000 A 
ATOM     23  C   UNL     1      -2.444  11.377  17.402  0.00  0.00    +0.000 A 
ATOM     24  C   UNL     1      -1.971  10.102  17.085  0.00  0.00    +0.000 A 
ATOM     25  C   UNL     1      -0.756   9.635  17.604  0.00  0.00    +0.000 A 
BRANCH  23  26
ATOM     26  N   UNL     1      -3.718  11.784  16.985  0.00  0.00    +0.000 N 
ATOM     27  H   UNL     1      -4.456  11.135  17.238  0.00  0.00    +0.000 HD
ATOM     28  H   UNL     1      -3.945  12.741  17.234  0.00  0.00    +0.000 HD
ENDBRANCH  23  26
ENDBRANCH  19  20
ENDBRANCH   4  19
TORSDOF 8
ENDMDL
MODEL 8
REMARK VINA RESULT:      -6.6      2.426      3.240
REMARK  Name = 
REMARK  9 active torsions:
REMARK  status: ('A' for Active; 'I' for Inactive)
REMARK    1  A    between atoms: C_1  and  S_2
REMARK    2  A    between atoms: S_2  and  C_3
REMARK    3  A    between atoms: C_3  and  C_4
REMARK    4  A    between atoms: C_4  and  C_5
REMARK    5  A    between atoms: C_5  and  N_6
REMARK    6  A    between atoms: C_5  and  C_18
REMARK    7  A    between atoms: N_9  and  C_10
REMARK    8  A    between atoms: C_10  and  C_11
REMARK    9  A    between atoms: C_14  and  N_15
REMARK                            x       y       z     vdW  Elec       q    Type
REMARK                         _______ _______ _______ _____ _____    ______ ____
ROOT
ATOM      1  N   UNL     1       2.160   6.886  18.711  0.00  0.00    +0.000 N 
ATOM      2  C   UNL     1       2.173   8.157  18.201  0.00  0.00    +0.000 C 
ATOM      3  O   UNL     1       2.668   8.437  17.114  0.00  0.00    +0.000 OA
ATOM      4  N   UNL     1       1.575   9.073  19.023  0.00  0.00    +0.000 N 
ATOM      5  H   UNL     1       2.074   6.803  19.716  0.00  0.00    +0.000 HD
ATOM      6  H   UNL     1       0.850   8.719  19.633  0.00  0.00    +0.000 HD
ENDROOT
BRANCH   1   7
ATOM      7  C   UNL     1       2.891   5.805  18.024  0.00  0.00    +0.000 C 
BRANCH   7   8
ATOM      8  C   UNL     1       2.069   4.504  18.204  0.00  0.00    +0.000 C 
ATOM      9  O   UNL     1       1.816   3.774  17.243  0.00  0.00    +0.000 OA
ATOM     10  N   UNL     1       1.735   4.131  19.494  0.00  0.00    +0.000 N 
ATOM     11  C   UNL     1       1.996   4.844  20.731  0.00  0.00    +0.000 C 
ATOM     12  C   UNL     1       2.314   3.717  21.697  0.00  0.00    +0.000 C 
ATOM     13  C   UNL     1       1.333   2.624  21.285  0.00  0.00    +0.000 C 
ATOM     14  C   UNL     1       1.120   2.843  19.784  0.00  0.00    +0.000 C 
ENDBRANCH   7   8
BRANCH   7  15
ATOM     15  C   UNL     1       4.320   5.704  18.594  0.00  0.00    +0.000 C 
BRANCH  15  16
ATOM     16  C   UNL     1       5.412   6.028  17.569  0.00  0.00    +0.000 C 
BRANCH  16  18
ATOM     17  C   UNL     1       7.707   5.784  19.131  0.00  0.00    +0.000 C 
ATOM     18  S   UNL     1       6.822   4.889  17.832  0.00  0.00    +0.000 S 
ENDBRANCH  16  18
ENDBRANCH  15  16
ENDBRANCH   7  15
ENDBRANCH   1   7
BRANCH   4  19
ATOM     19  C   UNL     1       1.421  10.441  18.565  0.00  0.00    +0.000 C 
BRANCH  19  20
ATOM     20  C   UNL     1      -0.014  10.904  18.570  0.00  0.00    +0.000 A 
ATOM     21  C   UNL     1      -1.007  10.137  17.949  0.00  0.00    +0.000 A 
ATOM     22  C   UNL     1      -2.349  10.532  17.995  0.00  0.00    +0.000 A 
ATOM     23  C   UNL     1      -2.737  11.673  18.701  0.00  0.00    +0.000 A 
ATOM     24  C   UNL     1      -1.742  12.464  19.280  0.00  0.00    +0.000 A 
ATOM     25  C   UNL     1      -0.397  12.075  19.236  0.00  0.00    +0.000 A 
BRANCH  23  26
ATOM     26  N   UNL     1      -4.059  12.132  18.635  0.00  0.00    +0.000 N 
ATOM     27  H   UNL     1      -4.653  11.575  18.029  0.00  0.00    +0.000 HD
ATOM     28  H   UNL     1      -4.482  12.295  19.543  0.00  0.00    +0.000 HD
ENDBRANCH  23  26
ENDBRANCH  19  20
ENDBRANCH   4  19
TORSDOF 8
ENDMDL
MODEL 9
REMARK VINA RESULT:      -6.6      2.777      4.490
REMARK  Name = 
REMARK  9 active torsions:
REMARK  status: ('A' for Active; 'I' for Inactive)
REMARK    1  A    between atoms: C_1  and  S_2
REMARK    2  A    between atoms: S_2  and  C_3
REMARK    3  A    between atoms: C_3  and  C_4
REMARK    4  A    between atoms: C_4  and  C_5
REMARK    5  A    between atoms: C_5  and  N_6
REMARK    6  A    between atoms: C_5  and  C_18
REMARK    7  A    between atoms: N_9  and  C_10
REMARK    8  A    between atoms: C_10  and  C_11
REMARK    9  A    between atoms: C_14  and  N_15
REMARK                            x       y       z     vdW  Elec       q    Type
REMARK                         _______ _______ _______ _____ _____    ______ ____
ROOT
ATOM      1  N   UNL     1       2.814   6.879  18.209  0.00  0.00    +0.000 N 
ATOM      2  C   UNL     1       2.161   7.734  19.056  0.00  0.00    +0.000 C 
ATOM      3  O   UNL     1       1.936   7.468  20.232  0.00  0.00    +0.000 OA
ATOM      4  N   UNL     1       1.795   8.909  18.458  0.00  0.00    +0.000 N 
ATOM      5  H   UNL     1       2.641   7.004  17.219  0.00  0.00    +0.000 HD
ATOM      6  H   UNL     1       2.370   9.214  17.685  0.00  0.00    +0.000 HD
ENDROOT
BRANCH   1   7
ATOM      7  C   UNL     1       3.147   5.511  18.648  0.00  0.00    +0.000 C 
BRANCH   7   8
ATOM      8  C   UNL     1       4.692   5.407  18.705  0.00  0.00    +0.000 C 
ATOM      9  O   UNL     1       5.285   5.336  19.784  0.00  0.00    +0.000 OA
ATOM     10  N   UNL     1       5.369   5.273  17.505  0.00  0.00    +0.000 N 
ATOM     11  C   UNL     1       4.824   5.287  16.161  0.00  0.00    +0.000 C 
ATOM     12  C   UNL     1       5.672   4.245  15.453  0.00  0.00    +0.000 C 
ATOM     13  C   UNL     1       7.061   4.475  16.042  0.00  0.00    +0.000 C 
ATOM     14  C   UNL     1       6.797   4.993  17.459  0.00  0.00    +0.000 C 
ENDBRANCH   7   8
BRANCH   7  15
ATOM     15  C   UNL     1       2.504   4.489  17.689  0.00  0.00    +0.000 C 
BRANCH  15  16
ATOM     16  C   UNL     1       1.417   3.633  18.346  0.00  0.00    +0.000 C 
BRANCH  16  18
ATOM     17  C   UNL     1       3.473   1.767  18.120  0.00  0.00    +0.000 C 
ATOM     18  S   UNL     1       2.221   2.300  19.310  0.00  0.00    +0.000 S 
ENDBRANCH  16  18
ENDBRANCH  15  16
ENDBRANCH   7  15
ENDBRANCH   1   7
BRANCH   4  19
ATOM     19  C   UNL     1       1.190   9.954  19.263  0.00  0.00    +0.000 C 
BRANCH  19  20
ATOM     20  C   UNL     1      -0.107  10.463  18.687  0.00  0.00    +0.000 A 
ATOM     21  C   UNL     1      -0.746   9.764  17.656  0.00  0.00    +0.000 A 
ATOM     22  C   UNL     1      -1.977  10.200  17.151  0.00  0.00    +0.000 A 
ATOM     23  C   UNL     1      -2.620  11.313  17.695  0.00  0.00    +0.000 A 
ATOM     24  C   UNL     1      -1.963  12.038  18.691  0.00  0.00    +0.000 A 
ATOM     25  C   UNL     1      -0.729  11.609  19.199  0.00  0.00    +0.000 A 
BRANCH  23  26
ATOM     26  N   UNL     1      -3.785  11.818  17.103  0.00  0.00    +0.000 N 
ATOM     27  H   UNL     1      -3.752  12.816  16.925  0.00  0.00    +0.000 HD
ATOM     28  H   UNL     1      -4.094  11.293  16.291  0.00  0.00    +0.000 HD
ENDBRANCH  23  26
ENDBRANCH  19  20
ENDBRANCH   4  19
TORSDOF 8
ENDMDL
