MODEL 1
REMARK VINA RESULT:      -7.4      0.000      0.000
REMARK  Name = 
REMARK  7 active torsions:
REMARK  status: ('A' for Active; 'I' for Inactive)
REMARK    1  A    between atoms: C_1  and  C_2
REMARK    2  A    between atoms: C_5  and  O_6
REMARK    3  A    between atoms: O_6  and  C_7
REMARK    4  A    between atoms: C_7  and  C_8
REMARK    5  A    between atoms: C_8  and  S_10
REMARK    6  A    between atoms: S_10  and  C_11
REMARK    7  A    between atoms: C_14  and  C_15
REMARK                            x       y       z     vdW  Elec       q    Type
REMARK                         _______ _______ _______ _____ _____    ______ ____
ROOT
ATOM      1  C   UNL     1       7.349   5.092  17.637  0.00  0.00    +0.000 C 
ATOM      2  O   UNL     1       8.201   4.217  17.524  0.00  0.00    +0.000 OA
ENDROOT
BRANCH   1   3
ATOM      3  C   UNL     1       6.949   6.032  16.510  0.00  0.00    +0.000 C 
BRANCH   3   4
ATOM      4  O   UNL     1       7.638   5.614  15.339  0.00  0.00    +0.000 OA
BRANCH   4   9
ATOM      5  C   UNL     1       4.990   2.674  11.272  0.00  0.00    +0.000 C 
ATOM      6  C   UNL     1       5.657   3.473  12.353  0.00  0.00    +0.000 A 
ATOM      7  C   UNL     1       6.917   4.044  12.151  0.00  0.00    +0.000 A 
ATOM      8  C   UNL     1       7.536   4.764  13.174  0.00  0.00    +0.000 A 
ATOM      9  C   UNL     1       6.904   4.937  14.406  0.00  0.00    +0.000 A 
ATOM     10  C   UNL     1       5.648   4.372  14.616  0.00  0.00    +0.000 A 
ATOM     11  C   UNL     1       5.029   3.641  13.593  0.00  0.00    +0.000 A 
ENDBRANCH   4   9
ENDBRANCH   3   4
ENDBRANCH   1   3
BRANCH   1  12
ATOM     12  S   UNL     1       6.523   5.398  19.163  0.00  0.00    +0.000 S 
BRANCH  12  13
ATOM     13  C   UNL     1       4.874   4.745  18.954  0.00  0.00    +0.000 A 
ATOM     14  C   UNL     1       3.760   5.485  18.553  0.00  0.00    +0.000 A 
ATOM     15  C   UNL     1       2.502   4.875  18.429  0.00  0.00    +0.000 A 
ATOM     16  C   UNL     1       2.335   3.516  18.708  0.00  0.00    +0.000 A 
ATOM     17  C   UNL     1       0.992   2.859  18.581  0.00  0.00    +0.000 C 
ATOM     18  C   UNL     1       3.446   2.771  19.110  0.00  0.00    +0.000 A 
ATOM     19  C   UNL     1       4.700   3.380  19.230  0.00  0.00    +0.000 A 
ENDBRANCH  12  13
ENDBRANCH   1  12
TORSDOF 5
ENDMDL
MODEL 2
REMARK VINA RESULT:      -7.1      3.035      6.076
REMARK  Name = 
REMARK  7 active torsions:
REMARK  status: ('A' for Active; 'I' for Inactive)
REMARK    1  A    between atoms: C_1  and  C_2
REMARK    2  A    between atoms: C_5  and  O_6
REMARK    3  A    between atoms: O_6  and  C_7
REMARK    4  A    between atoms: C_7  and  C_8
REMARK    5  A    between atoms: C_8  and  S_10
REMARK    6  A    between atoms: S_10  and  C_11
REMARK    7  A    between atoms: C_14  and  C_15
REMARK                            x       y       z     vdW  Elec       q    Type
REMARK                         _______ _______ _______ _____ _____    ______ ____
ROOT
ATOM      1  C   UNL     1       5.057   5.836  16.184  0.00  0.00    +0.000 C 
ATOM      2  O   UNL     1       5.343   6.334  15.099  0.00  0.00    +0.000 OA
ENDROOT
BRANCH   1   3
ATOM      3  C   UNL     1       4.675   6.647  17.411  0.00  0.00    +0.000 C 
BRANCH   3   4
ATOM      4  O   UNL     1       3.388   7.204  17.172  0.00  0.00    +0.000 OA
BRANCH   4   9
ATOM      5  C   UNL     1       0.256   9.258  21.434  0.00  0.00    +0.000 C 
ATOM      6  C   UNL     1       1.113   8.707  20.333  0.00  0.00    +0.000 A 
ATOM      7  C   UNL     1       1.310   9.423  19.149  0.00  0.00    +0.000 A 
ATOM      8  C   UNL     1       2.091   8.887  18.123  0.00  0.00    +0.000 A 
ATOM      9  C   UNL     1       2.697   7.638  18.268  0.00  0.00    +0.000 A 
ATOM     10  C   UNL     1       2.507   6.917  19.445  0.00  0.00    +0.000 A 
ATOM     11  C   UNL     1       1.716   7.450  20.472  0.00  0.00    +0.000 A 
ENDBRANCH   4   9
ENDBRANCH   3   4
ENDBRANCH   1   3
BRANCH   1  12
ATOM     12  S   UNL     1       5.118   4.096  16.455  0.00  0.00    +0.000 S 
BRANCH  12  13
ATOM     13  C   UNL     1       3.872   3.761  17.689  0.00  0.00    +0.000 A 
ATOM     14  C   UNL     1       2.494   3.764  17.463  0.00  0.00    +0.000 A 
ATOM     15  C   UNL     1       1.596   3.496  18.508  0.00  0.00    +0.000 A 
ATOM     16  C   UNL     1       2.060   3.225  19.799  0.00  0.00    +0.000 A 
ATOM     17  C   UNL     1       1.106   2.941  20.921  0.00  0.00    +0.000 C 
ATOM     18  C   UNL     1       3.438   3.221  20.031  0.00  0.00    +0.000 A 
ATOM     19  C   UNL     1       4.331   3.486  18.987  0.00  0.00    +0.000 A 
ENDBRANCH  12  13
ENDBRANCH   1  12
TORSDOF 5
ENDMDL
MODEL 3
REMARK VINA RESULT:      -7.1      3.760      6.383
REMARK  Name = 
REMARK  7 active torsions:
REMARK  status: ('A' for Active; 'I' for Inactive)
REMARK    1  A    between atoms: C_1  and  C_2
REMARK    2  A    between atoms: C_5  and  O_6
REMARK    3  A    between atoms: O_6  and  C_7
REMARK    4  A    between atoms: C_7  and  C_8
REMARK    5  A    between atoms: C_8  and  S_10
REMARK    6  A    between atoms: S_10  and  C_11
REMARK    7  A    between atoms: C_14  and  C_15
REMARK                            x       y       z     vdW  Elec       q    Type
REMARK                         _______ _______ _______ _____ _____    ______ ____
ROOT
ATOM      1  C   UNL     1       2.851   2.263  20.440  0.00  0.00    +0.000 C 
ATOM      2  O   UNL     1       3.352   2.378  21.555  0.00  0.00    +0.000 OA
ENDROOT
BRANCH   1   3
ATOM      3  C   UNL     1       1.372   2.469  20.154  0.00  0.00    +0.000 C 
BRANCH   3   4
ATOM      4  O   UNL     1       1.019   3.762  20.633  0.00  0.00    +0.000 OA
BRANCH   4   9
ATOM      5  C   UNL     1       2.878   8.299  17.779  0.00  0.00    +0.000 C 
ATOM      6  C   UNL     1       2.355   7.099  18.510  0.00  0.00    +0.000 A 
ATOM      7  C   UNL     1       2.305   7.074  19.906  0.00  0.00    +0.000 A 
ATOM      8  C   UNL     1       1.837   5.940  20.574  0.00  0.00    +0.000 A 
ATOM      9  C   UNL     1       1.400   4.823  19.861  0.00  0.00    +0.000 A 
ATOM     10  C   UNL     1       1.446   4.839  18.469  0.00  0.00    +0.000 A 
ATOM     11  C   UNL     1       1.923   5.973  17.797  0.00  0.00    +0.000 A 
ENDBRANCH   4   9
ENDBRANCH   3   4
ENDBRANCH   1   3
BRANCH   1  12
ATOM     12  S   UNL     1       3.800   1.782  19.036  0.00  0.00    +0.000 S 
BRANCH  12  13
ATOM     13  C   UNL     1       4.507   3.292  18.397  0.00  0.00    +0.000 A 
ATOM     14  C   UNL     1       4.579   3.638  17.046  0.00  0.00    +0.000 A 
ATOM     15  C   UNL     1       5.167   4.848  16.647  0.00  0.00    +0.000 A 
ATOM     16  C   UNL     1       5.697   5.732  17.592  0.00  0.00    +0.000 A 
ATOM     17  C   UNL     1       6.329   7.027  17.172  0.00  0.00    +0.000 C 
ATOM     18  C   UNL     1       5.628   5.391  18.944  0.00  0.00    +0.000 A 
ATOM     19  C   UNL     1       5.039   4.185  19.340  0.00  0.00    +0.000 A 
ENDBRANCH  12  13
ENDBRANCH   1  12
TORSDOF 5
ENDMDL
MODEL 4
REMARK VINA RESULT:      -7.0      0.749      1.413
REMARK  Name = 
REMARK  7 active torsions:
REMARK  status: ('A' for Active; 'I' for Inactive)
REMARK    1  A    between atoms: C_1  and  C_2
REMARK    2  A    between atoms: C_5  and  O_6
REMARK    3  A    between atoms: O_6  and  C_7
REMARK    4  A    between atoms: C_7  and  C_8
REMARK    5  A    between atoms: C_8  and  S_10
REMARK    6  A    between atoms: S_10  and  C_11
REMARK    7  A    between atoms: C_14  and  C_15
REMARK                            x       y       z     vdW  Elec       q    Type
REMARK                         _______ _______ _______ _____ _____    ______ ____
ROOT
ATOM      1  C   UNL     1       6.968   5.992  17.618  0.00  0.00    +0.000 C 
ATOM      2  O   UNL     1       6.920   7.183  17.324  0.00  0.00    +0.000 OA
ENDROOT
BRANCH   1   3
ATOM      3  C   UNL     1       7.430   4.905  16.661  0.00  0.00    +0.000 C 
BRANCH   3   4
ATOM      4  O   UNL     1       7.551   5.492  15.371  0.00  0.00    +0.000 OA
BRANCH   4   9
ATOM      5  C   UNL     1       4.692   2.837  11.253  0.00  0.00    +0.000 C 
ATOM      6  C   UNL     1       5.479   3.516  12.334  0.00  0.00    +0.000 A 
ATOM      7  C   UNL     1       4.939   3.696  13.611  0.00  0.00    +0.000 A 
ATOM      8  C   UNL     1       5.675   4.351  14.600  0.00  0.00    +0.000 A 
ATOM      9  C   UNL     1       6.962   4.823  14.337  0.00  0.00    +0.000 A 
ATOM     10  C   UNL     1       7.508   4.647  13.067  0.00  0.00    +0.000 A 
ATOM     11  C   UNL     1       6.767   3.997  12.070  0.00  0.00    +0.000 A 
ENDBRANCH   4   9
ENDBRANCH   3   4
ENDBRANCH   1   3
BRANCH   1  12
ATOM     12  S   UNL     1       6.444   5.398  19.191  0.00  0.00    +0.000 S 
BRANCH  12  13
ATOM     13  C   UNL     1       4.850   4.643  18.911  0.00  0.00    +0.000 A 
ATOM     14  C   UNL     1       3.884   5.110  18.016  0.00  0.00    +0.000 A 
ATOM     15  C   UNL     1       2.656   4.446  17.879  0.00  0.00    +0.000 A 
ATOM     16  C   UNL     1       2.369   3.306  18.635  0.00  0.00    +0.000 A 
ATOM     17  C   UNL     1       1.057   2.593  18.495  0.00  0.00    +0.000 C 
ATOM     18  C   UNL     1       3.331   2.835  19.532  0.00  0.00    +0.000 A 
ATOM     19  C   UNL     1       4.556   3.497  19.666  0.00  0.00    +0.000 A 
ENDBRANCH  12  13
ENDBRANCH   1  12
TORSDOF 5
ENDMDL
MODEL 5
REMARK VINA RESULT:      -7.0      3.691      6.337
REMARK  Name = 
REMARK  7 active torsions:
REMARK  status: ('A' for Active; 'I' for Inactive)
REMARK    1  A    between atoms: C_1  and  C_2
REMARK    2  A    between atoms: C_5  and  O_6
REMARK    3  A    between atoms: O_6  and  C_7
REMARK    4  A    between atoms: C_7  and  C_8
REMARK    5  A    between atoms: C_8  and  S_10
REMARK    6  A    between atoms: S_10  and  C_11
REMARK    7  A    between atoms: C_14  and  C_15
REMARK                            x       y       z     vdW  Elec       q    Type
REMARK                         _______ _______ _______ _____ _____    ______ ____
ROOT
ATOM      1  C   UNL     1       2.762   2.254  20.109  0.00  0.00    +0.000 C 
ATOM      2  O   UNL     1       3.224   2.334  21.244  0.00  0.00    +0.000 OA
ENDROOT
BRANCH   1   3
ATOM      3  C   UNL     1       1.293   2.464  19.779  0.00  0.00    +0.000 C 
BRANCH   3   4
ATOM      4  O   UNL     1       0.895   3.698  20.365  0.00  0.00    +0.000 OA
BRANCH   4   9
ATOM      5  C   UNL     1       2.876   8.328  17.753  0.00  0.00    +0.000 C 
ATOM      6  C   UNL     1       2.384   7.104  18.467  0.00  0.00    +0.000 A 
ATOM      7  C   UNL     1       1.948   5.984  17.755  0.00  0.00    +0.000 A 
ATOM      8  C   UNL     1       1.470   4.860  18.432  0.00  0.00    +0.000 A 
ATOM      9  C   UNL     1       1.434   4.832  19.827  0.00  0.00    +0.000 A 
ATOM     10  C   UNL     1       1.868   5.944  20.545  0.00  0.00    +0.000 A 
ATOM     11  C   UNL     1       2.339   7.076  19.866  0.00  0.00    +0.000 A 
ENDBRANCH   4   9
ENDBRANCH   3   4
ENDBRANCH   1   3
BRANCH   1  12
ATOM     12  S   UNL     1       3.762   1.823  18.725  0.00  0.00    +0.000 S 
BRANCH  12  13
ATOM     13  C   UNL     1       4.527   3.347  18.194  0.00  0.00    +0.000 A 
ATOM     14  C   UNL     1       4.661   3.761  16.867  0.00  0.00    +0.000 A 
ATOM     15  C   UNL     1       5.290   4.976  16.555  0.00  0.00    +0.000 A 
ATOM     16  C   UNL     1       5.800   5.797  17.565  0.00  0.00    +0.000 A 
ATOM     17  C   UNL     1       6.476   7.096  17.239  0.00  0.00    +0.000 C 
ATOM     18  C   UNL     1       5.669   5.388  18.894  0.00  0.00    +0.000 A 
ATOM     19  C   UNL     1       5.039   4.177  19.202  0.00  0.00    +0.000 A 
ENDBRANCH  12  13
ENDBRANCH   1  12
TORSDOF 5
ENDMDL
MODEL 6
REMARK VINA RESULT:      -7.0      3.645      6.676
REMARK  Name = 
REMARK  7 active torsions:
REMARK  status: ('A' for Active; 'I' for Inactive)
REMARK    1  A    between atoms: C_1  and  C_2
REMARK    2  A    between atoms: C_5  and  O_6
REMARK    3  A    between atoms: O_6  and  C_7
REMARK    4  A    between atoms: C_7  and  C_8
REMARK    5  A    between atoms: C_8  and  S_10
REMARK    6  A    between atoms: S_10  and  C_11
REMARK    7  A    between atoms: C_14  and  C_15
REMARK                            x       y       z     vdW  Elec       q    Type
REMARK                         _______ _______ _______ _____ _____    ______ ____
ROOT
ATOM      1  C   UNL     1       2.727   3.042  21.076  0.00  0.00    +0.000 C 
ATOM      2  O   UNL     1       2.484   2.751  22.244  0.00  0.00    +0.000 OA
ENDROOT
BRANCH   1   3
ATOM      3  C   UNL     1       1.914   4.041  20.268  0.00  0.00    +0.000 C 
BRANCH   3   4
ATOM      4  O   UNL     1       2.027   5.304  20.912  0.00  0.00    +0.000 OA
BRANCH   4   9
ATOM      5  C   UNL     1       1.755  10.145  17.966  0.00  0.00    +0.000 C 
ATOM      6  C   UNL     1       1.807   8.847  18.715  0.00  0.00    +0.000 A 
ATOM      7  C   UNL     1       1.421   8.776  20.056  0.00  0.00    +0.000 A 
ATOM      8  C   UNL     1       1.498   7.565  20.748  0.00  0.00    +0.000 A 
ATOM      9  C   UNL     1       1.947   6.408  20.111  0.00  0.00    +0.000 A 
ATOM     10  C   UNL     1       2.334   6.470  18.774  0.00  0.00    +0.000 A 
ATOM     11  C   UNL     1       2.265   7.686  18.080  0.00  0.00    +0.000 A 
ENDBRANCH   4   9
ENDBRANCH   3   4
ENDBRANCH   1   3
BRANCH   1  12
ATOM     12  S   UNL     1       4.032   2.274  20.176  0.00  0.00    +0.000 S 
BRANCH  12  13
ATOM     13  C   UNL     1       4.508   3.454  18.923  0.00  0.00    +0.000 A 
ATOM     14  C   UNL     1       5.349   4.549  19.127  0.00  0.00    +0.000 A 
ATOM     15  C   UNL     1       5.652   5.425  18.072  0.00  0.00    +0.000 A 
ATOM     16  C   UNL     1       5.117   5.222  16.797  0.00  0.00    +0.000 A 
ATOM     17  C   UNL     1       5.435   6.156  15.667  0.00  0.00    +0.000 C 
ATOM     18  C   UNL     1       4.275   4.128  16.588  0.00  0.00    +0.000 A 
ATOM     19  C   UNL     1       3.975   3.255  17.639  0.00  0.00    +0.000 A 
ENDBRANCH  12  13
ENDBRANCH   1  12
TORSDOF 5
ENDMDL
MODEL 7
REMARK VINA RESULT:      -6.9      2.931      5.860
REMARK  Name = 
REMARK  7 active torsions:
REMARK  status: ('A' for Active; 'I' for Inactive)
REMARK    1  A    between atoms: C_1  and  C_2
REMARK    2  A    between atoms: C_5  and  O_6
REMARK    3  A    between atoms: O_6  and  C_7
REMARK    4  A    between atoms: C_7  and  C_8
REMARK    5  A    between atoms: C_8  and  S_10
REMARK    6  A    between atoms: S_10  and  C_11
REMARK    7  A    between atoms: C_14  and  C_15
REMARK                            x       y       z     vdW  Elec       q    Type
REMARK                         _______ _______ _______ _____ _____    ______ ____
ROOT
ATOM      1  C   UNL     1       5.576   5.645  16.510  0.00  0.00    +0.000 C 
ATOM      2  O   UNL     1       6.407   6.161  15.768  0.00  0.00    +0.000 OA
ENDROOT
BRANCH   1   3
ATOM      3  C   UNL     1       4.907   6.372  17.665  0.00  0.00    +0.000 C 
BRANCH   3   4
ATOM      4  O   UNL     1       3.853   7.159  17.122  0.00  0.00    +0.000 OA
BRANCH   4   9
ATOM      5  C   UNL     1       0.333   9.041  21.154  0.00  0.00    +0.000 C 
ATOM      6  C   UNL     1       1.235   8.548  20.061  0.00  0.00    +0.000 A 
ATOM      7  C   UNL     1       1.968   7.368  20.213  0.00  0.00    +0.000 A 
ATOM      8  C   UNL     1       2.822   6.934  19.197  0.00  0.00    +0.000 A 
ATOM      9  C   UNL     1       2.946   7.661  18.012  0.00  0.00    +0.000 A 
ATOM     10  C   UNL     1       2.218   8.838  17.852  0.00  0.00    +0.000 A 
ATOM     11  C   UNL     1       1.367   9.280  18.875  0.00  0.00    +0.000 A 
ENDBRANCH   4   9
ENDBRANCH   3   4
ENDBRANCH   1   3
BRANCH   1  12
ATOM     12  S   UNL     1       5.103   3.955  16.347  0.00  0.00    +0.000 S 
BRANCH  12  13
ATOM     13  C   UNL     1       3.865   3.681  17.604  0.00  0.00    +0.000 A 
ATOM     14  C   UNL     1       2.485   3.741  17.402  0.00  0.00    +0.000 A 
ATOM     15  C   UNL     1       1.595   3.519  18.465  0.00  0.00    +0.000 A 
ATOM     16  C   UNL     1       2.070   3.236  19.749  0.00  0.00    +0.000 A 
ATOM     17  C   UNL     1       1.125   3.001  20.889  0.00  0.00    +0.000 C 
ATOM     18  C   UNL     1       3.450   3.175  19.957  0.00  0.00    +0.000 A 
ATOM     19  C   UNL     1       4.335   3.395  18.896  0.00  0.00    +0.000 A 
ENDBRANCH  12  13
ENDBRANCH   1  12
TORSDOF 5
ENDMDL
MODEL 8
REMARK VINA RESULT:      -6.9      1.897      5.426
REMARK  Name = 
REMARK  7 active torsions:
REMARK  status: ('A' for Active; 'I' for Inactive)
REMARK    1  A    between atoms: C_1  and  C_2
REMARK    2  A    between atoms: C_5  and  O_6
REMARK    3  A    between atoms: O_6  and  C_7
REMARK    4  A    between atoms: C_7  and  C_8
REMARK    5  A    between atoms: C_8  and  S_10
REMARK    6  A    between atoms: S_10  and  C_11
REMARK    7  A    between atoms: C_14  and  C_15
REMARK                            x       y       z     vdW  Elec       q    Type
REMARK                         _______ _______ _______ _____ _____    ______ ____
ROOT
ATOM      1  C   UNL     1       7.261   5.673  19.529  0.00  0.00    +0.000 C 
ATOM      2  O   UNL     1       8.083   5.309  20.364  0.00  0.00    +0.000 OA
ENDROOT
BRANCH   1   3
ATOM      3  C   UNL     1       5.792   5.279  19.563  0.00  0.00    +0.000 C 
BRANCH   3   4
ATOM      4  O   UNL     1       5.704   3.920  19.152  0.00  0.00    +0.000 OA
BRANCH   4   9
ATOM      5  C   UNL     1       0.382   2.020  18.637  0.00  0.00    +0.000 C 
ATOM      6  C   UNL     1       1.800   2.499  18.743  0.00  0.00    +0.000 A 
ATOM      7  C   UNL     1       2.455   2.536  19.977  0.00  0.00    +0.000 A 
ATOM      8  C   UNL     1       3.767   3.007  20.064  0.00  0.00    +0.000 A 
ATOM      9  C   UNL     1       4.448   3.433  18.923  0.00  0.00    +0.000 A 
ATOM     10  C   UNL     1       3.803   3.398  17.689  0.00  0.00    +0.000 A 
ATOM     11  C   UNL     1       2.483   2.935  17.601  0.00  0.00    +0.000 A 
ENDBRANCH   4   9
ENDBRANCH   3   4
ENDBRANCH   1   3
BRANCH   1  12
ATOM     12  S   UNL     1       7.714   6.660  18.142  0.00  0.00    +0.000 S 
BRANCH  12  13
ATOM     13  C   UNL     1       6.895   5.920  16.739  0.00  0.00    +0.000 A 
ATOM     14  C   UNL     1       5.754   6.427  16.113  0.00  0.00    +0.000 A 
ATOM     15  C   UNL     1       5.181   5.759  15.019  0.00  0.00    +0.000 A 
ATOM     16  C   UNL     1       5.735   4.571  14.535  0.00  0.00    +0.000 A 
ATOM     17  C   UNL     1       5.126   3.852  13.368  0.00  0.00    +0.000 C 
ATOM     18  C   UNL     1       6.876   4.059  15.157  0.00  0.00    +0.000 A 
ATOM     19  C   UNL     1       7.447   4.727  16.246  0.00  0.00    +0.000 A 
ENDBRANCH  12  13
ENDBRANCH   1  12
TORSDOF 5
ENDMDL
MODEL 9
REMARK VINA RESULT:      -6.9      1.267      5.774
REMARK  Name = 
REMARK  7 active torsions:
REMARK  status: ('A' for Active; 'I' for Inactive)
REMARK    1  A    between atoms: C_1  and  C_2
REMARK    2  A    between atoms: C_5  and  O_6
REMARK    3  A    between atoms: O_6  and  C_7
REMARK    4  A    between atoms: C_7  and  C_8
REMARK    5  A    between atoms: C_8  and  S_10
REMARK    6  A    between atoms: S_10  and  C_11
REMARK    7  A    between atoms: C_14  and  C_15
REMARK                            x       y       z     vdW  Elec       q    Type
REMARK                         _______ _______ _______ _____ _____    ______ ____
ROOT
ATOM      1  C   UNL     1       7.414   5.010  17.905  0.00  0.00    +0.000 C 
ATOM      2  O   UNL     1       8.265   4.136  17.773  0.00  0.00    +0.000 OA
ENDROOT
BRANCH   1   3
ATOM      3  C   UNL     1       6.526   5.146  19.132  0.00  0.00    +0.000 C 
BRANCH   3   4
ATOM      4  O   UNL     1       5.263   5.632  18.694  0.00  0.00    +0.000 OA
BRANCH   4   9
ATOM      5  C   UNL     1       0.640   2.347  18.849  0.00  0.00    +0.000 C 
ATOM      6  C   UNL     1       1.882   3.188  18.829  0.00  0.00    +0.000 A 
ATOM      7  C   UNL     1       1.840   4.540  19.181  0.00  0.00    +0.000 A 
ATOM      8  C   UNL     1       2.999   5.316  19.134  0.00  0.00    +0.000 A 
ATOM      9  C   UNL     1       4.218   4.754  18.751  0.00  0.00    +0.000 A 
ATOM     10  C   UNL     1       4.269   3.407  18.399  0.00  0.00    +0.000 A 
ATOM     11  C   UNL     1       3.104   2.629  18.436  0.00  0.00    +0.000 A 
ENDBRANCH   4   9
ENDBRANCH   3   4
ENDBRANCH   1   3
BRANCH   1  12
ATOM     12  S   UNL     1       7.085   6.189  16.638  0.00  0.00    +0.000 S 
BRANCH  12  13
ATOM     13  C   UNL     1       6.725   5.231  15.175  0.00  0.00    +0.000 A 
ATOM     14  C   UNL     1       7.516   5.191  14.025  0.00  0.00    +0.000 A 
ATOM     15  C   UNL     1       7.136   4.411  12.922  0.00  0.00    +0.000 A 
ATOM     16  C   UNL     1       5.957   3.660  12.948  0.00  0.00    +0.000 A 
ATOM     17  C   UNL     1       5.544   2.826  11.772  0.00  0.00    +0.000 C 
ATOM     18  C   UNL     1       5.162   3.697  14.096  0.00  0.00    +0.000 A 
ATOM     19  C   UNL     1       5.544   4.473  15.195  0.00  0.00    +0.000 A 
ENDBRANCH  12  13
ENDBRANCH   1  12
TORSDOF 5
ENDMDL
