MODEL 1
REMARK VINA RESULT:      -8.2      0.000      0.000
REMARK  Name = 
REMARK  6 active torsions:
REMARK  status: ('A' for Active; 'I' for Inactive)
REMARK    1  A    between atoms: C_1  and  O_2
REMARK    2  A    between atoms: O_2  and  C_3
REMARK    3  A    between atoms: C_6  and  C_7
REMARK    4  A    between atoms: C_13  and  C_14
REMARK    5  A    between atoms: C_25  and  O_26
REMARK    6  A    between atoms: O_26  and  C_27
REMARK                            x       y       z     vdW  Elec       q    Type
REMARK                         _______ _______ _______ _____ _____    ______ ____
ROOT
ATOM      1  C   UNL     1       4.626   3.807  18.903  0.00  0.00    +0.000 C 
ATOM      2  O   UNL     1       4.907   2.680  19.315  0.00  0.00    +0.000 OA
ATOM      3  N   UNL     1       3.687   4.625  19.536  0.00  0.00    +0.000 N 
ATOM      4  C   UNL     1       3.105   4.134  20.783  0.00  0.00    +0.000 C 
ATOM      5  C   UNL     1       1.605   4.398  20.814  0.00  0.00    +0.000 C 
ATOM      6  C   UNL     1       1.289   5.877  20.592  0.00  0.00    +0.000 C 
ATOM      7  C   UNL     1       2.005   6.440  19.345  0.00  0.00    +0.000 C 
ATOM      8  C   UNL     1       3.506   6.067  19.338  0.00  0.00    +0.000 C 
ENDROOT
BRANCH   7   9
ATOM      9  C   UNL     1       1.785   7.934  19.173  0.00  0.00    +0.000 A 
ATOM     10  C   UNL     1       1.935   8.557  17.987  0.00  0.00    +0.000 A 
ATOM     11  C   UNL     1       1.697  10.028  17.983  0.00  0.00    +0.000 A 
ATOM     12  N   UNL     1       1.356  10.757  19.003  0.00  0.00    +0.000 NA
ATOM     13  C   UNL     1       1.210  10.096  20.183  0.00  0.00    +0.000 A 
ATOM     14  N   UNL     1       0.873  10.568  21.364  0.00  0.00    +0.000 NA
ATOM     15  C   UNL     1       0.897   9.470  22.164  0.00  0.00    +0.000 A 
ATOM     16  N   UNL     1       1.231   8.327  21.568  0.00  0.00    +0.000 NA
ATOM     17  N   UNL     1       1.424   8.710  20.287  0.00  0.00    +0.000 N 
ENDBRANCH   7   9
BRANCH   1  21
ATOM     18  C   UNL     1       6.593   5.125  15.324  0.00  0.00    +0.000 A 
ATOM     19  C   UNL     1       5.654   4.081  15.298  0.00  0.00    +0.000 A 
ATOM     20  C   UNL     1       5.029   3.656  16.472  0.00  0.00    +0.000 A 
ATOM     21  C   UNL     1       5.347   4.259  17.689  0.00  0.00    +0.000 A 
ATOM     22  C   UNL     1       6.270   5.305  17.711  0.00  0.00    +0.000 A 
ATOM     23  C   UNL     1       6.950   5.701  16.551  0.00  0.00    +0.000 A 
BRANCH  18  25
ATOM     24  C   UNL     1       7.206   4.618  13.109  0.00  0.00    +0.000 C 
ATOM     25  O   UNL     1       7.158   5.582  14.163  0.00  0.00    +0.000 OA
ENDBRANCH  18  25
BRANCH  23  26
ATOM     26  O   UNL     1       7.895   6.653  16.823  0.00  0.00    +0.000 OA
ATOM     27  C   UNL     1       7.526   7.798  17.574  0.00  0.00    +0.000 C 
ENDBRANCH  23  26
ENDBRANCH   1  21
TORSDOF 4
ENDMDL
MODEL 2
REMARK VINA RESULT:      -7.6      1.276      2.063
REMARK  Name = 
REMARK  6 active torsions:
REMARK  status: ('A' for Active; 'I' for Inactive)
REMARK    1  A    between atoms: C_1  and  O_2
REMARK    2  A    between atoms: O_2  and  C_3
REMARK    3  A    between atoms: C_6  and  C_7
REMARK    4  A    between atoms: C_13  and  C_14
REMARK    5  A    between atoms: C_25  and  O_26
REMARK    6  A    between atoms: O_26  and  C_27
REMARK                            x       y       z     vdW  Elec       q    Type
REMARK                         _______ _______ _______ _____ _____    ______ ____
ROOT
ATOM      1  C   UNL     1       4.208   2.914  18.959  0.00  0.00    +0.000 C 
ATOM      2  O   UNL     1       4.400   1.700  19.056  0.00  0.00    +0.000 OA
ATOM      3  N   UNL     1       3.263   3.588  19.736  0.00  0.00    +0.000 N 
ATOM      4  C   UNL     1       2.560   2.815  20.756  0.00  0.00    +0.000 C 
ATOM      5  C   UNL     1       1.077   3.163  20.765  0.00  0.00    +0.000 C 
ATOM      6  C   UNL     1       0.853   4.664  20.947  0.00  0.00    +0.000 C 
ATOM      7  C   UNL     1       1.692   5.498  19.955  0.00  0.00    +0.000 C 
ATOM      8  C   UNL     1       3.169   5.039  19.938  0.00  0.00    +0.000 C 
ENDROOT
BRANCH   7   9
ATOM      9  C   UNL     1       1.560   6.993  20.195  0.00  0.00    +0.000 A 
ATOM     10  C   UNL     1       1.177   7.506  21.382  0.00  0.00    +0.000 A 
ATOM     11  C   UNL     1       1.082   8.991  21.456  0.00  0.00    +0.000 A 
ATOM     12  N   UNL     1       1.337   9.829  20.496  0.00  0.00    +0.000 NA
ATOM     13  C   UNL     1       1.724   9.278  19.314  0.00  0.00    +0.000 A 
ATOM     14  N   UNL     1       2.046   9.873  18.185  0.00  0.00    +0.000 NA
ATOM     15  C   UNL     1       2.332   8.839  17.352  0.00  0.00    +0.000 A 
ATOM     16  N   UNL     1       2.211   7.622  17.876  0.00  0.00    +0.000 NA
ATOM     17  N   UNL     1       1.832   7.886  19.145  0.00  0.00    +0.000 N 
ENDBRANCH   7   9
BRANCH   1  21
ATOM     18  C   UNL     1       6.516   5.044  16.035  0.00  0.00    +0.000 A 
ATOM     19  C   UNL     1       5.421   4.248  15.662  0.00  0.00    +0.000 A 
ATOM     20  C   UNL     1       4.685   3.553  16.623  0.00  0.00    +0.000 A 
ATOM     21  C   UNL     1       5.045   3.632  17.969  0.00  0.00    +0.000 A 
ATOM     22  C   UNL     1       6.125   4.434  18.339  0.00  0.00    +0.000 A 
ATOM     23  C   UNL     1       6.910   5.088  17.380  0.00  0.00    +0.000 A 
BRANCH  18  25
ATOM     24  C   UNL     1       7.409   5.096  13.858  0.00  0.00    +0.000 C 
ATOM     25  O   UNL     1       7.199   5.775  15.099  0.00  0.00    +0.000 OA
ENDBRANCH  18  25
BRANCH  23  26
ATOM     26  O   UNL     1       7.985   5.712  17.953  0.00  0.00    +0.000 OA
ATOM     27  C   UNL     1       7.999   5.919  19.355  0.00  0.00    +0.000 C 
ENDBRANCH  23  26
ENDBRANCH   1  21
TORSDOF 4
ENDMDL
MODEL 3
REMARK VINA RESULT:      -7.6      1.154      2.759
REMARK  Name = 
REMARK  6 active torsions:
REMARK  status: ('A' for Active; 'I' for Inactive)
REMARK    1  A    between atoms: C_1  and  O_2
REMARK    2  A    between atoms: O_2  and  C_3
REMARK    3  A    between atoms: C_6  and  C_7
REMARK    4  A    between atoms: C_13  and  C_14
REMARK    5  A    between atoms: C_25  and  O_26
REMARK    6  A    between atoms: O_26  and  C_27
REMARK                            x       y       z     vdW  Elec       q    Type
REMARK                         _______ _______ _______ _____ _____    ______ ____
ROOT
ATOM      1  C   UNL     1       4.721   3.811  19.261  0.00  0.00    +0.000 C 
ATOM      2  O   UNL     1       5.099   2.638  19.241  0.00  0.00    +0.000 OA
ATOM      3  N   UNL     1       3.534   4.206  19.883  0.00  0.00    +0.000 N 
ATOM      4  C   UNL     1       2.786   3.183  20.609  0.00  0.00    +0.000 C 
ATOM      5  C   UNL     1       1.295   3.309  20.327  0.00  0.00    +0.000 C 
ATOM      6  C   UNL     1       0.779   4.712  20.646  0.00  0.00    +0.000 C 
ATOM      7  C   UNL     1       1.642   5.809  19.986  0.00  0.00    +0.000 C 
ATOM      8  C   UNL     1       3.149   5.575  20.245  0.00  0.00    +0.000 C 
ENDROOT
BRANCH   7   9
ATOM      9  C   UNL     1       1.204   7.209  20.380  0.00  0.00    +0.000 A 
ATOM     10  C   UNL     1       0.607   7.478  21.560  0.00  0.00    +0.000 A 
ATOM     11  C   UNL     1       0.225   8.898  21.794  0.00  0.00    +0.000 A 
ATOM     12  N   UNL     1       0.416   9.893  20.981  0.00  0.00    +0.000 NA
ATOM     13  C   UNL     1       1.023   9.588  19.803  0.00  0.00    +0.000 A 
ATOM     14  N   UNL     1       1.344  10.382  18.803  0.00  0.00    +0.000 NA
ATOM     15  C   UNL     1       1.908   9.540  17.898  0.00  0.00    +0.000 A 
ATOM     16  N   UNL     1       1.965   8.259  18.256  0.00  0.00    +0.000 NA
ATOM     17  N   UNL     1       1.410   8.273  19.487  0.00  0.00    +0.000 N 
ENDBRANCH   7   9
BRANCH   1  21
ATOM     18  C   UNL     1       7.381   6.598  17.372  0.00  0.00    +0.000 A 
ATOM     19  C   UNL     1       7.426   6.370  18.758  0.00  0.00    +0.000 A 
ATOM     20  C   UNL     1       6.549   5.468  19.360  0.00  0.00    +0.000 A 
ATOM     21  C   UNL     1       5.602   4.793  18.587  0.00  0.00    +0.000 A 
ATOM     22  C   UNL     1       5.568   5.011  17.209  0.00  0.00    +0.000 A 
ATOM     23  C   UNL     1       6.401   5.959  16.600  0.00  0.00    +0.000 A 
BRANCH  18  25
ATOM     24  C   UNL     1       8.398   8.720  17.392  0.00  0.00    +0.000 C 
ATOM     25  O   UNL     1       8.285   7.437  16.774  0.00  0.00    +0.000 OA
ENDBRANCH  18  25
BRANCH  23  26
ATOM     26  O   UNL     1       6.114   6.098  15.269  0.00  0.00    +0.000 OA
ATOM     27  C   UNL     1       5.671   4.969  14.535  0.00  0.00    +0.000 C 
ENDBRANCH  23  26
ENDBRANCH   1  21
TORSDOF 4
ENDMDL
MODEL 4
REMARK VINA RESULT:      -7.5      3.571      6.864
REMARK  Name = 
REMARK  6 active torsions:
REMARK  status: ('A' for Active; 'I' for Inactive)
REMARK    1  A    between atoms: C_1  and  O_2
REMARK    2  A    between atoms: O_2  and  C_3
REMARK    3  A    between atoms: C_6  and  C_7
REMARK    4  A    between atoms: C_13  and  C_14
REMARK    5  A    between atoms: C_25  and  O_26
REMARK    6  A    between atoms: O_26  and  C_27
REMARK                            x       y       z     vdW  Elec       q    Type
REMARK                         _______ _______ _______ _____ _____    ______ ____
ROOT
ATOM      1  C   UNL     1       1.559   4.819  19.983  0.00  0.00    +0.000 C 
ATOM      2  O   UNL     1       0.699   4.301  20.697  0.00  0.00    +0.000 OA
ATOM      3  N   UNL     1       2.459   4.066  19.225  0.00  0.00    +0.000 N 
ATOM      4  C   UNL     1       2.285   2.616  19.228  0.00  0.00    +0.000 C 
ATOM      5  C   UNL     1       3.632   1.915  19.354  0.00  0.00    +0.000 C 
ATOM      6  C   UNL     1       4.602   2.361  18.260  0.00  0.00    +0.000 C 
ATOM      7  C   UNL     1       4.696   3.899  18.163  0.00  0.00    +0.000 C 
ATOM      8  C   UNL     1       3.293   4.550  18.119  0.00  0.00    +0.000 C 
ENDROOT
BRANCH   7   9
ATOM      9  C   UNL     1       5.575   4.357  17.011  0.00  0.00    +0.000 A 
ATOM     10  C   UNL     1       5.593   3.727  15.818  0.00  0.00    +0.000 A 
ATOM     11  C   UNL     1       6.518   4.288  14.793  0.00  0.00    +0.000 A 
ATOM     12  N   UNL     1       7.295   5.319  14.937  0.00  0.00    +0.000 NA
ATOM     13  C   UNL     1       7.249   5.932  16.151  0.00  0.00    +0.000 A 
ATOM     14  N   UNL     1       7.914   6.986  16.576  0.00  0.00    +0.000 NA
ATOM     15  C   UNL     1       7.483   7.138  17.855  0.00  0.00    +0.000 A 
ATOM     16  N   UNL     1       6.588   6.246  18.275  0.00  0.00    +0.000 NA
ATOM     17  N   UNL     1       6.416   5.468  17.184  0.00  0.00    +0.000 N 
ENDBRANCH   7   9
BRANCH   1  21
ATOM     18  C   UNL     1       1.570   9.107  19.813  0.00  0.00    +0.000 A 
ATOM     19  C   UNL     1       1.928   8.332  18.698  0.00  0.00    +0.000 A 
ATOM     20  C   UNL     1       1.929   6.938  18.770  0.00  0.00    +0.000 A 
ATOM     21  C   UNL     1       1.589   6.301  19.965  0.00  0.00    +0.000 A 
ATOM     22  C   UNL     1       1.220   7.073  21.068  0.00  0.00    +0.000 A 
ATOM     23  C   UNL     1       1.274   8.473  21.028  0.00  0.00    +0.000 A 
BRANCH  18  25
ATOM     24  C   UNL     1       0.275  10.976  19.205  0.00  0.00    +0.000 C 
ATOM     25  O   UNL     1       1.509  10.473  19.722  0.00  0.00    +0.000 OA
ENDBRANCH  18  25
BRANCH  23  26
ATOM     26  O   UNL     1       0.993   9.020  22.251  0.00  0.00    +0.000 OA
ATOM     27  C   UNL     1      -0.353   9.305  22.589  0.00  0.00    +0.000 C 
ENDBRANCH  23  26
ENDBRANCH   1  21
TORSDOF 4
ENDMDL
MODEL 5
REMARK VINA RESULT:      -7.4      7.076     10.147
REMARK  Name = 
REMARK  6 active torsions:
REMARK  status: ('A' for Active; 'I' for Inactive)
REMARK    1  A    between atoms: C_1  and  O_2
REMARK    2  A    between atoms: O_2  and  C_3
REMARK    3  A    between atoms: C_6  and  C_7
REMARK    4  A    between atoms: C_13  and  C_14
REMARK    5  A    between atoms: C_25  and  O_26
REMARK    6  A    between atoms: O_26  and  C_27
REMARK                            x       y       z     vdW  Elec       q    Type
REMARK                         _______ _______ _______ _____ _____    ______ ____
ROOT
ATOM      1  C   UNL     1      -4.125  11.506  17.036  0.00  0.00    +0.000 C 
ATOM      2  O   UNL     1      -4.162  11.488  15.805  0.00  0.00    +0.000 OA
ATOM      3  N   UNL     1      -5.221  11.884  17.815  0.00  0.00    +0.000 N 
ATOM      4  C   UNL     1      -6.471  12.171  17.116  0.00  0.00    +0.000 C 
ATOM      5  C   UNL     1      -7.133  13.416  17.691  0.00  0.00    +0.000 C 
ATOM      6  C   UNL     1      -7.350  13.292  19.200  0.00  0.00    +0.000 C 
ATOM      7  C   UNL     1      -6.062  12.862  19.936  0.00  0.00    +0.000 C 
ATOM      8  C   UNL     1      -5.400  11.643  19.251  0.00  0.00    +0.000 C 
ENDROOT
BRANCH   7   9
ATOM      9  C   UNL     1      -6.290  12.632  21.420  0.00  0.00    +0.000 A 
ATOM     10  C   UNL     1      -7.479  12.237  21.919  0.00  0.00    +0.000 A 
ATOM     11  C   UNL     1      -7.548  12.067  23.397  0.00  0.00    +0.000 A 
ATOM     12  N   UNL     1      -6.579  12.255  24.242  0.00  0.00    +0.000 NA
ATOM     13  C   UNL     1      -5.393  12.650  23.704  0.00  0.00    +0.000 A 
ATOM     14  N   UNL     1      -4.252  12.908  24.308  0.00  0.00    +0.000 NA
ATOM     15  C   UNL     1      -3.427  13.265  23.289  0.00  0.00    +0.000 A 
ATOM     16  N   UNL     1      -3.971  13.255  22.073  0.00  0.00    +0.000 NA
ATOM     17  N   UNL     1      -5.234  12.847  22.321  0.00  0.00    +0.000 N 
ENDBRANCH   7   9
BRANCH   1  21
ATOM     18  C   UNL     1      -0.356  10.318  18.709  0.00  0.00    +0.000 A 
ATOM     19  C   UNL     1      -0.920   9.632  17.622  0.00  0.00    +0.000 A 
ATOM     20  C   UNL     1      -2.151  10.023  17.094  0.00  0.00    +0.000 A 
ATOM     21  C   UNL     1      -2.843  11.097  17.658  0.00  0.00    +0.000 A 
ATOM     22  C   UNL     1      -2.274  11.786  18.730  0.00  0.00    +0.000 A 
ATOM     23  C   UNL     1      -1.069  11.367  19.308  0.00  0.00    +0.000 A 
BRANCH  18  25
ATOM     24  C   UNL     1       1.761   9.424  18.202  0.00  0.00    +0.000 C 
ATOM     25  O   UNL     1       0.882   9.973  19.186  0.00  0.00    +0.000 OA
ENDBRANCH  18  25
BRANCH  23  26
ATOM     26  O   UNL     1      -0.761  12.106  20.418  0.00  0.00    +0.000 OA
ATOM     27  C   UNL     1      -0.756  11.477  21.688  0.00  0.00    +0.000 C 
ENDBRANCH  23  26
ENDBRANCH   1  21
TORSDOF 4
ENDMDL
MODEL 6
REMARK VINA RESULT:      -7.3      3.964      6.455
REMARK  Name = 
REMARK  6 active torsions:
REMARK  status: ('A' for Active; 'I' for Inactive)
REMARK    1  A    between atoms: C_1  and  O_2
REMARK    2  A    between atoms: O_2  and  C_3
REMARK    3  A    between atoms: C_6  and  C_7
REMARK    4  A    between atoms: C_13  and  C_14
REMARK    5  A    between atoms: C_25  and  O_26
REMARK    6  A    between atoms: O_26  and  C_27
REMARK                            x       y       z     vdW  Elec       q    Type
REMARK                         _______ _______ _______ _____ _____    ______ ____
ROOT
ATOM      1  C   UNL     1       1.411   9.081  21.062  0.00  0.00    +0.000 C 
ATOM      2  O   UNL     1       2.094   9.247  22.075  0.00  0.00    +0.000 OA
ATOM      3  N   UNL     1       0.463  10.014  20.636  0.00  0.00    +0.000 N 
ATOM      4  C   UNL     1       0.369  11.263  21.386  0.00  0.00    +0.000 C 
ATOM      5  C   UNL     1      -1.088  11.646  21.609  0.00  0.00    +0.000 C 
ATOM      6  C   UNL     1      -1.857  11.726  20.290  0.00  0.00    +0.000 C 
ATOM      7  C   UNL     1      -1.660  10.459  19.429  0.00  0.00    +0.000 C 
ATOM      8  C   UNL     1      -0.163  10.083  19.311  0.00  0.00    +0.000 C 
ENDROOT
BRANCH   7   9
ATOM      9  C   UNL     1      -2.331  10.570  18.071  0.00  0.00    +0.000 A 
ATOM     10  C   UNL     1      -1.771  10.085  16.943  0.00  0.00    +0.000 A 
ATOM     11  C   UNL     1      -2.547  10.283  15.687  0.00  0.00    +0.000 A 
ATOM     12  N   UNL     1      -3.703  10.866  15.577  0.00  0.00    +0.000 NA
ATOM     13  C   UNL     1      -4.240  11.340  16.734  0.00  0.00    +0.000 A 
ATOM     14  N   UNL     1      -5.383  11.964  16.925  0.00  0.00    +0.000 NA
ATOM     15  C   UNL     1      -5.391  12.210  18.261  0.00  0.00    +0.000 A 
ATOM     16  N   UNL     1      -4.324  11.785  18.935  0.00  0.00    +0.000 NA
ATOM     17  N   UNL     1      -3.577  11.211  17.967  0.00  0.00    +0.000 N 
ENDBRANCH   7   9
BRANCH   1  21
ATOM     18  C   UNL     1       2.243   5.499  18.851  0.00  0.00    +0.000 A 
ATOM     19  C   UNL     1       2.527   6.767  18.319  0.00  0.00    +0.000 A 
ATOM     20  C   UNL     1       2.243   7.924  19.046  0.00  0.00    +0.000 A 
ATOM     21  C   UNL     1       1.654   7.829  20.307  0.00  0.00    +0.000 A 
ATOM     22  C   UNL     1       1.385   6.567  20.840  0.00  0.00    +0.000 A 
ATOM     23  C   UNL     1       1.608   5.400  20.098  0.00  0.00    +0.000 A 
BRANCH  18  25
ATOM     24  C   UNL     1       3.979   4.067  18.161  0.00  0.00    +0.000 C 
ATOM     25  O   UNL     1       2.580   4.363  18.164  0.00  0.00    +0.000 OA
ENDBRANCH  18  25
BRANCH  23  26
ATOM     26  O   UNL     1       1.159   4.290  20.760  0.00  0.00    +0.000 OA
ATOM     27  C   UNL     1       2.065   3.548  21.560  0.00  0.00    +0.000 C 
ENDBRANCH  23  26
ENDBRANCH   1  21
TORSDOF 4
ENDMDL
MODEL 7
REMARK VINA RESULT:      -7.3      7.153      9.868
REMARK  Name = 
REMARK  6 active torsions:
REMARK  status: ('A' for Active; 'I' for Inactive)
REMARK    1  A    between atoms: C_1  and  O_2
REMARK    2  A    between atoms: O_2  and  C_3
REMARK    3  A    between atoms: C_6  and  C_7
REMARK    4  A    between atoms: C_13  and  C_14
REMARK    5  A    between atoms: C_25  and  O_26
REMARK    6  A    between atoms: O_26  and  C_27
REMARK                            x       y       z     vdW  Elec       q    Type
REMARK                         _______ _______ _______ _____ _____    ______ ____
ROOT
ATOM      1  C   UNL     1      -2.577  11.544  17.418  0.00  0.00    +0.000 C 
ATOM      2  O   UNL     1      -2.330  11.320  16.231  0.00  0.00    +0.000 OA
ATOM      3  N   UNL     1      -3.881  11.657  17.905  0.00  0.00    +0.000 N 
ATOM      4  C   UNL     1      -4.970  11.402  16.967  0.00  0.00    +0.000 C 
ATOM      5  C   UNL     1      -6.077  12.433  17.137  0.00  0.00    +0.000 C 
ATOM      6  C   UNL     1      -6.581  12.485  18.580  0.00  0.00    +0.000 C 
ATOM      7  C   UNL     1      -5.423  12.626  19.592  0.00  0.00    +0.000 C 
ATOM      8  C   UNL     1      -4.298  11.601  19.311  0.00  0.00    +0.000 C 
ENDROOT
BRANCH   7   9
ATOM      9  C   UNL     1      -5.900  12.571  21.033  0.00  0.00    +0.000 A 
ATOM     10  C   UNL     1      -7.123  12.116  21.376  0.00  0.00    +0.000 A 
ATOM     11  C   UNL     1      -7.449  12.138  22.829  0.00  0.00    +0.000 A 
ATOM     12  N   UNL     1      -6.672  12.543  23.788  0.00  0.00    +0.000 NA
ATOM     13  C   UNL     1      -5.445  12.992  23.408  0.00  0.00    +0.000 A 
ATOM     14  N   UNL     1      -4.461  13.453  24.151  0.00  0.00    +0.000 NA
ATOM     15  C   UNL     1      -3.497  13.762  23.245  0.00  0.00    +0.000 A 
ATOM     16  N   UNL     1      -3.803  13.529  21.971  0.00  0.00    +0.000 NA
ATOM     17  N   UNL     1      -5.051  13.020  22.058  0.00  0.00    +0.000 N 
ENDBRANCH   7   9
BRANCH   1  21
ATOM     18  C   UNL     1       0.756  12.057  20.073  0.00  0.00    +0.000 A 
ATOM     19  C   UNL     1       0.229  13.137  19.346  0.00  0.00    +0.000 A 
ATOM     20  C   UNL     1      -0.849  12.954  18.479  0.00  0.00    +0.000 A 
ATOM     21  C   UNL     1      -1.404  11.684  18.314  0.00  0.00    +0.000 A 
ATOM     22  C   UNL     1      -0.888  10.614  19.048  0.00  0.00    +0.000 A 
ATOM     23  C   UNL     1       0.232  10.771  19.875  0.00  0.00    +0.000 A 
BRANCH  18  25
ATOM     24  C   UNL     1       2.492  13.473  20.795  0.00  0.00    +0.000 C 
ATOM     25  O   UNL     1       1.773  12.250  20.971  0.00  0.00    +0.000 OA
ENDBRANCH  18  25
BRANCH  23  26
ATOM     26  O   UNL     1       0.642   9.574  20.397  0.00  0.00    +0.000 OA
ATOM     27  C   UNL     1      -0.138   8.957  21.407  0.00  0.00    +0.000 C 
ENDBRANCH  23  26
ENDBRANCH   1  21
TORSDOF 4
ENDMDL
MODEL 8
REMARK VINA RESULT:      -7.2      3.750      7.362
REMARK  Name = 
REMARK  6 active torsions:
REMARK  status: ('A' for Active; 'I' for Inactive)
REMARK    1  A    between atoms: C_1  and  O_2
REMARK    2  A    between atoms: O_2  and  C_3
REMARK    3  A    between atoms: C_6  and  C_7
REMARK    4  A    between atoms: C_13  and  C_14
REMARK    5  A    between atoms: C_25  and  O_26
REMARK    6  A    between atoms: O_26  and  C_27
REMARK                            x       y       z     vdW  Elec       q    Type
REMARK                         _______ _______ _______ _____ _____    ______ ____
ROOT
ATOM      1  C   UNL     1       0.999   7.748  20.717  0.00  0.00    +0.000 C 
ATOM      2  O   UNL     1       0.170   7.548  21.607  0.00  0.00    +0.000 OA
ATOM      3  N   UNL     1       1.781   6.725  20.177  0.00  0.00    +0.000 N 
ATOM      4  C   UNL     1       1.517   5.365  20.640  0.00  0.00    +0.000 C 
ATOM      5  C   UNL     1       2.822   4.623  20.895  0.00  0.00    +0.000 C 
ATOM      6  C   UNL     1       3.724   4.629  19.660  0.00  0.00    +0.000 C 
ATOM      7  C   UNL     1       3.906   6.051  19.085  0.00  0.00    +0.000 C 
ATOM      8  C   UNL     1       2.548   6.775  18.927  0.00  0.00    +0.000 C 
ENDROOT
BRANCH   7   9
ATOM      9  C   UNL     1       4.712   6.057  17.797  0.00  0.00    +0.000 A 
ATOM     10  C   UNL     1       4.256   6.622  16.659  0.00  0.00    +0.000 A 
ATOM     11  C   UNL     1       5.158   6.535  15.476  0.00  0.00    +0.000 A 
ATOM     12  N   UNL     1       6.331   5.979  15.439  0.00  0.00    +0.000 NA
ATOM     13  C   UNL     1       6.761   5.423  16.604  0.00  0.00    +0.000 A 
ATOM     14  N   UNL     1       7.893   4.803  16.862  0.00  0.00    +0.000 NA
ATOM     15  C   UNL     1       7.774   4.453  18.169  0.00  0.00    +0.000 A 
ATOM     16  N   UNL     1       6.635   4.807  18.762  0.00  0.00    +0.000 NA
ATOM     17  N   UNL     1       5.975   5.445  17.771  0.00  0.00    +0.000 N 
ENDBRANCH   7   9
BRANCH   1  21
ATOM     18  C   UNL     1       1.268  11.763  19.224  0.00  0.00    +0.000 A 
ATOM     19  C   UNL     1       1.494  10.656  18.389  0.00  0.00    +0.000 A 
ATOM     20  C   UNL     1       1.413   9.357  18.890  0.00  0.00    +0.000 A 
ATOM     21  C   UNL     1       1.120   9.146  20.238  0.00  0.00    +0.000 A 
ATOM     22  C   UNL     1       0.882  10.245  21.064  0.00  0.00    +0.000 A 
ATOM     23  C   UNL     1       1.020  11.557  20.589  0.00  0.00    +0.000 A 
BRANCH  18  25
ATOM     24  C   UNL     1      -0.004  13.567  18.407  0.00  0.00    +0.000 C 
ATOM     25  O   UNL     1       1.286  13.035  18.717  0.00  0.00    +0.000 OA
ENDBRANCH  18  25
BRANCH  23  26
ATOM     26  O   UNL     1       0.864  12.473  21.593  0.00  0.00    +0.000 OA
ATOM     27  C   UNL     1      -0.429  12.701  22.127  0.00  0.00    +0.000 C 
ENDBRANCH  23  26
ENDBRANCH   1  21
TORSDOF 4
ENDMDL
MODEL 9
REMARK VINA RESULT:      -7.1      7.673     11.665
REMARK  Name = 
REMARK  6 active torsions:
REMARK  status: ('A' for Active; 'I' for Inactive)
REMARK    1  A    between atoms: C_1  and  O_2
REMARK    2  A    between atoms: O_2  and  C_3
REMARK    3  A    between atoms: C_6  and  C_7
REMARK    4  A    between atoms: C_13  and  C_14
REMARK    5  A    between atoms: C_25  and  O_26
REMARK    6  A    between atoms: O_26  and  C_27
REMARK                            x       y       z     vdW  Elec       q    Type
REMARK                         _______ _______ _______ _____ _____    ______ ____
ROOT
ATOM      1  C   UNL     1      -5.548  11.773  18.047  0.00  0.00    +0.000 C 
ATOM      2  O   UNL     1      -6.404  11.586  17.179  0.00  0.00    +0.000 OA
ATOM      3  N   UNL     1      -4.193  11.511  17.833  0.00  0.00    +0.000 N 
ATOM      4  C   UNL     1      -3.797  11.090  16.492  0.00  0.00    +0.000 C 
ATOM      5  C   UNL     1      -2.794   9.945  16.564  0.00  0.00    +0.000 C 
ATOM      6  C   UNL     1      -1.581  10.314  17.418  0.00  0.00    +0.000 C 
ATOM      7  C   UNL     1      -1.992  10.883  18.793  0.00  0.00    +0.000 C 
ATOM      8  C   UNL     1      -3.070  11.983  18.650  0.00  0.00    +0.000 C 
ENDROOT
BRANCH   7   9
ATOM      9  C   UNL     1      -0.800  11.352  19.609  0.00  0.00    +0.000 A 
ATOM     10  C   UNL     1      -0.272  12.586  19.479  0.00  0.00    +0.000 A 
ATOM     11  C   UNL     1       0.905  12.892  20.339  0.00  0.00    +0.000 A 
ATOM     12  N   UNL     1       1.461  12.092  21.200  0.00  0.00    +0.000 NA
ATOM     13  C   UNL     1       0.901  10.857  21.308  0.00  0.00    +0.000 A 
ATOM     14  N   UNL     1       1.245   9.854  22.089  0.00  0.00    +0.000 NA
ATOM     15  C   UNL     1       0.354   8.881  21.766  0.00  0.00    +0.000 A 
ATOM     16  N   UNL     1      -0.535   9.197  20.827  0.00  0.00    +0.000 NA
ATOM     17  N   UNL     1      -0.205  10.473  20.529  0.00  0.00    +0.000 N 
ENDBRANCH   7   9
BRANCH   1  21
ATOM     18  C   UNL     1      -6.906  13.196  21.861  0.00  0.00    +0.000 A 
ATOM     19  C   UNL     1      -7.165  11.881  21.438  0.00  0.00    +0.000 A 
ATOM     20  C   UNL     1      -6.725  11.436  20.191  0.00  0.00    +0.000 A 
ATOM     21  C   UNL     1      -6.036  12.303  19.342  0.00  0.00    +0.000 A 
ATOM     22  C   UNL     1      -5.768  13.604  19.770  0.00  0.00    +0.000 A 
ATOM     23  C   UNL     1      -6.256  14.084  20.993  0.00  0.00    +0.000 A 
BRANCH  18  25
ATOM     24  C   UNL     1      -6.977  12.690  24.159  0.00  0.00    +0.000 C 
ATOM     25  O   UNL     1      -7.283  13.613  23.111  0.00  0.00    +0.000 OA
ENDBRANCH  18  25
BRANCH  23  26
ATOM     26  O   UNL     1      -5.984  15.416  21.154  0.00  0.00    +0.000 OA
ATOM     27  C   UNL     1      -6.993  16.368  20.861  0.00  0.00    +0.000 C 
ENDBRANCH  23  26
ENDBRANCH   1  21
TORSDOF 4
ENDMDL
