MODEL 1
REMARK VINA RESULT:      -8.4      0.000      0.000
REMARK  Name = 
REMARK  6 active torsions:
REMARK  status: ('A' for Active; 'I' for Inactive)
REMARK    1  A    between atoms: N_1  and  C_2
REMARK    2  A    between atoms: C_4  and  C_5
REMARK    3  A    between atoms: N_10  and  C_11
REMARK    4  A    between atoms: C_16  and  N_17
REMARK    5  A    between atoms: C_18  and  C_20
REMARK    6  A    between atoms: C_23  and  C_24
REMARK                            x       y       z     vdW  Elec       q    Type
REMARK                         _______ _______ _______ _____ _____    ______ ____
ROOT
ATOM      1  C   UNL     1       3.481   4.022  17.731  0.00  0.00    +0.000 A 
ATOM      2  C   UNL     1       3.461   2.609  17.804  0.00  0.00    +0.000 A 
ATOM      3  C   UNL     1       2.298   1.913  18.107  0.00  0.00    +0.000 A 
ATOM      4  N   UNL     1       1.122   2.504  18.354  0.00  0.00    +0.000 NA
ATOM      5  C   UNL     1       1.125   3.853  18.287  0.00  0.00    +0.000 A 
ATOM      6  C   UNL     1       2.244   4.657  18.007  0.00  0.00    +0.000 A 
ENDROOT
BRANCH   1  11
ATOM      7  C   UNL     1       6.440   4.200  15.703  0.00  0.00    +0.000 C 
ATOM      8  C   UNL     1       7.430   4.910  16.641  0.00  0.00    +0.000 C 
ATOM      9  C   UNL     1       6.959   4.836  18.102  0.00  0.00    +0.000 C 
ATOM     10  C   UNL     1       5.527   5.364  18.237  0.00  0.00    +0.000 C 
ATOM     11  N   UNL     1       4.637   4.659  17.295  0.00  0.00    +0.000 N 
ATOM     12  C   UNL     1       5.027   4.797  15.891  0.00  0.00    +0.000 C 
BRANCH   9  13
ATOM     13  C   UNL     1       7.891   5.592  19.036  0.00  0.00    +0.000 C 
ATOM     14  F   UNL     1       8.290   6.776  18.524  0.00  0.00    +0.000 F 
ATOM     15  F   UNL     1       7.334   5.843  20.240  0.00  0.00    +0.000 F 
ATOM     16  F   UNL     1       9.012   4.864  19.265  0.00  0.00    +0.000 F 
ENDBRANCH   9  13
BRANCH   7  17
ATOM     17  N   UNL     1       6.911   4.309  14.325  0.00  0.00    +0.000 NA
ATOM     18  H   UNL     1       7.119   5.282  14.104  0.00  0.00    +0.000 HD
ATOM     19  H   UNL     1       6.193   4.011  13.667  0.00  0.00    +0.000 HD
ENDBRANCH   7  17
ENDBRANCH   1  11
BRANCH   6  20
ATOM     20  N   UNL     1       2.043   6.057  17.971  0.00  0.00    +0.000 N 
ATOM     21  C   UNL     1       2.274   6.846  19.079  0.00  0.00    +0.000 C 
ATOM     22  O   UNL     1       2.683   6.422  20.157  0.00  0.00    +0.000 OA
ATOM     23  H   UNL     1       1.516   6.494  17.230  0.00  0.00    +0.000 HD
BRANCH  21  24
ATOM     24  C   UNL     1       1.924   8.262  18.902  0.00  0.00    +0.000 A 
ATOM     25  C   UNL     1       2.402   8.997  17.836  0.00  0.00    +0.000 A 
ATOM     26  S   UNL     1       1.895  10.615  17.949  0.00  0.00    +0.000 S 
ATOM     27  C   UNL     1       0.949  10.231  19.347  0.00  0.00    +0.000 A 
ATOM     28  N   UNL     1       1.093   8.983  19.772  0.00  0.00    +0.000 NA
BRANCH  27  29
ATOM     29  C   UNL     1       0.116  11.277  19.966  0.00  0.00    +0.000 A 
ATOM     30  C   UNL     1       0.655  12.274  20.794  0.00  0.00    +0.000 A 
ATOM     31  F   UNL     1       1.976  12.342  21.023  0.00  0.00    +0.000 F 
ATOM     32  C   UNL     1      -0.139  13.250  21.403  0.00  0.00    +0.000 A 
ATOM     33  C   UNL     1      -1.507  13.265  21.184  0.00  0.00    +0.000 A 
ATOM     34  C   UNL     1      -2.076  12.295  20.354  0.00  0.00    +0.000 A 
ATOM     35  C   UNL     1      -1.266  11.323  19.754  0.00  0.00    +0.000 A 
ATOM     36  F   UNL     1      -1.867  10.415  18.974  0.00  0.00    +0.000 F 
ENDBRANCH  27  29
ENDBRANCH  21  24
ENDBRANCH   6  20
TORSDOF 6
ENDMDL
MODEL 2
REMARK VINA RESULT:      -8.4      0.137      1.589
REMARK  Name = 
REMARK  6 active torsions:
REMARK  status: ('A' for Active; 'I' for Inactive)
REMARK    1  A    between atoms: N_1  and  C_2
REMARK    2  A    between atoms: C_4  and  C_5
REMARK    3  A    between atoms: N_10  and  C_11
REMARK    4  A    between atoms: C_16  and  N_17
REMARK    5  A    between atoms: C_18  and  C_20
REMARK    6  A    between atoms: C_23  and  C_24
REMARK                            x       y       z     vdW  Elec       q    Type
REMARK                         _______ _______ _______ _____ _____    ______ ____
ROOT
ATOM      1  C   UNL     1       3.479   3.952  17.862  0.00  0.00    +0.000 A 
ATOM      2  C   UNL     1       3.472   2.542  17.977  0.00  0.00    +0.000 A 
ATOM      3  C   UNL     1       2.321   1.845  18.324  0.00  0.00    +0.000 A 
ATOM      4  N   UNL     1       1.145   2.433  18.575  0.00  0.00    +0.000 NA
ATOM      5  C   UNL     1       1.135   3.780  18.467  0.00  0.00    +0.000 A 
ATOM      6  C   UNL     1       2.241   4.584  18.141  0.00  0.00    +0.000 A 
ENDROOT
BRANCH   1  11
ATOM      7  C   UNL     1       6.392   4.097  15.765  0.00  0.00    +0.000 C 
ATOM      8  C   UNL     1       7.396   4.837  16.663  0.00  0.00    +0.000 C 
ATOM      9  C   UNL     1       6.958   4.798  18.135  0.00  0.00    +0.000 C 
ATOM     10  C   UNL     1       5.525   5.320  18.288  0.00  0.00    +0.000 C 
ATOM     11  N   UNL     1       4.620   4.585  17.384  0.00  0.00    +0.000 N 
ATOM     12  C   UNL     1       4.978   4.689  15.968  0.00  0.00    +0.000 C 
BRANCH   9  13
ATOM     13  C   UNL     1       7.904   5.583  19.029  0.00  0.00    +0.000 C 
ATOM     14  F   UNL     1       9.023   4.892  19.334  0.00  0.00    +0.000 F 
ATOM     15  F   UNL     1       8.293   6.753  18.479  0.00  0.00    +0.000 F 
ATOM     16  F   UNL     1       7.295   5.884  20.203  0.00  0.00    +0.000 F 
ENDBRANCH   9  13
BRANCH   7  17
ATOM     17  N   UNL     1       6.832   4.173  14.375  0.00  0.00    +0.000 NA
ATOM     18  H   UNL     1       7.322   3.318  14.117  0.00  0.00    +0.000 HD
ATOM     19  H   UNL     1       7.492   4.937  14.240  0.00  0.00    +0.000 HD
ENDBRANCH   7  17
ENDBRANCH   1  11
BRANCH   6  20
ATOM     20  N   UNL     1       2.027   5.981  18.066  0.00  0.00    +0.000 N 
ATOM     21  C   UNL     1       2.280   6.807  19.142  0.00  0.00    +0.000 C 
ATOM     22  O   UNL     1       2.722   6.420  20.222  0.00  0.00    +0.000 OA
ATOM     23  H   UNL     1       1.477   6.390  17.326  0.00  0.00    +0.000 HD
BRANCH  21  24
ATOM     24  C   UNL     1       1.913   8.214  18.930  0.00  0.00    +0.000 A 
ATOM     25  C   UNL     1       2.406   8.936  17.862  0.00  0.00    +0.000 A 
ATOM     26  S   UNL     1       1.873  10.547  17.932  0.00  0.00    +0.000 S 
ATOM     27  C   UNL     1       0.897  10.174  19.314  0.00  0.00    +0.000 A 
ATOM     28  N   UNL     1       1.050   8.937  19.765  0.00  0.00    +0.000 NA
BRANCH  27  29
ATOM     29  C   UNL     1       0.033  11.219  19.892  0.00  0.00    +0.000 A 
ATOM     30  C   UNL     1      -1.345  11.282  19.630  0.00  0.00    +0.000 A 
ATOM     31  F   UNL     1      -1.947  10.356  18.870  0.00  0.00    +0.000 F 
ATOM     32  C   UNL     1      -2.158  12.290  20.156  0.00  0.00    +0.000 A 
ATOM     33  C   UNL     1      -1.614  13.262  20.980  0.00  0.00    +0.000 A 
ATOM     34  C   UNL     1      -0.248  13.220  21.272  0.00  0.00    +0.000 A 
ATOM     35  C   UNL     1       0.554  12.206  20.735  0.00  0.00    +0.000 A 
ATOM     36  F   UNL     1       1.857  12.221  21.044  0.00  0.00    +0.000 F 
ENDBRANCH  27  29
ENDBRANCH  21  24
ENDBRANCH   6  20
TORSDOF 6
ENDMDL
MODEL 3
REMARK VINA RESULT:      -8.3      0.980      1.591
REMARK  Name = 
REMARK  6 active torsions:
REMARK  status: ('A' for Active; 'I' for Inactive)
REMARK    1  A    between atoms: N_1  and  C_2
REMARK    2  A    between atoms: C_4  and  C_5
REMARK    3  A    between atoms: N_10  and  C_11
REMARK    4  A    between atoms: C_16  and  N_17
REMARK    5  A    between atoms: C_18  and  C_20
REMARK    6  A    between atoms: C_23  and  C_24
REMARK                            x       y       z     vdW  Elec       q    Type
REMARK                         _______ _______ _______ _____ _____    ______ ____
ROOT
ATOM      1  C   UNL     1       3.556   3.808  17.879  0.00  0.00    +0.000 A 
ATOM      2  C   UNL     1       3.612   2.394  17.887  0.00  0.00    +0.000 A 
ATOM      3  C   UNL     1       2.502   1.624  18.210  0.00  0.00    +0.000 A 
ATOM      4  N   UNL     1       1.310   2.139  18.536  0.00  0.00    +0.000 NA
ATOM      5  C   UNL     1       1.240   3.489  18.530  0.00  0.00    +0.000 A 
ATOM      6  C   UNL     1       2.302   4.363  18.239  0.00  0.00    +0.000 A 
ENDROOT
BRANCH   1  11
ATOM      7  C   UNL     1       6.426   4.216  15.758  0.00  0.00    +0.000 C 
ATOM      8  C   UNL     1       7.403   4.961  16.681  0.00  0.00    +0.000 C 
ATOM      9  C   UNL     1       6.990   4.822  18.154  0.00  0.00    +0.000 C 
ATOM     10  C   UNL     1       5.534   5.259  18.352  0.00  0.00    +0.000 C 
ATOM     11  N   UNL     1       4.655   4.525  17.422  0.00  0.00    +0.000 N 
ATOM     12  C   UNL     1       4.986   4.721  16.009  0.00  0.00    +0.000 C 
BRANCH   9  13
ATOM     13  C   UNL     1       7.907   5.610  19.077  0.00  0.00    +0.000 C 
ATOM     14  F   UNL     1       7.328   5.898  20.262  0.00  0.00    +0.000 F 
ATOM     15  F   UNL     1       9.062   4.963  19.341  0.00  0.00    +0.000 F 
ATOM     16  F   UNL     1       8.240   6.792  18.503  0.00  0.00    +0.000 F 
ENDBRANCH   9  13
BRANCH   7  17
ATOM     17  N   UNL     1       6.840   4.388  14.369  0.00  0.00    +0.000 NA
ATOM     18  H   UNL     1       6.974   5.377  14.164  0.00  0.00    +0.000 HD
ATOM     19  H   UNL     1       6.123   4.055  13.727  0.00  0.00    +0.000 HD
ENDBRANCH   7  17
ENDBRANCH   1  11
BRANCH   6  20
ATOM     20  N   UNL     1       2.027   5.750  18.276  0.00  0.00    +0.000 N 
ATOM     21  C   UNL     1       2.287   6.505  19.401  0.00  0.00    +0.000 C 
ATOM     22  O   UNL     1       2.785   6.061  20.432  0.00  0.00    +0.000 OA
ATOM     23  H   UNL     1       1.432   6.188  17.588  0.00  0.00    +0.000 HD
BRANCH  21  24
ATOM     24  C   UNL     1       1.854   7.907  19.308  0.00  0.00    +0.000 A 
ATOM     25  C   UNL     1       1.861   8.587  18.106  0.00  0.00    +0.000 A 
ATOM     26  S   UNL     1       1.390  10.203  18.331  0.00  0.00    +0.000 S 
ATOM     27  C   UNL     1       1.068   9.887  20.004  0.00  0.00    +0.000 A 
ATOM     28  N   UNL     1       1.402   8.665  20.396  0.00  0.00    +0.000 NA
BRANCH  27  29
ATOM     29  C   UNL     1       0.508  10.957  20.847  0.00  0.00    +0.000 A 
ATOM     30  C   UNL     1      -0.478  10.711  21.816  0.00  0.00    +0.000 A 
ATOM     31  F   UNL     1      -0.923   9.467  22.048  0.00  0.00    +0.000 F 
ATOM     32  C   UNL     1      -1.029  11.732  22.595  0.00  0.00    +0.000 A 
ATOM     33  C   UNL     1      -0.594  13.038  22.437  0.00  0.00    +0.000 A 
ATOM     34  C   UNL     1       0.397  13.316  21.492  0.00  0.00    +0.000 A 
ATOM     35  C   UNL     1       0.937  12.282  20.717  0.00  0.00    +0.000 A 
ATOM     36  F   UNL     1       1.878  12.610  19.821  0.00  0.00    +0.000 F 
ENDBRANCH  27  29
ENDBRANCH  21  24
ENDBRANCH   6  20
TORSDOF 6
ENDMDL
MODEL 4
REMARK VINA RESULT:      -8.2      1.350      1.793
REMARK  Name = 
REMARK  6 active torsions:
REMARK  status: ('A' for Active; 'I' for Inactive)
REMARK    1  A    between atoms: N_1  and  C_2
REMARK    2  A    between atoms: C_4  and  C_5
REMARK    3  A    between atoms: N_10  and  C_11
REMARK    4  A    between atoms: C_16  and  N_17
REMARK    5  A    between atoms: C_18  and  C_20
REMARK    6  A    between atoms: C_23  and  C_24
REMARK                            x       y       z     vdW  Elec       q    Type
REMARK                         _______ _______ _______ _____ _____    ______ ____
ROOT
ATOM      1  C   UNL     1       3.718   3.711  17.637  0.00  0.00    +0.000 A 
ATOM      2  C   UNL     1       3.925   2.314  17.720  0.00  0.00    +0.000 A 
ATOM      3  C   UNL     1       3.055   1.490  18.423  0.00  0.00    +0.000 A 
ATOM      4  N   UNL     1       1.970   1.936  19.069  0.00  0.00    +0.000 NA
ATOM      5  C   UNL     1       1.758   3.268  18.997  0.00  0.00    +0.000 A 
ATOM      6  C   UNL     1       2.580   4.194  18.332  0.00  0.00    +0.000 A 
ENDROOT
BRANCH   1  11
ATOM      7  C   UNL     1       6.295   4.040  15.157  0.00  0.00    +0.000 C 
ATOM      8  C   UNL     1       7.020   5.316  15.615  0.00  0.00    +0.000 C 
ATOM      9  C   UNL     1       6.693   5.644  17.079  0.00  0.00    +0.000 C 
ATOM     10  C   UNL     1       5.177   5.710  17.295  0.00  0.00    +0.000 C 
ATOM     11  N   UNL     1       4.543   4.468  16.814  0.00  0.00    +0.000 N 
ATOM     12  C   UNL     1       4.775   4.192  15.395  0.00  0.00    +0.000 C 
BRANCH   9  13
ATOM     13  C   UNL     1       7.347   6.941  17.529  0.00  0.00    +0.000 C 
ATOM     14  F   UNL     1       8.174   7.456  16.594  0.00  0.00    +0.000 F 
ATOM     15  F   UNL     1       6.449   7.899  17.842  0.00  0.00    +0.000 F 
ATOM     16  F   UNL     1       8.095   6.724  18.640  0.00  0.00    +0.000 F 
ENDBRANCH   9  13
BRANCH   7  17
ATOM     17  N   UNL     1       6.614   3.774  13.757  0.00  0.00    +0.000 NA
ATOM     18  H   UNL     1       6.999   4.611  13.321  0.00  0.00    +0.000 HD
ATOM     19  H   UNL     1       5.778   3.533  13.229  0.00  0.00    +0.000 HD
ENDBRANCH   7  17
ENDBRANCH   1  11
BRANCH   6  20
ATOM     20  N   UNL     1       2.183   5.551  18.362  0.00  0.00    +0.000 N 
ATOM     21  C   UNL     1       2.575   6.394  19.381  0.00  0.00    +0.000 C 
ATOM     22  O   UNL     1       3.300   6.059  20.315  0.00  0.00    +0.000 OA
ATOM     23  H   UNL     1       1.429   5.892  17.784  0.00  0.00    +0.000 HD
BRANCH  21  24
ATOM     24  C   UNL     1       1.997   7.743  19.313  0.00  0.00    +0.000 A 
ATOM     25  C   UNL     1       1.879   8.420  18.115  0.00  0.00    +0.000 A 
ATOM     26  S   UNL     1       1.256   9.979  18.367  0.00  0.00    +0.000 S 
ATOM     27  C   UNL     1       1.045   9.634  20.051  0.00  0.00    +0.000 A 
ATOM     28  N   UNL     1       1.520   8.453  20.424  0.00  0.00    +0.000 NA
BRANCH  27  29
ATOM     29  C   UNL     1       0.417  10.642  20.922  0.00  0.00    +0.000 A 
ATOM     30  C   UNL     1      -0.487  10.297  21.939  0.00  0.00    +0.000 A 
ATOM     31  F   UNL     1      -0.786   9.013  22.192  0.00  0.00    +0.000 F 
ATOM     32  C   UNL     1      -1.104  11.256  22.747  0.00  0.00    +0.000 A 
ATOM     33  C   UNL     1      -0.818  12.600  22.569  0.00  0.00    +0.000 A 
ATOM     34  C   UNL     1       0.089  12.978  21.575  0.00  0.00    +0.000 A 
ATOM     35  C   UNL     1       0.696  12.004  20.772  0.00  0.00    +0.000 A 
ATOM     36  F   UNL     1       1.551  12.426  19.831  0.00  0.00    +0.000 F 
ENDBRANCH  27  29
ENDBRANCH  21  24
ENDBRANCH   6  20
TORSDOF 6
ENDMDL
MODEL 5
REMARK VINA RESULT:      -8.2      1.121      1.844
REMARK  Name = 
REMARK  6 active torsions:
REMARK  status: ('A' for Active; 'I' for Inactive)
REMARK    1  A    between atoms: N_1  and  C_2
REMARK    2  A    between atoms: C_4  and  C_5
REMARK    3  A    between atoms: N_10  and  C_11
REMARK    4  A    between atoms: C_16  and  N_17
REMARK    5  A    between atoms: C_18  and  C_20
REMARK    6  A    between atoms: C_23  and  C_24
REMARK                            x       y       z     vdW  Elec       q    Type
REMARK                         _______ _______ _______ _____ _____    ______ ____
ROOT
ATOM      1  C   UNL     1       3.647   3.817  17.589  0.00  0.00    +0.000 A 
ATOM      2  C   UNL     1       3.816   2.418  17.712  0.00  0.00    +0.000 A 
ATOM      3  C   UNL     1       2.899   1.631  18.398  0.00  0.00    +0.000 A 
ATOM      4  N   UNL     1       1.801   2.117  18.990  0.00  0.00    +0.000 NA
ATOM      5  C   UNL     1       1.624   3.452  18.879  0.00  0.00    +0.000 A 
ATOM      6  C   UNL     1       2.494   4.342  18.226  0.00  0.00    +0.000 A 
ENDROOT
BRANCH   1  11
ATOM      7  C   UNL     1       6.303   4.026  15.180  0.00  0.00    +0.000 C 
ATOM      8  C   UNL     1       7.060   5.280  15.646  0.00  0.00    +0.000 C 
ATOM      9  C   UNL     1       6.704   5.635  17.098  0.00  0.00    +0.000 C 
ATOM     10  C   UNL     1       5.186   5.758  17.269  0.00  0.00    +0.000 C 
ATOM     11  N   UNL     1       4.522   4.535  16.782  0.00  0.00    +0.000 N 
ATOM     12  C   UNL     1       4.783   4.235  15.373  0.00  0.00    +0.000 C 
BRANCH   9  13
ATOM     13  C   UNL     1       7.392   6.912  17.554  0.00  0.00    +0.000 C 
ATOM     14  F   UNL     1       8.150   6.728  18.655  0.00  0.00    +0.000 F 
ATOM     15  F   UNL     1       8.190   7.444  16.603  0.00  0.00    +0.000 F 
ATOM     16  F   UNL     1       6.468   7.854  17.864  0.00  0.00    +0.000 F 
ENDBRANCH   9  13
BRANCH   7  17
ATOM     17  N   UNL     1       6.651   3.734  13.792  0.00  0.00    +0.000 NA
ATOM     18  H   UNL     1       6.814   2.734  13.677  0.00  0.00    +0.000 HD
ATOM     19  H   UNL     1       7.516   4.199  13.524  0.00  0.00    +0.000 HD
ENDBRANCH   7  17
ENDBRANCH   1  11
BRANCH   6  20
ATOM     20  N   UNL     1       2.129   5.709  18.209  0.00  0.00    +0.000 N 
ATOM     21  C   UNL     1       2.484   6.562  19.233  0.00  0.00    +0.000 C 
ATOM     22  O   UNL     1       3.148   6.229  20.212  0.00  0.00    +0.000 OA
ATOM     23  H   UNL     1       1.417   6.056  17.584  0.00  0.00    +0.000 HD
BRANCH  21  24
ATOM     24  C   UNL     1       1.944   7.923  19.109  0.00  0.00    +0.000 A 
ATOM     25  C   UNL     1       2.269   8.735  18.040  0.00  0.00    +0.000 A 
ATOM     26  S   UNL     1       1.562  10.269  18.217  0.00  0.00    +0.000 S 
ATOM     27  C   UNL     1       0.743   9.737  19.647  0.00  0.00    +0.000 A 
ATOM     28  N   UNL     1       1.070   8.511  20.033  0.00  0.00    +0.000 NA
BRANCH  27  29
ATOM     29  C   UNL     1      -0.188  10.653  20.329  0.00  0.00    +0.000 A 
ATOM     30  C   UNL     1      -1.194  11.350  19.642  0.00  0.00    +0.000 A 
ATOM     31  F   UNL     1      -1.380  11.174  18.325  0.00  0.00    +0.000 F 
ATOM     32  C   UNL     1      -2.059  12.240  20.285  0.00  0.00    +0.000 A 
ATOM     33  C   UNL     1      -1.951  12.447  21.651  0.00  0.00    +0.000 A 
ATOM     34  C   UNL     1      -0.969  11.758  22.369  0.00  0.00    +0.000 A 
ATOM     35  C   UNL     1      -0.109  10.872  21.709  0.00  0.00    +0.000 A 
ATOM     36  F   UNL     1       0.817  10.246  22.447  0.00  0.00    +0.000 F 
ENDBRANCH  27  29
ENDBRANCH  21  24
ENDBRANCH   6  20
TORSDOF 6
ENDMDL
MODEL 6
REMARK VINA RESULT:      -8.1      1.400      1.581
REMARK  Name = 
REMARK  6 active torsions:
REMARK  status: ('A' for Active; 'I' for Inactive)
REMARK    1  A    between atoms: N_1  and  C_2
REMARK    2  A    between atoms: C_4  and  C_5
REMARK    3  A    between atoms: N_10  and  C_11
REMARK    4  A    between atoms: C_16  and  N_17
REMARK    5  A    between atoms: C_18  and  C_20
REMARK    6  A    between atoms: C_23  and  C_24
REMARK                            x       y       z     vdW  Elec       q    Type
REMARK                         _______ _______ _______ _____ _____    ______ ____
ROOT
ATOM      1  C   UNL     1       3.684   3.719  17.682  0.00  0.00    +0.000 A 
ATOM      2  C   UNL     1       3.862   2.317  17.750  0.00  0.00    +0.000 A 
ATOM      3  C   UNL     1       2.989   1.506  18.465  0.00  0.00    +0.000 A 
ATOM      4  N   UNL     1       1.928   1.970  19.138  0.00  0.00    +0.000 NA
ATOM      5  C   UNL     1       1.744   3.307  19.081  0.00  0.00    +0.000 A 
ATOM      6  C   UNL     1       2.572   4.220  18.406  0.00  0.00    +0.000 A 
ENDROOT
BRANCH   1  11
ATOM      7  C   UNL     1       6.252   4.013  15.188  0.00  0.00    +0.000 C 
ATOM      8  C   UNL     1       6.981   5.293  15.629  0.00  0.00    +0.000 C 
ATOM      9  C   UNL     1       6.660   5.639  17.091  0.00  0.00    +0.000 C 
ATOM     10  C   UNL     1       5.146   5.710  17.311  0.00  0.00    +0.000 C 
ATOM     11  N   UNL     1       4.508   4.464  16.847  0.00  0.00    +0.000 N 
ATOM     12  C   UNL     1       4.733   4.171  15.430  0.00  0.00    +0.000 C 
BRANCH   9  13
ATOM     13  C   UNL     1       7.319   6.939  17.524  0.00  0.00    +0.000 C 
ATOM     14  F   UNL     1       6.421   7.906  17.809  0.00  0.00    +0.000 F 
ATOM     15  F   UNL     1       8.106   6.790  18.610  0.00  0.00    +0.000 F 
ATOM     16  F   UNL     1       8.108   7.414  16.528  0.00  0.00    +0.000 F 
ENDBRANCH   9  13
BRANCH   7  17
ATOM     17  N   UNL     1       6.565   3.730  13.791  0.00  0.00    +0.000 NA
ATOM     18  H   UNL     1       6.310   2.770  13.564  0.00  0.00    +0.000 HD
ATOM     19  H   UNL     1       7.565   3.812  13.614  0.00  0.00    +0.000 HD
ENDBRANCH   7  17
ENDBRANCH   1  11
BRANCH   6  20
ATOM     20  N   UNL     1       2.206   5.586  18.454  0.00  0.00    +0.000 N 
ATOM     21  C   UNL     1       2.488   6.368  19.555  0.00  0.00    +0.000 C 
ATOM     22  O   UNL     1       3.084   5.969  20.553  0.00  0.00    +0.000 OA
ATOM     23  H   UNL     1       1.537   5.975  17.806  0.00  0.00    +0.000 HD
BRANCH  21  24
ATOM     24  C   UNL     1       1.954   7.735  19.484  0.00  0.00    +0.000 A 
ATOM     25  C   UNL     1       1.953   8.451  18.303  0.00  0.00    +0.000 A 
ATOM     26  S   UNL     1       1.353  10.020  18.554  0.00  0.00    +0.000 S 
ATOM     27  C   UNL     1       0.996   9.630  20.204  0.00  0.00    +0.000 A 
ATOM     28  N   UNL     1       1.406   8.425  20.575  0.00  0.00    +0.000 NA
BRANCH  27  29
ATOM     29  C   UNL     1       0.326  10.629  21.054  0.00  0.00    +0.000 A 
ATOM     30  C   UNL     1       0.519  12.009  20.884  0.00  0.00    +0.000 A 
ATOM     31  F   UNL     1       1.297  12.482  19.898  0.00  0.00    +0.000 F 
ATOM     32  C   UNL     1      -0.095  12.956  21.709  0.00  0.00    +0.000 A 
ATOM     33  C   UNL     1      -0.941  12.544  22.727  0.00  0.00    +0.000 A 
ATOM     34  C   UNL     1      -1.166  11.178  22.915  0.00  0.00    +0.000 A 
ATOM     35  C   UNL     1      -0.541  10.243  22.081  0.00  0.00    +0.000 A 
ATOM     36  F   UNL     1      -0.789   8.947  22.313  0.00  0.00    +0.000 F 
ENDBRANCH  27  29
ENDBRANCH  21  24
ENDBRANCH   6  20
TORSDOF 6
ENDMDL
MODEL 7
REMARK VINA RESULT:      -8.1      0.992      1.352
REMARK  Name = 
REMARK  6 active torsions:
REMARK  status: ('A' for Active; 'I' for Inactive)
REMARK    1  A    between atoms: N_1  and  C_2
REMARK    2  A    between atoms: C_4  and  C_5
REMARK    3  A    between atoms: N_10  and  C_11
REMARK    4  A    between atoms: C_16  and  N_17
REMARK    5  A    between atoms: C_18  and  C_20
REMARK    6  A    between atoms: C_23  and  C_24
REMARK                            x       y       z     vdW  Elec       q    Type
REMARK                         _______ _______ _______ _____ _____    ______ ____
ROOT
ATOM      1  C   UNL     1       3.559   3.988  17.605  0.00  0.00    +0.000 A 
ATOM      2  C   UNL     1       3.684   2.592  17.801  0.00  0.00    +0.000 A 
ATOM      3  C   UNL     1       2.724   1.866  18.494  0.00  0.00    +0.000 A 
ATOM      4  N   UNL     1       1.622   2.411  19.026  0.00  0.00    +0.000 NA
ATOM      5  C   UNL     1       1.488   3.743  18.846  0.00  0.00    +0.000 A 
ATOM      6  C   UNL     1       2.404   4.576  18.180  0.00  0.00    +0.000 A 
ENDROOT
BRANCH   1  11
ATOM      7  C   UNL     1       6.271   4.004  15.250  0.00  0.00    +0.000 C 
ATOM      8  C   UNL     1       7.069   5.243  15.689  0.00  0.00    +0.000 C 
ATOM      9  C   UNL     1       6.698   5.664  17.119  0.00  0.00    +0.000 C 
ATOM     10  C   UNL     1       5.183   5.853  17.252  0.00  0.00    +0.000 C 
ATOM     11  N   UNL     1       4.480   4.641  16.794  0.00  0.00    +0.000 N 
ATOM     12  C   UNL     1       4.758   4.280  15.402  0.00  0.00    +0.000 C 
BRANCH   9  13
ATOM     13  C   UNL     1       7.428   6.928  17.545  0.00  0.00    +0.000 C 
ATOM     14  F   UNL     1       8.212   6.734  18.627  0.00  0.00    +0.000 F 
ATOM     15  F   UNL     1       8.211   7.433  16.568  0.00  0.00    +0.000 F 
ATOM     16  F   UNL     1       6.534   7.893  17.873  0.00  0.00    +0.000 F 
ENDBRANCH   9  13
BRANCH   7  17
ATOM     17  N   UNL     1       6.636   3.648  13.882  0.00  0.00    +0.000 NA
ATOM     18  H   UNL     1       7.316   2.888  13.889  0.00  0.00    +0.000 HD
ATOM     19  H   UNL     1       7.082   4.429  13.405  0.00  0.00    +0.000 HD
ENDBRANCH   7  17
ENDBRANCH   1  11
BRANCH   6  20
ATOM     20  N   UNL     1       2.080   5.949  18.086  0.00  0.00    +0.000 N 
ATOM     21  C   UNL     1       2.377   6.831  19.105  0.00  0.00    +0.000 C 
ATOM     22  O   UNL     1       2.950   6.517  20.145  0.00  0.00    +0.000 OA
ATOM     23  H   UNL     1       1.430   6.291  17.393  0.00  0.00    +0.000 HD
BRANCH  21  24
ATOM     24  C   UNL     1       1.886   8.199  18.889  0.00  0.00    +0.000 A 
ATOM     25  C   UNL     1       2.463   9.035  17.954  0.00  0.00    +0.000 A 
ATOM     26  S   UNL     1       1.739  10.570  17.995  0.00  0.00    +0.000 S 
ATOM     27  C   UNL     1       0.596  10.010  19.170  0.00  0.00    +0.000 A 
ATOM     28  N   UNL     1       0.816   8.772  19.590  0.00  0.00    +0.000 NA
BRANCH  27  29
ATOM     29  C   UNL     1      -0.470  10.917  19.630  0.00  0.00    +0.000 A 
ATOM     30  C   UNL     1      -0.412  11.576  20.868  0.00  0.00    +0.000 A 
ATOM     31  F   UNL     1       0.652  11.441  21.674  0.00  0.00    +0.000 F 
ATOM     32  C   UNL     1      -1.437  12.414  21.316  0.00  0.00    +0.000 A 
ATOM     33  C   UNL     1      -2.552  12.631  20.523  0.00  0.00    +0.000 A 
ATOM     34  C   UNL     1      -2.636  12.002  19.278  0.00  0.00    +0.000 A 
ATOM     35  C   UNL     1      -1.602  11.163  18.846  0.00  0.00    +0.000 A 
ATOM     36  F   UNL     1      -1.741  10.581  17.647  0.00  0.00    +0.000 F 
ENDBRANCH  27  29
ENDBRANCH  21  24
ENDBRANCH   6  20
TORSDOF 6
ENDMDL
MODEL 8
REMARK VINA RESULT:      -8.0      2.178      3.030
REMARK  Name = 
REMARK  6 active torsions:
REMARK  status: ('A' for Active; 'I' for Inactive)
REMARK    1  A    between atoms: N_1  and  C_2
REMARK    2  A    between atoms: C_4  and  C_5
REMARK    3  A    between atoms: N_10  and  C_11
REMARK    4  A    between atoms: C_16  and  N_17
REMARK    5  A    between atoms: C_18  and  C_20
REMARK    6  A    between atoms: C_23  and  C_24
REMARK                            x       y       z     vdW  Elec       q    Type
REMARK                         _______ _______ _______ _____ _____    ______ ____
ROOT
ATOM      1  C   UNL     1       3.684   3.543  18.083  0.00  0.00    +0.000 A 
ATOM      2  C   UNL     1       3.694   2.148  18.317  0.00  0.00    +0.000 A 
ATOM      3  C   UNL     1       2.583   1.486  18.824  0.00  0.00    +0.000 A 
ATOM      4  N   UNL     1       1.432   2.098  19.132  0.00  0.00    +0.000 NA
ATOM      5  C   UNL     1       1.406   3.431  18.913  0.00  0.00    +0.000 A 
ATOM      6  C   UNL     1       2.474   4.201  18.421  0.00  0.00    +0.000 A 
ENDROOT
BRANCH   1  11
ATOM      7  C   UNL     1       5.578   6.402  17.015  0.00  0.00    +0.000 C 
ATOM      8  C   UNL     1       6.141   5.927  15.666  0.00  0.00    +0.000 C 
ATOM      9  C   UNL     1       5.356   4.719  15.131  0.00  0.00    +0.000 C 
ATOM     10  C   UNL     1       5.300   3.603  16.179  0.00  0.00    +0.000 C 
ATOM     11  N   UNL     1       4.774   4.130  17.452  0.00  0.00    +0.000 N 
ATOM     12  C   UNL     1       5.567   5.224  18.017  0.00  0.00    +0.000 C 
BRANCH   9  13
ATOM     13  C   UNL     1       5.941   4.194  13.830  0.00  0.00    +0.000 C 
ATOM     14  F   UNL     1       6.890   5.009  13.322  0.00  0.00    +0.000 F 
ATOM     15  F   UNL     1       6.494   2.969  13.962  0.00  0.00    +0.000 F 
ATOM     16  F   UNL     1       4.969   4.088  12.891  0.00  0.00    +0.000 F 
ENDBRANCH   9  13
BRANCH   7  17
ATOM     17  N   UNL     1       6.361   7.535  17.499  0.00  0.00    +0.000 NA
ATOM     18  H   UNL     1       7.352   7.296  17.507  0.00  0.00    +0.000 HD
ATOM     19  H   UNL     1       6.113   7.771  18.458  0.00  0.00    +0.000 HD
ENDBRANCH   7  17
ENDBRANCH   1  11
BRANCH   6  20
ATOM     20  N   UNL     1       2.248   5.587  18.250  0.00  0.00    +0.000 N 
ATOM     21  C   UNL     1       2.459   6.483  19.277  0.00  0.00    +0.000 C 
ATOM     22  O   UNL     1       2.869   6.173  20.393  0.00  0.00    +0.000 OA
ATOM     23  H   UNL     1       1.717   5.941  17.468  0.00  0.00    +0.000 HD
BRANCH  21  24
ATOM     24  C   UNL     1       2.083   7.869  18.964  0.00  0.00    +0.000 A 
ATOM     25  C   UNL     1       2.625   8.538  17.883  0.00  0.00    +0.000 A 
ATOM     26  S   UNL     1       2.066  10.140  17.830  0.00  0.00    +0.000 S 
ATOM     27  C   UNL     1       1.020   9.831  19.176  0.00  0.00    +0.000 A 
ATOM     28  N   UNL     1       1.165   8.624  19.706  0.00  0.00    +0.000 NA
BRANCH  27  29
ATOM     29  C   UNL     1       0.111  10.891  19.643  0.00  0.00    +0.000 A 
ATOM     30  C   UNL     1      -1.234  10.956  19.246  0.00  0.00    +0.000 A 
ATOM     31  F   UNL     1      -1.765  10.016  18.450  0.00  0.00    +0.000 F 
ATOM     32  C   UNL     1      -2.088  11.979  19.668  0.00  0.00    +0.000 A 
ATOM     33  C   UNL     1      -1.621  12.966  20.521  0.00  0.00    +0.000 A 
ATOM     34  C   UNL     1      -0.291  12.924  20.947  0.00  0.00    +0.000 A 
ATOM     35  C   UNL     1       0.553  11.894  20.513  0.00  0.00    +0.000 A 
ATOM     36  F   UNL     1       1.820  11.910  20.948  0.00  0.00    +0.000 F 
ENDBRANCH  27  29
ENDBRANCH  21  24
ENDBRANCH   6  20
TORSDOF 6
ENDMDL
MODEL 9
REMARK VINA RESULT:      -8.0      2.189      2.685
REMARK  Name = 
REMARK  6 active torsions:
REMARK  status: ('A' for Active; 'I' for Inactive)
REMARK    1  A    between atoms: N_1  and  C_2
REMARK    2  A    between atoms: C_4  and  C_5
REMARK    3  A    between atoms: N_10  and  C_11
REMARK    4  A    between atoms: C_16  and  N_17
REMARK    5  A    between atoms: C_18  and  C_20
REMARK    6  A    between atoms: C_23  and  C_24
REMARK                            x       y       z     vdW  Elec       q    Type
REMARK                         _______ _______ _______ _____ _____    ______ ____
ROOT
ATOM      1  C   UNL     1       3.706   3.591  18.030  0.00  0.00    +0.000 A 
ATOM      2  C   UNL     1       3.709   2.195  18.260  0.00  0.00    +0.000 A 
ATOM      3  C   UNL     1       2.607   1.544  18.802  0.00  0.00    +0.000 A 
ATOM      4  N   UNL     1       1.474   2.167  19.148  0.00  0.00    +0.000 NA
ATOM      5  C   UNL     1       1.455   3.501  18.933  0.00  0.00    +0.000 A 
ATOM      6  C   UNL     1       2.515   4.261  18.409  0.00  0.00    +0.000 A 
ENDROOT
BRANCH   1  11
ATOM      7  C   UNL     1       5.555   6.432  16.842  0.00  0.00    +0.000 C 
ATOM      8  C   UNL     1       6.105   5.918  15.501  0.00  0.00    +0.000 C 
ATOM      9  C   UNL     1       5.326   4.685  15.018  0.00  0.00    +0.000 C 
ATOM     10  C   UNL     1       5.296   3.604  16.103  0.00  0.00    +0.000 C 
ATOM     11  N   UNL     1       4.782   4.168  17.365  0.00  0.00    +0.000 N 
ATOM     12  C   UNL     1       5.570   5.289  17.882  0.00  0.00    +0.000 C 
BRANCH   9  13
ATOM     13  C   UNL     1       5.900   4.122  13.727  0.00  0.00    +0.000 C 
ATOM     14  F   UNL     1       4.963   3.966  12.768  0.00  0.00    +0.000 F 
ATOM     15  F   UNL     1       6.879   4.895  13.210  0.00  0.00    +0.000 F 
ATOM     16  F   UNL     1       6.441   2.900  13.953  0.00  0.00    +0.000 F 
ENDBRANCH   9  13
BRANCH   7  17
ATOM     17  N   UNL     1       6.332   7.589  17.277  0.00  0.00    +0.000 NA
ATOM     18  H   UNL     1       6.847   7.979  16.489  0.00  0.00    +0.000 HD
ATOM     19  H   UNL     1       7.026   7.324  17.973  0.00  0.00    +0.000 HD
ENDBRANCH   7  17
ENDBRANCH   1  11
BRANCH   6  20
ATOM     20  N   UNL     1       2.299   5.650  18.249  0.00  0.00    +0.000 N 
ATOM     21  C   UNL     1       2.413   6.524  19.310  0.00  0.00    +0.000 C 
ATOM     22  O   UNL     1       2.724   6.190  20.451  0.00  0.00    +0.000 OA
ATOM     23  H   UNL     1       1.838   6.020  17.431  0.00  0.00    +0.000 HD
BRANCH  21  24
ATOM     24  C   UNL     1       2.061   7.915  18.995  0.00  0.00    +0.000 A 
ATOM     25  C   UNL     1       2.595   8.566  17.900  0.00  0.00    +0.000 A 
ATOM     26  S   UNL     1       2.068  10.179  17.847  0.00  0.00    +0.000 S 
ATOM     27  C   UNL     1       1.043   9.900  19.214  0.00  0.00    +0.000 A 
ATOM     28  N   UNL     1       1.173   8.694  19.750  0.00  0.00    +0.000 NA
BRANCH  27  29
ATOM     29  C   UNL     1       0.165  10.982  19.692  0.00  0.00    +0.000 A 
ATOM     30  C   UNL     1       0.634  12.024  20.508  0.00  0.00    +0.000 A 
ATOM     31  F   UNL     1       1.928  12.103  20.853  0.00  0.00    +0.000 F 
ATOM     32  C   UNL     1      -0.206  13.035  20.984  0.00  0.00    +0.000 A 
ATOM     33  C   UNL     1      -1.548  13.041  20.641  0.00  0.00    +0.000 A 
ATOM     34  C   UNL     1      -2.045  12.026  19.818  0.00  0.00    +0.000 A 
ATOM     35  C   UNL     1      -1.191  11.019  19.352  0.00  0.00    +0.000 A 
ATOM     36  F   UNL     1      -1.726  10.069  18.574  0.00  0.00    +0.000 F 
ENDBRANCH  27  29
ENDBRANCH  21  24
ENDBRANCH   6  20
TORSDOF 6
ENDMDL
