MODEL 1
REMARK VINA RESULT:      -8.9      0.000      0.000
REMARK  Name = 
REMARK  8 active torsions:
REMARK  status: ('A' for Active; 'I' for Inactive)
REMARK    1  A    between atoms: C_1  and  C_2
REMARK    2  A    between atoms: C_3  and  C_4
REMARK    3  A    between atoms: C_11  and  C_12
REMARK    4  A    between atoms: C_15  and  O_16
REMARK    5  A    between atoms: O_16  and  C_17
REMARK    6  A    between atoms: C_17  and  C_18
REMARK    7  A    between atoms: C_18  and  N_19
REMARK    8  A    between atoms: C_21  and  C_22
REMARK                            x       y       z     vdW  Elec       q    Type
REMARK                         _______ _______ _______ _____ _____    ______ ____
ROOT
ATOM      1  C   UNL     1       3.410   2.178  16.993  0.00  0.00    +0.000 C 
ATOM      2  C   UNL     1       3.990   3.533  17.309  0.00  0.00    +0.000 C 
ATOM      3  C   UNL     1       3.718   4.241  18.427  0.00  0.00    +0.000 C 
ATOM      4  C   UNL     1       4.321   5.608  18.691  0.00  0.00    +0.000 C 
ATOM      5  O   UNL     1       5.311   6.077  17.767  0.00  0.00    +0.000 OA
ATOM      6  C   UNL     1       5.506   5.384  16.612  0.00  0.00    +0.000 A 
ATOM      7  C   UNL     1       6.382   5.994  15.705  0.00  0.00    +0.000 A 
ATOM      8  C   UNL     1       6.710   5.360  14.511  0.00  0.00    +0.000 A 
ATOM      9  C   UNL     1       6.158   4.122  14.240  0.00  0.00    +0.000 A 
ATOM     10  F   UNL     1       6.479   3.490  13.103  0.00  0.00    +0.000 F 
ATOM     11  C   UNL     1       5.274   3.509  15.132  0.00  0.00    +0.000 A 
ATOM     12  C   UNL     1       4.922   4.142  16.338  0.00  0.00    +0.000 A 
ENDROOT
BRANCH   3  13
ATOM     13  C   UNL     1       2.859   3.693  19.506  0.00  0.00    +0.000 A 
ATOM     14  C   UNL     1       1.467   3.856  19.451  0.00  0.00    +0.000 A 
ATOM     15  C   UNL     1       0.661   3.389  20.492  0.00  0.00    +0.000 A 
ATOM     16  C   UNL     1       1.240   2.743  21.579  0.00  0.00    +0.000 A 
ATOM     17  F   UNL     1       0.466   2.301  22.578  0.00  0.00    +0.000 F 
ATOM     18  C   UNL     1       2.614   2.561  21.647  0.00  0.00    +0.000 A 
ATOM     19  C   UNL     1       3.423   3.048  20.619  0.00  0.00    +0.000 A 
ENDBRANCH   3  13
BRANCH   4  20
ATOM     20  C   UNL     1       3.327   6.754  18.810  0.00  0.00    +0.000 A 
ATOM     21  C   UNL     1       2.675   6.950  20.032  0.00  0.00    +0.000 A 
ATOM     22  C   UNL     1       1.808   8.021  20.209  0.00  0.00    +0.000 A 
ATOM     23  C   UNL     1       1.562   8.925  19.168  0.00  0.00    +0.000 A 
ATOM     24  C   UNL     1       2.201   8.737  17.947  0.00  0.00    +0.000 A 
ATOM     25  C   UNL     1       3.100   7.680  17.778  0.00  0.00    +0.000 A 
BRANCH  23  26
ATOM     26  O   UNL     1       0.737  10.019  19.265  0.00  0.00    +0.000 OA
BRANCH  26  27
ATOM     27  C   UNL     1      -0.632   9.743  18.950  0.00  0.00    +0.000 C 
BRANCH  27  28
ATOM     28  C   UNL     1      -1.425  11.031  18.730  0.00  0.00    +0.000 C 
BRANCH  28  29
ATOM     29  N   UNL     1      -1.989  11.015  17.377  0.00  0.00    +0.000 NA
ATOM     30  C   UNL     1      -1.846   9.678  16.751  0.00  0.00    +0.000 C 
ATOM     31  C   UNL     1      -3.254   9.900  16.144  0.00  0.00    +0.000 C 
ATOM     32  C   UNL     1      -3.466  10.802  17.385  0.00  0.00    +0.000 C 
BRANCH  31  33
ATOM     33  C   UNL     1      -3.275  10.609  14.803  0.00  0.00    +0.000 C 
ATOM     34  F   UNL     1      -2.700   9.785  13.885  0.00  0.00    +0.000 F 
ENDBRANCH  31  33
ENDBRANCH  28  29
ENDBRANCH  27  28
ENDBRANCH  26  27
ENDBRANCH  23  26
ENDBRANCH   4  20
TORSDOF 7
ENDMDL
MODEL 2
REMARK VINA RESULT:      -8.8      2.706      3.350
REMARK  Name = 
REMARK  8 active torsions:
REMARK  status: ('A' for Active; 'I' for Inactive)
REMARK    1  A    between atoms: C_1  and  C_2
REMARK    2  A    between atoms: C_3  and  C_4
REMARK    3  A    between atoms: C_11  and  C_12
REMARK    4  A    between atoms: C_15  and  O_16
REMARK    5  A    between atoms: O_16  and  C_17
REMARK    6  A    between atoms: C_17  and  C_18
REMARK    7  A    between atoms: C_18  and  N_19
REMARK    8  A    between atoms: C_21  and  C_22
REMARK                            x       y       z     vdW  Elec       q    Type
REMARK                         _______ _______ _______ _____ _____    ______ ____
ROOT
ATOM      1  C   UNL     1       3.587   2.134  17.106  0.00  0.00    +0.000 C 
ATOM      2  C   UNL     1       4.124   3.519  17.357  0.00  0.00    +0.000 C 
ATOM      3  C   UNL     1       3.820   4.275  18.436  0.00  0.00    +0.000 C 
ATOM      4  C   UNL     1       4.380   5.670  18.635  0.00  0.00    +0.000 C 
ATOM      5  O   UNL     1       5.367   6.121  17.698  0.00  0.00    +0.000 OA
ATOM      6  C   UNL     1       5.594   5.377  16.582  0.00  0.00    +0.000 A 
ATOM      7  C   UNL     1       6.463   5.964  15.654  0.00  0.00    +0.000 A 
ATOM      8  C   UNL     1       6.823   5.281  14.497  0.00  0.00    +0.000 A 
ATOM      9  C   UNL     1       6.309   4.015  14.284  0.00  0.00    +0.000 A 
ATOM     10  F   UNL     1       6.661   3.336  13.184  0.00  0.00    +0.000 F 
ATOM     11  C   UNL     1       5.433   3.423  15.197  0.00  0.00    +0.000 A 
ATOM     12  C   UNL     1       5.049   4.106  16.366  0.00  0.00    +0.000 A 
ENDROOT
BRANCH   3  13
ATOM     13  C   UNL     1       2.964   3.757  19.533  0.00  0.00    +0.000 A 
ATOM     14  C   UNL     1       3.543   3.098  20.627  0.00  0.00    +0.000 A 
ATOM     15  C   UNL     1       2.736   2.563  21.634  0.00  0.00    +0.000 A 
ATOM     16  C   UNL     1       1.354   2.700  21.559  0.00  0.00    +0.000 A 
ATOM     17  F   UNL     1       0.582   2.182  22.523  0.00  0.00    +0.000 F 
ATOM     18  C   UNL     1       0.763   3.360  20.491  0.00  0.00    +0.000 A 
ATOM     19  C   UNL     1       1.566   3.874  19.472  0.00  0.00    +0.000 A 
ENDBRANCH   3  13
BRANCH   4  20
ATOM     20  C   UNL     1       3.352   6.791  18.686  0.00  0.00    +0.000 A 
ATOM     21  C   UNL     1       2.639   6.991  19.872  0.00  0.00    +0.000 A 
ATOM     22  C   UNL     1       1.737   8.042  19.987  0.00  0.00    +0.000 A 
ATOM     23  C   UNL     1       1.517   8.920  18.920  0.00  0.00    +0.000 A 
ATOM     24  C   UNL     1       2.218   8.729  17.733  0.00  0.00    +0.000 A 
ATOM     25  C   UNL     1       3.150   7.693  17.627  0.00  0.00    +0.000 A 
BRANCH  23  26
ATOM     26  O   UNL     1       0.660   9.994  18.957  0.00  0.00    +0.000 OA
BRANCH  26  27
ATOM     27  C   UNL     1      -0.051  10.127  20.193  0.00  0.00    +0.000 C 
BRANCH  27  28
ATOM     28  C   UNL     1       0.005  11.560  20.719  0.00  0.00    +0.000 C 
BRANCH  28  29
ATOM     29  N   UNL     1      -1.219  11.835  21.478  0.00  0.00    +0.000 NA
ATOM     30  C   UNL     1      -1.224  11.107  22.770  0.00  0.00    +0.000 C 
ATOM     31  C   UNL     1      -1.875  12.370  23.388  0.00  0.00    +0.000 C 
ATOM     32  C   UNL     1      -1.128  13.109  22.249  0.00  0.00    +0.000 C 
BRANCH  31  33
ATOM     33  C   UNL     1      -3.389  12.416  23.321  0.00  0.00    +0.000 C 
ATOM     34  F   UNL     1      -3.871  12.213  24.578  0.00  0.00    +0.000 F 
ENDBRANCH  31  33
ENDBRANCH  28  29
ENDBRANCH  27  28
ENDBRANCH  26  27
ENDBRANCH  23  26
ENDBRANCH   4  20
TORSDOF 7
ENDMDL
MODEL 3
REMARK VINA RESULT:      -8.6      1.156      1.411
REMARK  Name = 
REMARK  8 active torsions:
REMARK  status: ('A' for Active; 'I' for Inactive)
REMARK    1  A    between atoms: C_1  and  C_2
REMARK    2  A    between atoms: C_3  and  C_4
REMARK    3  A    between atoms: C_11  and  C_12
REMARK    4  A    between atoms: C_15  and  O_16
REMARK    5  A    between atoms: O_16  and  C_17
REMARK    6  A    between atoms: C_17  and  C_18
REMARK    7  A    between atoms: C_18  and  N_19
REMARK    8  A    between atoms: C_21  and  C_22
REMARK                            x       y       z     vdW  Elec       q    Type
REMARK                         _______ _______ _______ _____ _____    ______ ____
ROOT
ATOM      1  C   UNL     1       3.501   2.158  17.001  0.00  0.00    +0.000 C 
ATOM      2  C   UNL     1       4.058   3.529  17.284  0.00  0.00    +0.000 C 
ATOM      3  C   UNL     1       3.763   4.265  18.378  0.00  0.00    +0.000 C 
ATOM      4  C   UNL     1       4.343   5.648  18.609  0.00  0.00    +0.000 C 
ATOM      5  O   UNL     1       5.337   6.104  17.683  0.00  0.00    +0.000 OA
ATOM      6  C   UNL     1       5.556   5.382  16.552  0.00  0.00    +0.000 A 
ATOM      7  C   UNL     1       6.435   5.977  15.638  0.00  0.00    +0.000 A 
ATOM      8  C   UNL     1       6.787   5.314  14.467  0.00  0.00    +0.000 A 
ATOM      9  C   UNL     1       6.255   4.061  14.226  0.00  0.00    +0.000 A 
ATOM     10  F   UNL     1       6.599   3.401  13.112  0.00  0.00    +0.000 F 
ATOM     11  C   UNL     1       5.369   3.461  15.124  0.00  0.00    +0.000 A 
ATOM     12  C   UNL     1       4.993   4.124  16.307  0.00  0.00    +0.000 A 
ENDROOT
BRANCH   3  13
ATOM     13  C   UNL     1       2.898   3.736  19.462  0.00  0.00    +0.000 A 
ATOM     14  C   UNL     1       1.505   3.888  19.391  0.00  0.00    +0.000 A 
ATOM     15  C   UNL     1       0.694   3.439  20.436  0.00  0.00    +0.000 A 
ATOM     16  C   UNL     1       1.268   2.824  21.543  0.00  0.00    +0.000 A 
ATOM     17  F   UNL     1       0.489   2.399  22.546  0.00  0.00    +0.000 F 
ATOM     18  C   UNL     1       2.643   2.653  21.627  0.00  0.00    +0.000 A 
ATOM     19  C   UNL     1       3.457   3.122  20.595  0.00  0.00    +0.000 A 
ENDBRANCH   3  13
BRANCH   4  20
ATOM     20  C   UNL     1       3.331   6.782  18.683  0.00  0.00    +0.000 A 
ATOM     21  C   UNL     1       2.630   6.977  19.877  0.00  0.00    +0.000 A 
ATOM     22  C   UNL     1       1.744   8.038  20.014  0.00  0.00    +0.000 A 
ATOM     23  C   UNL     1       1.528   8.934  18.960  0.00  0.00    +0.000 A 
ATOM     24  C   UNL     1       2.216   8.748  17.765  0.00  0.00    +0.000 A 
ATOM     25  C   UNL     1       3.133   7.700  17.637  0.00  0.00    +0.000 A 
BRANCH  23  26
ATOM     26  O   UNL     1       0.687  10.018  19.018  0.00  0.00    +0.000 OA
BRANCH  26  27
ATOM     27  C   UNL     1      -0.704   9.676  19.004  0.00  0.00    +0.000 C 
BRANCH  27  28
ATOM     28  C   UNL     1      -1.349  10.015  17.661  0.00  0.00    +0.000 C 
BRANCH  28  29
ATOM     29  N   UNL     1      -2.791  10.189  17.858  0.00  0.00    +0.000 NA
ATOM     30  C   UNL     1      -3.108  11.561  18.324  0.00  0.00    +0.000 C 
ATOM     31  C   UNL     1      -4.358  11.496  17.411  0.00  0.00    +0.000 C 
ATOM     32  C   UNL     1      -3.498  10.509  16.583  0.00  0.00    +0.000 C 
BRANCH  31  33
ATOM     33  C   UNL     1      -5.600  10.910  18.055  0.00  0.00    +0.000 C 
ATOM     34  F   UNL     1      -6.664  11.677  17.690  0.00  0.00    +0.000 F 
ENDBRANCH  31  33
ENDBRANCH  28  29
ENDBRANCH  27  28
ENDBRANCH  26  27
ENDBRANCH  23  26
ENDBRANCH   4  20
TORSDOF 7
ENDMDL
MODEL 4
REMARK VINA RESULT:      -8.6      0.530      1.293
REMARK  Name = 
REMARK  8 active torsions:
REMARK  status: ('A' for Active; 'I' for Inactive)
REMARK    1  A    between atoms: C_1  and  C_2
REMARK    2  A    between atoms: C_3  and  C_4
REMARK    3  A    between atoms: C_11  and  C_12
REMARK    4  A    between atoms: C_15  and  O_16
REMARK    5  A    between atoms: O_16  and  C_17
REMARK    6  A    between atoms: C_17  and  C_18
REMARK    7  A    between atoms: C_18  and  N_19
REMARK    8  A    between atoms: C_21  and  C_22
REMARK                            x       y       z     vdW  Elec       q    Type
REMARK                         _______ _______ _______ _____ _____    ______ ____
ROOT
ATOM      1  C   UNL     1       3.455   2.149  17.098  0.00  0.00    +0.000 C 
ATOM      2  C   UNL     1       4.066   3.502  17.357  0.00  0.00    +0.000 C 
ATOM      3  C   UNL     1       3.804   4.266  18.440  0.00  0.00    +0.000 C 
ATOM      4  C   UNL     1       4.439   5.629  18.647  0.00  0.00    +0.000 C 
ATOM      5  O   UNL     1       5.446   6.031  17.710  0.00  0.00    +0.000 OA
ATOM      6  C   UNL     1       5.632   5.283  16.589  0.00  0.00    +0.000 A 
ATOM      7  C   UNL     1       6.529   5.829  15.662  0.00  0.00    +0.000 A 
ATOM      8  C   UNL     1       6.849   5.134  14.501  0.00  0.00    +0.000 A 
ATOM      9  C   UNL     1       6.268   3.899  14.282  0.00  0.00    +0.000 A 
ATOM     10  F   UNL     1       6.582   3.209  13.177  0.00  0.00    +0.000 F 
ATOM     11  C   UNL     1       5.364   3.349  15.193  0.00  0.00    +0.000 A 
ATOM     12  C   UNL     1       5.019   4.044  16.366  0.00  0.00    +0.000 A 
ENDROOT
BRANCH   3  13
ATOM     13  C   UNL     1       2.925   3.789  19.536  0.00  0.00    +0.000 A 
ATOM     14  C   UNL     1       3.478   3.160  20.661  0.00  0.00    +0.000 A 
ATOM     15  C   UNL     1       2.648   2.662  21.669  0.00  0.00    +0.000 A 
ATOM     16  C   UNL     1       1.268   2.805  21.563  0.00  0.00    +0.000 A 
ATOM     17  F   UNL     1       0.475   2.322  22.527  0.00  0.00    +0.000 F 
ATOM     18  C   UNL     1       0.702   3.435  20.463  0.00  0.00    +0.000 A 
ATOM     19  C   UNL     1       1.529   3.912  19.445  0.00  0.00    +0.000 A 
ENDBRANCH   3  13
BRANCH   4  20
ATOM     20  C   UNL     1       3.472   6.803  18.707  0.00  0.00    +0.000 A 
ATOM     21  C   UNL     1       3.348   7.625  17.582  0.00  0.00    +0.000 A 
ATOM     22  C   UNL     1       2.432   8.669  17.566  0.00  0.00    +0.000 A 
ATOM     23  C   UNL     1       1.616   8.926  18.674  0.00  0.00    +0.000 A 
ATOM     24  C   UNL     1       1.734   8.118  19.800  0.00  0.00    +0.000 A 
ATOM     25  C   UNL     1       2.631   7.046  19.806  0.00  0.00    +0.000 A 
BRANCH  23  26
ATOM     26  O   UNL     1       0.673   9.923  18.733  0.00  0.00    +0.000 OA
BRANCH  26  27
ATOM     27  C   UNL     1      -0.291   9.751  19.777  0.00  0.00    +0.000 C 
BRANCH  27  28
ATOM     28  C   UNL     1      -1.431  10.761  19.659  0.00  0.00    +0.000 C 
BRANCH  28  29
ATOM     29  N   UNL     1      -1.826  10.867  18.250  0.00  0.00    +0.000 NA
ATOM     30  C   UNL     1      -2.552   9.653  17.804  0.00  0.00    +0.000 C 
ATOM     31  C   UNL     1      -3.468  10.598  16.987  0.00  0.00    +0.000 C 
ATOM     32  C   UNL     1      -3.095  11.632  18.079  0.00  0.00    +0.000 C 
BRANCH  31  33
ATOM     33  C   UNL     1      -2.984  10.916  15.585  0.00  0.00    +0.000 C 
ATOM     34  F   UNL     1      -2.438   9.784  15.064  0.00  0.00    +0.000 F 
ENDBRANCH  31  33
ENDBRANCH  28  29
ENDBRANCH  27  28
ENDBRANCH  26  27
ENDBRANCH  23  26
ENDBRANCH   4  20
TORSDOF 7
ENDMDL
MODEL 5
REMARK VINA RESULT:      -8.5      0.545      1.063
REMARK  Name = 
REMARK  8 active torsions:
REMARK  status: ('A' for Active; 'I' for Inactive)
REMARK    1  A    between atoms: C_1  and  C_2
REMARK    2  A    between atoms: C_3  and  C_4
REMARK    3  A    between atoms: C_11  and  C_12
REMARK    4  A    between atoms: C_15  and  O_16
REMARK    5  A    between atoms: O_16  and  C_17
REMARK    6  A    between atoms: C_17  and  C_18
REMARK    7  A    between atoms: C_18  and  N_19
REMARK    8  A    between atoms: C_21  and  C_22
REMARK                            x       y       z     vdW  Elec       q    Type
REMARK                         _______ _______ _______ _____ _____    ______ ____
ROOT
ATOM      1  C   UNL     1       3.343   2.150  16.976  0.00  0.00    +0.000 C 
ATOM      2  C   UNL     1       3.966   3.482  17.305  0.00  0.00    +0.000 C 
ATOM      3  C   UNL     1       3.734   4.176  18.441  0.00  0.00    +0.000 C 
ATOM      4  C   UNL     1       4.379   5.522  18.718  0.00  0.00    +0.000 C 
ATOM      5  O   UNL     1       5.364   5.981  17.783  0.00  0.00    +0.000 OA
ATOM      6  C   UNL     1       5.519   5.305  16.613  0.00  0.00    +0.000 A 
ATOM      7  C   UNL     1       6.395   5.907  15.701  0.00  0.00    +0.000 A 
ATOM      8  C   UNL     1       6.683   5.286  14.490  0.00  0.00    +0.000 A 
ATOM      9  C   UNL     1       6.092   4.069  14.207  0.00  0.00    +0.000 A 
ATOM     10  F   UNL     1       6.375   3.450  13.053  0.00  0.00    +0.000 F 
ATOM     11  C   UNL     1       5.209   3.464  15.104  0.00  0.00    +0.000 A 
ATOM     12  C   UNL     1       4.896   4.084  16.327  0.00  0.00    +0.000 A 
ENDROOT
BRANCH   3  13
ATOM     13  C   UNL     1       2.880   3.632  19.526  0.00  0.00    +0.000 A 
ATOM     14  C   UNL     1       1.486   3.767  19.461  0.00  0.00    +0.000 A 
ATOM     15  C   UNL     1       0.683   3.303  20.507  0.00  0.00    +0.000 A 
ATOM     16  C   UNL     1       1.270   2.690  21.609  0.00  0.00    +0.000 A 
ATOM     17  F   UNL     1       0.500   2.251  22.612  0.00  0.00    +0.000 F 
ATOM     18  C   UNL     1       2.647   2.535  21.686  0.00  0.00    +0.000 A 
ATOM     19  C   UNL     1       3.451   3.019  20.653  0.00  0.00    +0.000 A 
ENDBRANCH   3  13
BRANCH   4  20
ATOM     20  C   UNL     1       3.419   6.692  18.876  0.00  0.00    +0.000 A 
ATOM     21  C   UNL     1       3.189   7.522  17.775  0.00  0.00    +0.000 A 
ATOM     22  C   UNL     1       2.272   8.563  17.852  0.00  0.00    +0.000 A 
ATOM     23  C   UNL     1       1.562   8.808  19.033  0.00  0.00    +0.000 A 
ATOM     24  C   UNL     1       1.785   7.992  20.137  0.00  0.00    +0.000 A 
ATOM     25  C   UNL     1       2.682   6.923  20.051  0.00  0.00    +0.000 A 
BRANCH  23  26
ATOM     26  O   UNL     1       0.625   9.802  19.187  0.00  0.00    +0.000 OA
BRANCH  26  27
ATOM     27  C   UNL     1      -0.172  10.035  18.021  0.00  0.00    +0.000 C 
BRANCH  27  28
ATOM     28  C   UNL     1      -1.663  10.037  18.354  0.00  0.00    +0.000 C 
BRANCH  28  29
ATOM     29  N   UNL     1      -2.427   9.891  17.111  0.00  0.00    +0.000 NA
ATOM     30  C   UNL     1      -3.820  10.372  17.277  0.00  0.00    +0.000 C 
ATOM     31  C   UNL     1      -3.707  10.949  15.843  0.00  0.00    +0.000 C 
ATOM     32  C   UNL     1      -2.196  11.028  16.172  0.00  0.00    +0.000 C 
BRANCH  31  33
ATOM     33  C   UNL     1      -4.090   9.993  14.729  0.00  0.00    +0.000 C 
ATOM     34  F   UNL     1      -3.386  10.341  13.618  0.00  0.00    +0.000 F 
ENDBRANCH  31  33
ENDBRANCH  28  29
ENDBRANCH  27  28
ENDBRANCH  26  27
ENDBRANCH  23  26
ENDBRANCH   4  20
TORSDOF 7
ENDMDL
MODEL 6
REMARK VINA RESULT:      -8.5      2.822      3.345
REMARK  Name = 
REMARK  8 active torsions:
REMARK  status: ('A' for Active; 'I' for Inactive)
REMARK    1  A    between atoms: C_1  and  C_2
REMARK    2  A    between atoms: C_3  and  C_4
REMARK    3  A    between atoms: C_11  and  C_12
REMARK    4  A    between atoms: C_15  and  O_16
REMARK    5  A    between atoms: O_16  and  C_17
REMARK    6  A    between atoms: C_17  and  C_18
REMARK    7  A    between atoms: C_18  and  N_19
REMARK    8  A    between atoms: C_21  and  C_22
REMARK                            x       y       z     vdW  Elec       q    Type
REMARK                         _______ _______ _______ _____ _____    ______ ____
ROOT
ATOM      1  C   UNL     1       3.560   2.076  17.064  0.00  0.00    +0.000 C 
ATOM      2  C   UNL     1       4.092   3.459  17.335  0.00  0.00    +0.000 C 
ATOM      3  C   UNL     1       3.782   4.200  18.423  0.00  0.00    +0.000 C 
ATOM      4  C   UNL     1       4.338   5.594  18.643  0.00  0.00    +0.000 C 
ATOM      5  O   UNL     1       5.326   6.060  17.715  0.00  0.00    +0.000 OA
ATOM      6  C   UNL     1       5.560   5.331  16.590  0.00  0.00    +0.000 A 
ATOM      7  C   UNL     1       6.430   5.934  15.673  0.00  0.00    +0.000 A 
ATOM      8  C   UNL     1       6.796   5.266  14.509  0.00  0.00    +0.000 A 
ATOM      9  C   UNL     1       6.286   4.002  14.277  0.00  0.00    +0.000 A 
ATOM     10  F   UNL     1       6.645   3.339  13.170  0.00  0.00    +0.000 F 
ATOM     11  C   UNL     1       5.409   3.395  15.179  0.00  0.00    +0.000 A 
ATOM     12  C   UNL     1       5.019   4.062  16.355  0.00  0.00    +0.000 A 
ENDROOT
BRANCH   3  13
ATOM     13  C   UNL     1       2.924   3.665  19.509  0.00  0.00    +0.000 A 
ATOM     14  C   UNL     1       1.528   3.773  19.423  0.00  0.00    +0.000 A 
ATOM     15  C   UNL     1       0.721   3.319  20.470  0.00  0.00    +0.000 A 
ATOM     16  C   UNL     1       1.305   2.743  21.594  0.00  0.00    +0.000 A 
ATOM     17  F   UNL     1       0.530   2.314  22.598  0.00  0.00    +0.000 F 
ATOM     18  C   UNL     1       2.683   2.616  21.693  0.00  0.00    +0.000 A 
ATOM     19  C   UNL     1       3.492   3.090  20.658  0.00  0.00    +0.000 A 
ENDBRANCH   3  13
BRANCH   4  20
ATOM     20  C   UNL     1       3.306   6.712  18.704  0.00  0.00    +0.000 A 
ATOM     21  C   UNL     1       2.633   6.934  19.909  0.00  0.00    +0.000 A 
ATOM     22  C   UNL     1       1.730   7.983  20.033  0.00  0.00    +0.000 A 
ATOM     23  C   UNL     1       1.469   8.837  18.955  0.00  0.00    +0.000 A 
ATOM     24  C   UNL     1       2.130   8.623  17.750  0.00  0.00    +0.000 A 
ATOM     25  C   UNL     1       3.063   7.589  17.633  0.00  0.00    +0.000 A 
BRANCH  23  26
ATOM     26  O   UNL     1       0.609   9.907  18.999  0.00  0.00    +0.000 OA
BRANCH  26  27
ATOM     27  C   UNL     1       1.221  11.159  18.671  0.00  0.00    +0.000 C 
BRANCH  27  28
ATOM     28  C   UNL     1       1.352  12.056  19.901  0.00  0.00    +0.000 C 
BRANCH  28  29
ATOM     29  N   UNL     1       2.284  13.146  19.595  0.00  0.00    +0.000 NA
ATOM     30  C   UNL     1       2.670  13.137  18.163  0.00  0.00    +0.000 C 
ATOM     31  C   UNL     1       2.608  14.684  18.218  0.00  0.00    +0.000 C 
ATOM     32  C   UNL     1       1.577  14.437  19.347  0.00  0.00    +0.000 C 
BRANCH  31  33
ATOM     33  C   UNL     1       3.895  15.368  18.638  0.00  0.00    +0.000 C 
ATOM     34  F   UNL     1       3.799  16.684  18.303  0.00  0.00    +0.000 F 
ENDBRANCH  31  33
ENDBRANCH  28  29
ENDBRANCH  27  28
ENDBRANCH  26  27
ENDBRANCH  23  26
ENDBRANCH   4  20
TORSDOF 7
ENDMDL
MODEL 7
REMARK VINA RESULT:      -8.5      2.496      3.091
REMARK  Name = 
REMARK  8 active torsions:
REMARK  status: ('A' for Active; 'I' for Inactive)
REMARK    1  A    between atoms: C_1  and  C_2
REMARK    2  A    between atoms: C_3  and  C_4
REMARK    3  A    between atoms: C_11  and  C_12
REMARK    4  A    between atoms: C_15  and  O_16
REMARK    5  A    between atoms: O_16  and  C_17
REMARK    6  A    between atoms: C_17  and  C_18
REMARK    7  A    between atoms: C_18  and  N_19
REMARK    8  A    between atoms: C_21  and  C_22
REMARK                            x       y       z     vdW  Elec       q    Type
REMARK                         _______ _______ _______ _____ _____    ______ ____
ROOT
ATOM      1  C   UNL     1       3.528   2.117  17.016  0.00  0.00    +0.000 C 
ATOM      2  C   UNL     1       4.099   3.477  17.325  0.00  0.00    +0.000 C 
ATOM      3  C   UNL     1       3.810   4.195  18.433  0.00  0.00    +0.000 C 
ATOM      4  C   UNL     1       4.405   5.567  18.691  0.00  0.00    +0.000 C 
ATOM      5  O   UNL     1       5.407   6.030  17.775  0.00  0.00    +0.000 OA
ATOM      6  C   UNL     1       5.619   5.326  16.631  0.00  0.00    +0.000 A 
ATOM      7  C   UNL     1       6.507   5.929  15.729  0.00  0.00    +0.000 A 
ATOM      8  C   UNL     1       6.853   5.284  14.547  0.00  0.00    +0.000 A 
ATOM      9  C   UNL     1       6.308   4.041  14.281  0.00  0.00    +0.000 A 
ATOM     10  F   UNL     1       6.648   3.399  13.155  0.00  0.00    +0.000 F 
ATOM     11  C   UNL     1       5.414   3.435  15.167  0.00  0.00    +0.000 A 
ATOM     12  C   UNL     1       5.043   4.080  16.361  0.00  0.00    +0.000 A 
ENDROOT
BRANCH   3  13
ATOM     13  C   UNL     1       2.938   3.656  19.505  0.00  0.00    +0.000 A 
ATOM     14  C   UNL     1       1.544   3.790  19.415  0.00  0.00    +0.000 A 
ATOM     15  C   UNL     1       0.724   3.331  20.448  0.00  0.00    +0.000 A 
ATOM     16  C   UNL     1       1.292   2.723  21.564  0.00  0.00    +0.000 A 
ATOM     17  F   UNL     1       0.504   2.289  22.556  0.00  0.00    +0.000 F 
ATOM     18  C   UNL     1       2.667   2.570  21.666  0.00  0.00    +0.000 A 
ATOM     19  C   UNL     1       3.489   3.049  20.645  0.00  0.00    +0.000 A 
ENDBRANCH   3  13
BRANCH   4  20
ATOM     20  C   UNL     1       3.406   6.711  18.784  0.00  0.00    +0.000 A 
ATOM     21  C   UNL     1       3.216   7.526  17.664  0.00  0.00    +0.000 A 
ATOM     22  C   UNL     1       2.268   8.542  17.679  0.00  0.00    +0.000 A 
ATOM     23  C   UNL     1       1.486   8.777  18.816  0.00  0.00    +0.000 A 
ATOM     24  C   UNL     1       1.669   7.975  19.939  0.00  0.00    +0.000 A 
ATOM     25  C   UNL     1       2.598   6.931  19.913  0.00  0.00    +0.000 A 
BRANCH  23  26
ATOM     26  O   UNL     1       0.515   9.745  18.908  0.00  0.00    +0.000 OA
BRANCH  26  27
ATOM     27  C   UNL     1       1.029  11.081  18.947  0.00  0.00    +0.000 C 
BRANCH  27  28
ATOM     28  C   UNL     1      -0.088  12.103  19.153  0.00  0.00    +0.000 C 
BRANCH  28  29
ATOM     29  N   UNL     1      -0.772  11.811  20.417  0.00  0.00    +0.000 NA
ATOM     30  C   UNL     1       0.174  11.845  21.559  0.00  0.00    +0.000 C 
ATOM     31  C   UNL     1      -0.961  12.514  22.375  0.00  0.00    +0.000 C 
ATOM     32  C   UNL     1      -1.434  13.019  20.989  0.00  0.00    +0.000 C 
BRANCH  31  33
ATOM     33  C   UNL     1      -1.900  11.555  23.083  0.00  0.00    +0.000 C 
ATOM     34  F   UNL     1      -2.751  12.292  23.848  0.00  0.00    +0.000 F 
ENDBRANCH  31  33
ENDBRANCH  28  29
ENDBRANCH  27  28
ENDBRANCH  26  27
ENDBRANCH  23  26
ENDBRANCH   4  20
TORSDOF 7
ENDMDL
MODEL 8
REMARK VINA RESULT:      -8.4      1.140      1.593
REMARK  Name = 
REMARK  8 active torsions:
REMARK  status: ('A' for Active; 'I' for Inactive)
REMARK    1  A    between atoms: C_1  and  C_2
REMARK    2  A    between atoms: C_3  and  C_4
REMARK    3  A    between atoms: C_11  and  C_12
REMARK    4  A    between atoms: C_15  and  O_16
REMARK    5  A    between atoms: O_16  and  C_17
REMARK    6  A    between atoms: C_17  and  C_18
REMARK    7  A    between atoms: C_18  and  N_19
REMARK    8  A    between atoms: C_21  and  C_22
REMARK                            x       y       z     vdW  Elec       q    Type
REMARK                         _______ _______ _______ _____ _____    ______ ____
ROOT
ATOM      1  C   UNL     1       3.587   2.127  17.160  0.00  0.00    +0.000 C 
ATOM      2  C   UNL     1       4.107   3.522  17.392  0.00  0.00    +0.000 C 
ATOM      3  C   UNL     1       3.780   4.295  18.451  0.00  0.00    +0.000 C 
ATOM      4  C   UNL     1       4.324   5.700  18.631  0.00  0.00    +0.000 C 
ATOM      5  O   UNL     1       5.318   6.143  17.698  0.00  0.00    +0.000 OA
ATOM      6  C   UNL     1       5.568   5.380  16.600  0.00  0.00    +0.000 A 
ATOM      7  C   UNL     1       6.442   5.959  15.672  0.00  0.00    +0.000 A 
ATOM      8  C   UNL     1       6.824   5.257  14.533  0.00  0.00    +0.000 A 
ATOM      9  C   UNL     1       6.326   3.982  14.338  0.00  0.00    +0.000 A 
ATOM     10  F   UNL     1       6.700   3.286  13.256  0.00  0.00    +0.000 F 
ATOM     11  C   UNL     1       5.445   3.398  15.251  0.00  0.00    +0.000 A 
ATOM     12  C   UNL     1       5.039   4.099  16.401  0.00  0.00    +0.000 A 
ENDROOT
BRANCH   3  13
ATOM     13  C   UNL     1       2.916   3.790  19.547  0.00  0.00    +0.000 A 
ATOM     14  C   UNL     1       3.490   3.210  20.688  0.00  0.00    +0.000 A 
ATOM     15  C   UNL     1       2.678   2.685  21.696  0.00  0.00    +0.000 A 
ATOM     16  C   UNL     1       1.294   2.754  21.575  0.00  0.00    +0.000 A 
ATOM     17  F   UNL     1       0.517   2.246  22.540  0.00  0.00    +0.000 F 
ATOM     18  C   UNL     1       0.706   3.335  20.460  0.00  0.00    +0.000 A 
ATOM     19  C   UNL     1       1.517   3.839  19.441  0.00  0.00    +0.000 A 
ENDBRANCH   3  13
BRANCH   4  20
ATOM     20  C   UNL     1       3.283   6.811  18.647  0.00  0.00    +0.000 A 
ATOM     21  C   UNL     1       2.586   7.057  19.833  0.00  0.00    +0.000 A 
ATOM     22  C   UNL     1       1.674   8.102  19.915  0.00  0.00    +0.000 A 
ATOM     23  C   UNL     1       1.428   8.928  18.812  0.00  0.00    +0.000 A 
ATOM     24  C   UNL     1       2.113   8.691  17.625  0.00  0.00    +0.000 A 
ATOM     25  C   UNL     1       3.056   7.661  17.551  0.00  0.00    +0.000 A 
BRANCH  23  26
ATOM     26  O   UNL     1       0.559   9.993  18.814  0.00  0.00    +0.000 OA
BRANCH  26  27
ATOM     27  C   UNL     1       0.618  10.789  20.003  0.00  0.00    +0.000 C 
BRANCH  27  28
ATOM     28  C   UNL     1      -0.474  11.858  20.015  0.00  0.00    +0.000 C 
BRANCH  28  29
ATOM     29  N   UNL     1      -1.657  11.335  19.323  0.00  0.00    +0.000 NA
ATOM     30  C   UNL     1      -2.878  12.083  19.709  0.00  0.00    +0.000 C 
ATOM     31  C   UNL     1      -3.323  11.962  18.229  0.00  0.00    +0.000 C 
ATOM     32  C   UNL     1      -1.800  11.901  17.950  0.00  0.00    +0.000 C 
BRANCH  31  33
ATOM     33  C   UNL     1      -4.106  10.708  17.891  0.00  0.00    +0.000 C 
ATOM     34  F   UNL     1      -4.558  10.829  16.612  0.00  0.00    +0.000 F 
ENDBRANCH  31  33
ENDBRANCH  28  29
ENDBRANCH  27  28
ENDBRANCH  26  27
ENDBRANCH  23  26
ENDBRANCH   4  20
TORSDOF 7
ENDMDL
MODEL 9
REMARK VINA RESULT:      -8.4      2.586      3.341
REMARK  Name = 
REMARK  8 active torsions:
REMARK  status: ('A' for Active; 'I' for Inactive)
REMARK    1  A    between atoms: C_1  and  C_2
REMARK    2  A    between atoms: C_3  and  C_4
REMARK    3  A    between atoms: C_11  and  C_12
REMARK    4  A    between atoms: C_15  and  O_16
REMARK    5  A    between atoms: O_16  and  C_17
REMARK    6  A    between atoms: C_17  and  C_18
REMARK    7  A    between atoms: C_18  and  N_19
REMARK    8  A    between atoms: C_21  and  C_22
REMARK                            x       y       z     vdW  Elec       q    Type
REMARK                         _______ _______ _______ _____ _____    ______ ____
ROOT
ATOM      1  C   UNL     1       3.499   2.150  17.111  0.00  0.00    +0.000 C 
ATOM      2  C   UNL     1       4.044   3.533  17.358  0.00  0.00    +0.000 C 
ATOM      3  C   UNL     1       3.745   4.293  18.435  0.00  0.00    +0.000 C 
ATOM      4  C   UNL     1       4.314   5.686  18.630  0.00  0.00    +0.000 C 
ATOM      5  O   UNL     1       5.302   6.128  17.690  0.00  0.00    +0.000 OA
ATOM      6  C   UNL     1       5.524   5.380  16.576  0.00  0.00    +0.000 A 
ATOM      7  C   UNL     1       6.395   5.960  15.645  0.00  0.00    +0.000 A 
ATOM      8  C   UNL     1       6.750   5.271  14.490  0.00  0.00    +0.000 A 
ATOM      9  C   UNL     1       6.228   4.008  14.281  0.00  0.00    +0.000 A 
ATOM     10  F   UNL     1       6.575   3.324  13.183  0.00  0.00    +0.000 F 
ATOM     11  C   UNL     1       5.350   3.423  15.197  0.00  0.00    +0.000 A 
ATOM     12  C   UNL     1       4.972   4.112  16.364  0.00  0.00    +0.000 A 
ENDROOT
BRANCH   3  13
ATOM     13  C   UNL     1       2.889   3.784  19.534  0.00  0.00    +0.000 A 
ATOM     14  C   UNL     1       3.470   3.193  20.666  0.00  0.00    +0.000 A 
ATOM     15  C   UNL     1       2.664   2.664  21.677  0.00  0.00    +0.000 A 
ATOM     16  C   UNL     1       1.279   2.740  21.568  0.00  0.00    +0.000 A 
ATOM     17  F   UNL     1       0.508   2.228  22.536  0.00  0.00    +0.000 F 
ATOM     18  C   UNL     1       0.684   3.332  20.463  0.00  0.00    +0.000 A 
ATOM     19  C   UNL     1       1.488   3.839  19.441  0.00  0.00    +0.000 A 
ENDBRANCH   3  13
BRANCH   4  20
ATOM     20  C   UNL     1       3.293   6.813  18.679  0.00  0.00    +0.000 A 
ATOM     21  C   UNL     1       2.592   7.030  19.870  0.00  0.00    +0.000 A 
ATOM     22  C   UNL     1       1.697   8.086  19.983  0.00  0.00    +0.000 A 
ATOM     23  C   UNL     1       1.472   8.955  18.908  0.00  0.00    +0.000 A 
ATOM     24  C   UNL     1       2.159   8.746  17.717  0.00  0.00    +0.000 A 
ATOM     25  C   UNL     1       3.085   7.704  17.612  0.00  0.00    +0.000 A 
BRANCH  23  26
ATOM     26  O   UNL     1       0.621  10.033  18.943  0.00  0.00    +0.000 OA
BRANCH  26  27
ATOM     27  C   UNL     1      -0.253  10.047  20.077  0.00  0.00    +0.000 C 
BRANCH  27  28
ATOM     28  C   UNL     1      -1.282  11.172  19.975  0.00  0.00    +0.000 C 
BRANCH  28  29
ATOM     29  N   UNL     1      -0.992  12.175  21.005  0.00  0.00    +0.000 NA
ATOM     30  C   UNL     1      -2.006  13.257  21.002  0.00  0.00    +0.000 C 
ATOM     31  C   UNL     1      -1.905  13.248  22.548  0.00  0.00    +0.000 C 
ATOM     32  C   UNL     1      -1.501  11.766  22.347  0.00  0.00    +0.000 C 
BRANCH  31  33
ATOM     33  C   UNL     1      -0.834  14.149  23.132  0.00  0.00    +0.000 C 
ATOM     34  F   UNL     1      -1.138  14.367  24.441  0.00  0.00    +0.000 F 
ENDBRANCH  31  33
ENDBRANCH  28  29
ENDBRANCH  27  28
ENDBRANCH  26  27
ENDBRANCH  23  26
ENDBRANCH   4  20
TORSDOF 7
ENDMDL
