MODEL 1
REMARK VINA RESULT:      -9.4      0.000      0.000
REMARK  Name = 
REMARK  8 active torsions:
REMARK  status: ('A' for Active; 'I' for Inactive)
REMARK    1  A    between atoms: O_1  and  C_2
REMARK    2  A    between atoms: C_2  and  C_3
REMARK    3  A    between atoms: C_4  and  C_5
REMARK    4  A    between atoms: C_10  and  C_11
REMARK    5  A    between atoms: C_15  and  O_16
REMARK    6  A    between atoms: N_20  and  C_21
REMARK    7  A    between atoms: C_21  and  C_22
REMARK    8  A    between atoms: C_22  and  C_23
REMARK                            x       y       z     vdW  Elec       q    Type
REMARK                         _______ _______ _______ _____ _____    ______ ____
ROOT
ATOM      1  C   UNL     1       4.284   6.119  16.973  0.00  0.00    +0.000 C 
ATOM      2  C   UNL     1       5.609   6.487  16.254  0.00  0.00    +0.000 C 
ATOM      3  C   UNL     1       5.935   5.412  15.200  0.00  0.00    +0.000 C 
ATOM      4  C   UNL     1       5.881   3.970  15.698  0.00  0.00    +0.000 C 
ATOM      5  C   UNL     1       4.795   3.668  16.733  0.00  0.00    +0.000 C 
ATOM      6  C   UNL     1       4.493   4.791  17.767  0.00  0.00    +0.000 C 
ATOM      7  C   UNL     1       5.685   4.999  18.739  0.00  0.00    +0.000 C 
ATOM      8  C   UNL     1       6.913   5.766  18.248  0.00  0.00    +0.000 C 
ATOM      9  N   UNL     1       6.787   6.666  17.114  0.00  0.00    +0.000 NA
ENDROOT
BRANCH   6  10
ATOM     10  C   UNL     1       3.243   4.321  18.574  0.00  0.00    +0.000 A 
ATOM     11  C   UNL     1       2.037   3.975  17.930  0.00  0.00    +0.000 A 
ATOM     12  C   UNL     1       0.949   3.449  18.636  0.00  0.00    +0.000 A 
ATOM     13  C   UNL     1       1.026   3.281  20.012  0.00  0.00    +0.000 A 
ATOM     14  C   UNL     1       2.179   3.684  20.674  0.00  0.00    +0.000 A 
ATOM     15  C   UNL     1       3.265   4.214  19.975  0.00  0.00    +0.000 A 
BRANCH  14  16
ATOM     16  O   UNL     1       2.293   3.560  22.027  0.00  0.00    +0.000 OA
ATOM     17  H   UNL     1       1.441   3.257  22.382  0.00  0.00    +0.000 HD
ENDBRANCH  14  16
ENDBRANCH   6  10
BRANCH   1  19
ATOM     18  C   UNL     1       2.489   7.713  17.729  0.00  0.00    +0.000 C 
ATOM     19  C   UNL     1       3.771   7.307  17.771  0.00  0.00    +0.000 C 
BRANCH  18  20
ATOM     20  C   UNL     1       1.956   8.942  18.381  0.00  0.00    +0.000 C 
BRANCH  20  21
ATOM     21  O   UNL     1       1.960   9.961  17.391  0.00  0.00    +0.000 OA
ATOM     22  H   UNL     1       2.152   9.530  16.544  0.00  0.00    +0.000 HD
ENDBRANCH  20  21
ENDBRANCH  18  20
ENDBRANCH   1  19
BRANCH   9  23
ATOM     23  C   UNL     1       7.133   8.068  17.388  0.00  0.00    +0.000 C 
BRANCH  23  24
ATOM     24  C   UNL     1       8.316   8.238  18.363  0.00  0.00    +0.000 C 
BRANCH  24  25
ATOM     25  C   UNL     1       8.696   9.693  18.516  0.00  0.00    +0.000 A 
ATOM     26  C   UNL     1       9.461  10.117  19.616  0.00  0.00    +0.000 A 
ATOM     27  C   UNL     1       9.785  11.467  19.780  0.00  0.00    +0.000 A 
ATOM     28  C   UNL     1       9.340  12.400  18.845  0.00  0.00    +0.000 A 
ATOM     29  C   UNL     1       8.583  11.989  17.746  0.00  0.00    +0.000 A 
ATOM     30  C   UNL     1       8.260  10.644  17.583  0.00  0.00    +0.000 A 
ENDBRANCH  24  25
ENDBRANCH  23  24
ENDBRANCH   9  23
TORSDOF 8
ENDMDL
MODEL 2
REMARK VINA RESULT:      -9.4      0.878      1.513
REMARK  Name = 
REMARK  8 active torsions:
REMARK  status: ('A' for Active; 'I' for Inactive)
REMARK    1  A    between atoms: O_1  and  C_2
REMARK    2  A    between atoms: C_2  and  C_3
REMARK    3  A    between atoms: C_4  and  C_5
REMARK    4  A    between atoms: C_10  and  C_11
REMARK    5  A    between atoms: C_15  and  O_16
REMARK    6  A    between atoms: N_20  and  C_21
REMARK    7  A    between atoms: C_21  and  C_22
REMARK    8  A    between atoms: C_22  and  C_23
REMARK                            x       y       z     vdW  Elec       q    Type
REMARK                         _______ _______ _______ _____ _____    ______ ____
ROOT
ATOM      1  C   UNL     1       4.250   6.128  17.107  0.00  0.00    +0.000 C 
ATOM      2  C   UNL     1       5.566   6.460  16.353  0.00  0.00    +0.000 C 
ATOM      3  C   UNL     1       5.863   5.350  15.328  0.00  0.00    +0.000 C 
ATOM      4  C   UNL     1       5.804   3.925  15.872  0.00  0.00    +0.000 C 
ATOM      5  C   UNL     1       4.733   3.667  16.934  0.00  0.00    +0.000 C 
ATOM      6  C   UNL     1       4.460   4.823  17.937  0.00  0.00    +0.000 C 
ATOM      7  C   UNL     1       5.671   5.049  18.882  0.00  0.00    +0.000 C 
ATOM      8  C   UNL     1       6.897   5.788  18.347  0.00  0.00    +0.000 C 
ATOM      9  N   UNL     1       6.760   6.654  17.187  0.00  0.00    +0.000 NA
ENDROOT
BRANCH   6  10
ATOM     10  C   UNL     1       3.219   4.392  18.779  0.00  0.00    +0.000 A 
ATOM     11  C   UNL     1       2.971   4.933  20.057  0.00  0.00    +0.000 A 
ATOM     12  C   UNL     1       1.805   4.633  20.771  0.00  0.00    +0.000 A 
ATOM     13  C   UNL     1       0.866   3.759  20.238  0.00  0.00    +0.000 A 
ATOM     14  C   UNL     1       1.127   3.160  19.012  0.00  0.00    +0.000 A 
ATOM     15  C   UNL     1       2.291   3.451  18.299  0.00  0.00    +0.000 A 
BRANCH  14  16
ATOM     16  O   UNL     1       0.246   2.278  18.458  0.00  0.00    +0.000 OA
ATOM     17  H   UNL     1      -0.637   2.456  18.821  0.00  0.00    +0.000 HD
ENDBRANCH  14  16
ENDBRANCH   6  10
BRANCH   1  19
ATOM     18  C   UNL     1       2.506   7.815  17.775  0.00  0.00    +0.000 C 
ATOM     19  C   UNL     1       3.762   7.346  17.876  0.00  0.00    +0.000 C 
BRANCH  18  20
ATOM     20  C   UNL     1       2.006   9.072  18.397  0.00  0.00    +0.000 C 
BRANCH  20  21
ATOM     21  O   UNL     1       1.926  10.036  17.357  0.00  0.00    +0.000 OA
ATOM     22  H   UNL     1       1.111  10.540  17.502  0.00  0.00    +0.000 HD
ENDBRANCH  20  21
ENDBRANCH  18  20
ENDBRANCH   1  19
BRANCH   9  23
ATOM     23  C   UNL     1       7.124   8.060  17.412  0.00  0.00    +0.000 C 
BRANCH  23  24
ATOM     24  C   UNL     1       8.327   8.248  18.360  0.00  0.00    +0.000 C 
BRANCH  24  25
ATOM     25  C   UNL     1       8.671   9.711  18.526  0.00  0.00    +0.000 A 
ATOM     26  C   UNL     1       8.244  10.654  17.576  0.00  0.00    +0.000 A 
ATOM     27  C   UNL     1       8.590  12.002  17.707  0.00  0.00    +0.000 A 
ATOM     28  C   UNL     1       9.369  12.412  18.788  0.00  0.00    +0.000 A 
ATOM     29  C   UNL     1       9.794  11.484  19.740  0.00  0.00    +0.000 A 
ATOM     30  C   UNL     1       9.450  10.140  19.609  0.00  0.00    +0.000 A 
ENDBRANCH  24  25
ENDBRANCH  23  24
ENDBRANCH   9  23
TORSDOF 8
ENDMDL
MODEL 3
REMARK VINA RESULT:      -8.7      1.301      1.580
REMARK  Name = 
REMARK  8 active torsions:
REMARK  status: ('A' for Active; 'I' for Inactive)
REMARK    1  A    between atoms: O_1  and  C_2
REMARK    2  A    between atoms: C_2  and  C_3
REMARK    3  A    between atoms: C_4  and  C_5
REMARK    4  A    between atoms: C_10  and  C_11
REMARK    5  A    between atoms: C_15  and  O_16
REMARK    6  A    between atoms: N_20  and  C_21
REMARK    7  A    between atoms: C_21  and  C_22
REMARK    8  A    between atoms: C_22  and  C_23
REMARK                            x       y       z     vdW  Elec       q    Type
REMARK                         _______ _______ _______ _____ _____    ______ ____
ROOT
ATOM      1  C   UNL     1       4.447   5.762  16.990  0.00  0.00    +0.000 C 
ATOM      2  C   UNL     1       5.584   6.410  16.155  0.00  0.00    +0.000 C 
ATOM      3  C   UNL     1       5.847   5.557  14.900  0.00  0.00    +0.000 C 
ATOM      4  C   UNL     1       6.037   4.064  15.152  0.00  0.00    +0.000 C 
ATOM      5  C   UNL     1       5.180   3.467  16.269  0.00  0.00    +0.000 C 
ATOM      6  C   UNL     1       4.932   4.372  17.510  0.00  0.00    +0.000 C 
ATOM      7  C   UNL     1       6.239   4.595  18.317  0.00  0.00    +0.000 C 
ATOM      8  C   UNL     1       7.276   5.586  17.787  0.00  0.00    +0.000 C 
ATOM      9  N   UNL     1       6.862   6.618  16.850  0.00  0.00    +0.000 NA
ENDROOT
BRANCH   6  10
ATOM     10  C   UNL     1       3.894   3.623  18.402  0.00  0.00    +0.000 A 
ATOM     11  C   UNL     1       4.178   3.290  19.742  0.00  0.00    +0.000 A 
ATOM     12  C   UNL     1       3.214   2.716  20.579  0.00  0.00    +0.000 A 
ATOM     13  C   UNL     1       1.945   2.432  20.090  0.00  0.00    +0.000 A 
ATOM     14  C   UNL     1       1.670   2.687  18.753  0.00  0.00    +0.000 A 
ATOM     15  C   UNL     1       2.629   3.253  17.912  0.00  0.00    +0.000 A 
BRANCH  14  16
ATOM     16  O   UNL     1       0.446   2.404  18.221  0.00  0.00    +0.000 OA
ATOM     17  H   UNL     1      -0.230   2.873  18.738  0.00  0.00    +0.000 HD
ENDBRANCH  14  16
ENDBRANCH   6  10
BRANCH   1  19
ATOM     18  C   UNL     1       2.648   7.065  18.173  0.00  0.00    +0.000 C 
ATOM     19  C   UNL     1       3.946   6.738  18.043  0.00  0.00    +0.000 C 
BRANCH  18  20
ATOM     20  C   UNL     1       2.113   8.108  19.092  0.00  0.00    +0.000 C 
BRANCH  20  21
ATOM     21  O   UNL     1       2.158   7.556  20.401  0.00  0.00    +0.000 OA
ATOM     22  H   UNL     1       2.838   8.045  20.889  0.00  0.00    +0.000 HD
ENDBRANCH  20  21
ENDBRANCH  18  20
ENDBRANCH   1  19
BRANCH   9  23
ATOM     23  C   UNL     1       7.092   7.998  17.302  0.00  0.00    +0.000 C 
BRANCH  23  24
ATOM     24  C   UNL     1       8.230   8.135  18.335  0.00  0.00    +0.000 C 
BRANCH  24  25
ATOM     25  C   UNL     1       8.653   9.576  18.497  0.00  0.00    +0.000 A 
ATOM     26  C   UNL     1       9.424   9.972  19.604  0.00  0.00    +0.000 A 
ATOM     27  C   UNL     1       9.787  11.310  19.776  0.00  0.00    +0.000 A 
ATOM     28  C   UNL     1       9.377  12.261  18.843  0.00  0.00    +0.000 A 
ATOM     29  C   UNL     1       8.616  11.879  17.738  0.00  0.00    +0.000 A 
ATOM     30  C   UNL     1       8.253  10.544  17.566  0.00  0.00    +0.000 A 
ENDBRANCH  24  25
ENDBRANCH  23  24
ENDBRANCH   9  23
TORSDOF 8
ENDMDL
MODEL 4
REMARK VINA RESULT:      -7.4      1.329      1.683
REMARK  Name = 
REMARK  8 active torsions:
REMARK  status: ('A' for Active; 'I' for Inactive)
REMARK    1  A    between atoms: O_1  and  C_2
REMARK    2  A    between atoms: C_2  and  C_3
REMARK    3  A    between atoms: C_4  and  C_5
REMARK    4  A    between atoms: C_10  and  C_11
REMARK    5  A    between atoms: C_15  and  O_16
REMARK    6  A    between atoms: N_20  and  C_21
REMARK    7  A    between atoms: C_21  and  C_22
REMARK    8  A    between atoms: C_22  and  C_23
REMARK                            x       y       z     vdW  Elec       q    Type
REMARK                         _______ _______ _______ _____ _____    ______ ____
ROOT
ATOM      1  C   UNL     1       5.024   6.191  17.139  0.00  0.00    +0.000 C 
ATOM      2  C   UNL     1       6.325   6.871  16.634  0.00  0.00    +0.000 C 
ATOM      3  C   UNL     1       6.955   6.009  15.524  0.00  0.00    +0.000 C 
ATOM      4  C   UNL     1       7.120   4.529  15.859  0.00  0.00    +0.000 C 
ATOM      5  C   UNL     1       6.007   3.916  16.712  0.00  0.00    +0.000 C 
ATOM      6  C   UNL     1       5.394   4.831  17.810  0.00  0.00    +0.000 C 
ATOM      7  C   UNL     1       6.418   5.120  18.941  0.00  0.00    +0.000 C 
ATOM      8  C   UNL     1       7.525   6.144  18.691  0.00  0.00    +0.000 C 
ATOM      9  N   UNL     1       7.352   7.143  17.649  0.00  0.00    +0.000 NA
ENDROOT
BRANCH   6  10
ATOM     10  C   UNL     1       4.176   4.054  18.400  0.00  0.00    +0.000 A 
ATOM     11  C   UNL     1       4.271   3.349  19.617  0.00  0.00    +0.000 A 
ATOM     12  C   UNL     1       3.156   2.742  20.207  0.00  0.00    +0.000 A 
ATOM     13  C   UNL     1       1.918   2.799  19.580  0.00  0.00    +0.000 A 
ATOM     14  C   UNL     1       1.820   3.427  18.345  0.00  0.00    +0.000 A 
ATOM     15  C   UNL     1       2.930   4.029  17.750  0.00  0.00    +0.000 A 
BRANCH  14  16
ATOM     16  O   UNL     1       0.631   3.490  17.680  0.00  0.00    +0.000 OA
ATOM     17  H   UNL     1       0.786   3.889  16.808  0.00  0.00    +0.000 HD
ENDBRANCH  14  16
ENDBRANCH   6  10
BRANCH   1  19
ATOM     18  C   UNL     1       3.031   7.659  17.591  0.00  0.00    +0.000 C 
ATOM     19  C   UNL     1       4.217   7.163  17.985  0.00  0.00    +0.000 C 
BRANCH  18  20
ATOM     20  C   UNL     1       2.258   8.709  18.311  0.00  0.00    +0.000 C 
BRANCH  20  21
ATOM     21  O   UNL     1       1.933   9.704  17.350  0.00  0.00    +0.000 OA
ATOM     22  H   UNL     1       1.062   9.476  16.992  0.00  0.00    +0.000 HD
ENDBRANCH  20  21
ENDBRANCH  18  20
ENDBRANCH   1  19
BRANCH   9  23
ATOM     23  C   UNL     1       7.399   8.538  18.109  0.00  0.00    +0.000 C 
BRANCH  23  24
ATOM     24  C   UNL     1       8.430   9.407  17.358  0.00  0.00    +0.000 C 
BRANCH  24  25
ATOM     25  C   UNL     1       9.229  10.260  18.315  0.00  0.00    +0.000 A 
ATOM     26  C   UNL     1       9.025  10.155  19.702  0.00  0.00    +0.000 A 
ATOM     27  C   UNL     1       9.737  10.968  20.589  0.00  0.00    +0.000 A 
ATOM     28  C   UNL     1      10.653  11.893  20.092  0.00  0.00    +0.000 A 
ATOM     29  C   UNL     1      10.867  12.003  18.717  0.00  0.00    +0.000 A 
ATOM     30  C   UNL     1      10.157  11.193  17.832  0.00  0.00    +0.000 A 
ENDBRANCH  24  25
ENDBRANCH  23  24
ENDBRANCH   9  23
TORSDOF 8
ENDMDL
MODEL 5
REMARK VINA RESULT:      -7.3      4.333     10.086
REMARK  Name = 
REMARK  8 active torsions:
REMARK  status: ('A' for Active; 'I' for Inactive)
REMARK    1  A    between atoms: O_1  and  C_2
REMARK    2  A    between atoms: C_2  and  C_3
REMARK    3  A    between atoms: C_4  and  C_5
REMARK    4  A    between atoms: C_10  and  C_11
REMARK    5  A    between atoms: C_15  and  O_16
REMARK    6  A    between atoms: N_20  and  C_21
REMARK    7  A    between atoms: C_21  and  C_22
REMARK    8  A    between atoms: C_22  and  C_23
REMARK                            x       y       z     vdW  Elec       q    Type
REMARK                         _______ _______ _______ _____ _____    ______ ____
ROOT
ATOM      1  C   UNL     1      10.162  12.806  20.343  0.00  0.00    +0.000 C 
ATOM      2  C   UNL     1      10.686  11.501  19.685  0.00  0.00    +0.000 C 
ATOM      3  C   UNL     1      12.124  11.724  19.181  0.00  0.00    +0.000 C 
ATOM      4  C   UNL     1      12.333  12.974  18.329  0.00  0.00    +0.000 C 
ATOM      5  C   UNL     1      11.507  14.196  18.736  0.00  0.00    +0.000 C 
ATOM      6  C   UNL     1      10.066  13.918  19.252  0.00  0.00    +0.000 C 
ATOM      7  C   UNL     1       9.151  13.391  18.113  0.00  0.00    +0.000 C 
ATOM      8  C   UNL     1       9.286  11.934  17.671  0.00  0.00    +0.000 C 
ATOM      9  N   UNL     1       9.884  10.965  18.577  0.00  0.00    +0.000 NA
ENDROOT
BRANCH   6  10
ATOM     10  C   UNL     1       9.513  15.281  19.771  0.00  0.00    +0.000 A 
ATOM     11  C   UNL     1      10.079  15.929  20.888  0.00  0.00    +0.000 A 
ATOM     12  C   UNL     1       9.661  17.201  21.292  0.00  0.00    +0.000 A 
ATOM     13  C   UNL     1       8.643  17.852  20.607  0.00  0.00    +0.000 A 
ATOM     14  C   UNL     1       8.024  17.200  19.548  0.00  0.00    +0.000 A 
ATOM     15  C   UNL     1       8.433  15.928  19.145  0.00  0.00    +0.000 A 
BRANCH  14  16
ATOM     16  O   UNL     1       7.005  17.788  18.859  0.00  0.00    +0.000 OA
ATOM     17  H   UNL     1       6.954  17.380  17.979  0.00  0.00    +0.000 HD
ENDBRANCH  14  16
ENDBRANCH   6  10
BRANCH   1  19
ATOM     18  C   UNL     1       8.866  12.482  22.476  0.00  0.00    +0.000 C 
ATOM     19  C   UNL     1       8.893  12.524  21.132  0.00  0.00    +0.000 C 
BRANCH  18  20
ATOM     20  C   UNL     1       7.690  12.084  23.299  0.00  0.00    +0.000 C 
BRANCH  20  21
ATOM     21  O   UNL     1       8.130  11.040  24.157  0.00  0.00    +0.000 OA
ATOM     22  H   UNL     1       8.013  10.209  23.672  0.00  0.00    +0.000 HD
ENDBRANCH  20  21
ENDBRANCH  18  20
ENDBRANCH   1  19
BRANCH   9  23
ATOM     23  C   UNL     1       9.017   9.836  18.943  0.00  0.00    +0.000 C 
BRANCH  23  24
ATOM     24  C   UNL     1       8.132   9.329  17.785  0.00  0.00    +0.000 C 
BRANCH  24  25
ATOM     25  C   UNL     1       7.900   7.839  17.885  0.00  0.00    +0.000 A 
ATOM     26  C   UNL     1       7.249   7.149  16.847  0.00  0.00    +0.000 A 
ATOM     27  C   UNL     1       7.000   5.778  16.951  0.00  0.00    +0.000 A 
ATOM     28  C   UNL     1       7.398   5.090  18.097  0.00  0.00    +0.000 A 
ATOM     29  C   UNL     1       8.049   5.764  19.131  0.00  0.00    +0.000 A 
ATOM     30  C   UNL     1       8.296   7.132  19.028  0.00  0.00    +0.000 A 
ENDBRANCH  24  25
ENDBRANCH  23  24
ENDBRANCH   9  23
TORSDOF 8
ENDMDL
MODEL 6
REMARK VINA RESULT:      -7.1      5.238      8.913
REMARK  Name = 
REMARK  8 active torsions:
REMARK  status: ('A' for Active; 'I' for Inactive)
REMARK    1  A    between atoms: O_1  and  C_2
REMARK    2  A    between atoms: C_2  and  C_3
REMARK    3  A    between atoms: C_4  and  C_5
REMARK    4  A    between atoms: C_10  and  C_11
REMARK    5  A    between atoms: C_15  and  O_16
REMARK    6  A    between atoms: N_20  and  C_21
REMARK    7  A    between atoms: C_21  and  C_22
REMARK    8  A    between atoms: C_22  and  C_23
REMARK                            x       y       z     vdW  Elec       q    Type
REMARK                         _______ _______ _______ _____ _____    ______ ____
ROOT
ATOM      1  C   UNL     1      -1.251  10.498  20.381  0.00  0.00    +0.000 C 
ATOM      2  C   UNL     1       0.026   9.615  20.331  0.00  0.00    +0.000 C 
ATOM      3  C   UNL     1       0.182   8.864  21.666  0.00  0.00    +0.000 C 
ATOM      4  C   UNL     1       0.076   9.729  22.919  0.00  0.00    +0.000 C 
ATOM      5  C   UNL     1      -0.928  10.880  22.846  0.00  0.00    +0.000 C 
ATOM      6  C   UNL     1      -1.059  11.598  21.472  0.00  0.00    +0.000 C 
ATOM      7  C   UNL     1       0.228  12.394  21.126  0.00  0.00    +0.000 C 
ATOM      8  C   UNL     1       1.455  11.633  20.624  0.00  0.00    +0.000 C 
ATOM      9  N   UNL     1       1.286  10.312  20.040  0.00  0.00    +0.000 NA
ENDROOT
BRANCH   6  10
ATOM     10  C   UNL     1      -2.259  12.586  21.604  0.00  0.00    +0.000 A 
ATOM     11  C   UNL     1      -2.268  13.830  20.941  0.00  0.00    +0.000 A 
ATOM     12  C   UNL     1      -3.384  14.672  20.966  0.00  0.00    +0.000 A 
ATOM     13  C   UNL     1      -4.518  14.307  21.682  0.00  0.00    +0.000 A 
ATOM     14  C   UNL     1      -4.502  13.119  22.401  0.00  0.00    +0.000 A 
ATOM     15  C   UNL     1      -3.389  12.278  22.384  0.00  0.00    +0.000 A 
BRANCH  14  16
ATOM     16  O   UNL     1      -5.582  12.728  23.137  0.00  0.00    +0.000 OA
ATOM     17  H   UNL     1      -5.262  12.307  23.952  0.00  0.00    +0.000 HD
ENDBRANCH  14  16
ENDBRANCH   6  10
BRANCH   1  19
ATOM     18  C   UNL     1      -2.159  10.188  18.055  0.00  0.00    +0.000 C 
ATOM     19  C   UNL     1      -1.608  10.986  18.986  0.00  0.00    +0.000 C 
BRANCH  18  20
ATOM     20  C   UNL     1      -2.410  10.569  16.637  0.00  0.00    +0.000 C 
BRANCH  20  21
ATOM     21  O   UNL     1      -1.974  11.914  16.495  0.00  0.00    +0.000 OA
ATOM     22  H   UNL     1      -2.322  12.404  17.255  0.00  0.00    +0.000 HD
ENDBRANCH  20  21
ENDBRANCH  18  20
ENDBRANCH   1  19
BRANCH   9  23
ATOM     23  C   UNL     1       1.749  10.180  18.651  0.00  0.00    +0.000 C 
BRANCH  23  24
ATOM     24  C   UNL     1       1.350   8.846  17.986  0.00  0.00    +0.000 C 
BRANCH  24  25
ATOM     25  C   UNL     1       2.411   7.790  18.193  0.00  0.00    +0.000 A 
ATOM     26  C   UNL     1       3.453   7.636  17.262  0.00  0.00    +0.000 A 
ATOM     27  C   UNL     1       4.416   6.638  17.431  0.00  0.00    +0.000 A 
ATOM     28  C   UNL     1       4.339   5.785  18.531  0.00  0.00    +0.000 A 
ATOM     29  C   UNL     1       3.311   5.932  19.464  0.00  0.00    +0.000 A 
ATOM     30  C   UNL     1       2.350   6.927  19.295  0.00  0.00    +0.000 A 
ENDBRANCH  24  25
ENDBRANCH  23  24
ENDBRANCH   9  23
TORSDOF 8
ENDMDL
MODEL 7
REMARK VINA RESULT:      -7.1      5.163      9.064
REMARK  Name = 
REMARK  8 active torsions:
REMARK  status: ('A' for Active; 'I' for Inactive)
REMARK    1  A    between atoms: O_1  and  C_2
REMARK    2  A    between atoms: C_2  and  C_3
REMARK    3  A    between atoms: C_4  and  C_5
REMARK    4  A    between atoms: C_10  and  C_11
REMARK    5  A    between atoms: C_15  and  O_16
REMARK    6  A    between atoms: N_20  and  C_21
REMARK    7  A    between atoms: C_21  and  C_22
REMARK    8  A    between atoms: C_22  and  C_23
REMARK                            x       y       z     vdW  Elec       q    Type
REMARK                         _______ _______ _______ _____ _____    ______ ____
ROOT
ATOM      1  C   UNL     1      -1.309  10.568  20.214  0.00  0.00    +0.000 C 
ATOM      2  C   UNL     1      -0.033   9.683  20.208  0.00  0.00    +0.000 C 
ATOM      3  C   UNL     1       0.124   9.002  21.581  0.00  0.00    +0.000 C 
ATOM      4  C   UNL     1       0.021   9.931  22.788  0.00  0.00    +0.000 C 
ATOM      5  C   UNL     1      -0.983  11.077  22.655  0.00  0.00    +0.000 C 
ATOM      6  C   UNL     1      -1.116  11.723  21.246  0.00  0.00    +0.000 C 
ATOM      7  C   UNL     1       0.172  12.499  20.858  0.00  0.00    +0.000 C 
ATOM      8  C   UNL     1       1.398  11.712  20.395  0.00  0.00    +0.000 C 
ATOM      9  N   UNL     1       1.227  10.363  19.881  0.00  0.00    +0.000 NA
ENDROOT
BRANCH   6  10
ATOM     10  C   UNL     1      -2.315  12.718  21.329  0.00  0.00    +0.000 A 
ATOM     11  C   UNL     1      -3.477  12.412  22.065  0.00  0.00    +0.000 A 
ATOM     12  C   UNL     1      -4.510  13.341  22.234  0.00  0.00    +0.000 A 
ATOM     13  C   UNL     1      -4.421  14.596  21.646  0.00  0.00    +0.000 A 
ATOM     14  C   UNL     1      -3.317  14.891  20.857  0.00  0.00    +0.000 A 
ATOM     15  C   UNL     1      -2.288  13.965  20.680  0.00  0.00    +0.000 A 
BRANCH  14  16
ATOM     16  O   UNL     1      -3.195  16.101  20.240  0.00  0.00    +0.000 OA
ATOM     17  H   UNL     1      -2.713  16.701  20.832  0.00  0.00    +0.000 HD
ENDBRANCH  14  16
ENDBRANCH   6  10
BRANCH   1  19
ATOM     18  C   UNL     1      -2.199  10.132  17.901  0.00  0.00    +0.000 C 
ATOM     19  C   UNL     1      -1.667  10.984  18.797  0.00  0.00    +0.000 C 
BRANCH  18  20
ATOM     20  C   UNL     1      -2.450  10.442  16.466  0.00  0.00    +0.000 C 
BRANCH  20  21
ATOM     21  O   UNL     1      -2.151  11.820  16.290  0.00  0.00    +0.000 OA
ATOM     22  H   UNL     1      -1.213  11.934  16.504  0.00  0.00    +0.000 HD
ENDBRANCH  20  21
ENDBRANCH  18  20
ENDBRANCH   1  19
BRANCH   9  23
ATOM     23  C   UNL     1       1.689  10.158  18.500  0.00  0.00    +0.000 C 
BRANCH  23  24
ATOM     24  C   UNL     1       1.308   8.783  17.913  0.00  0.00    +0.000 C 
BRANCH  24  25
ATOM     25  C   UNL     1       2.368   7.748  18.211  0.00  0.00    +0.000 A 
ATOM     26  C   UNL     1       3.464   7.582  17.346  0.00  0.00    +0.000 A 
ATOM     27  C   UNL     1       4.427   6.602  17.598  0.00  0.00    +0.000 A 
ATOM     28  C   UNL     1       4.296   5.778  18.716  0.00  0.00    +0.000 A 
ATOM     29  C   UNL     1       3.214   5.937  19.583  0.00  0.00    +0.000 A 
ATOM     30  C   UNL     1       2.253   6.914  19.331  0.00  0.00    +0.000 A 
ENDBRANCH  24  25
ENDBRANCH  23  24
ENDBRANCH   9  23
TORSDOF 8
ENDMDL
MODEL 8
REMARK VINA RESULT:      -7.0      4.152      9.841
REMARK  Name = 
REMARK  8 active torsions:
REMARK  status: ('A' for Active; 'I' for Inactive)
REMARK    1  A    between atoms: O_1  and  C_2
REMARK    2  A    between atoms: C_2  and  C_3
REMARK    3  A    between atoms: C_4  and  C_5
REMARK    4  A    between atoms: C_10  and  C_11
REMARK    5  A    between atoms: C_15  and  O_16
REMARK    6  A    between atoms: N_20  and  C_21
REMARK    7  A    between atoms: C_21  and  C_22
REMARK    8  A    between atoms: C_22  and  C_23
REMARK                            x       y       z     vdW  Elec       q    Type
REMARK                         _______ _______ _______ _____ _____    ______ ____
ROOT
ATOM      1  C   UNL     1      10.211  12.424  20.593  0.00  0.00    +0.000 C 
ATOM      2  C   UNL     1      10.661  11.243  19.691  0.00  0.00    +0.000 C 
ATOM      3  C   UNL     1      12.022  11.577  19.052  0.00  0.00    +0.000 C 
ATOM      4  C   UNL     1      12.109  12.942  18.373  0.00  0.00    +0.000 C 
ATOM      5  C   UNL     1      11.328  14.069  19.053  0.00  0.00    +0.000 C 
ATOM      6  C   UNL     1       9.966  13.678  19.696  0.00  0.00    +0.000 C 
ATOM      7  C   UNL     1       8.921  13.295  18.614  0.00  0.00    +0.000 C 
ATOM      8  C   UNL     1       9.015  11.921  17.950  0.00  0.00    +0.000 C 
ATOM      9  N   UNL     1       9.731  10.850  18.624  0.00  0.00    +0.000 NA
ENDROOT
BRANCH   6  10
ATOM     10  C   UNL     1       9.470  14.936  20.473  0.00  0.00    +0.000 A 
ATOM     11  C   UNL     1      10.253  15.538  21.480  0.00  0.00    +0.000 A 
ATOM     12  C   UNL     1       9.864  16.728  22.104  0.00  0.00    +0.000 A 
ATOM     13  C   UNL     1       8.664  17.337  21.759  0.00  0.00    +0.000 A 
ATOM     14  C   UNL     1       7.845  16.721  20.821  0.00  0.00    +0.000 A 
ATOM     15  C   UNL     1       8.225  15.531  20.200  0.00  0.00    +0.000 A 
BRANCH  14  16
ATOM     16  O   UNL     1       6.647  17.268  20.466  0.00  0.00    +0.000 OA
ATOM     17  H   UNL     1       6.746  17.687  19.595  0.00  0.00    +0.000 HD
ENDBRANCH  14  16
ENDBRANCH   6  10
BRANCH   1  19
ATOM     18  C   UNL     1       9.026  12.235  22.805  0.00  0.00    +0.000 C 
ATOM     19  C   UNL     1       9.054  11.996  21.481  0.00  0.00    +0.000 C 
BRANCH  18  20
ATOM     20  C   UNL     1       7.990  11.729  23.747  0.00  0.00    +0.000 C 
BRANCH  20  21
ATOM     21  O   UNL     1       6.747  11.805  23.063  0.00  0.00    +0.000 OA
ATOM     22  H   UNL     1       6.947  11.788  22.114  0.00  0.00    +0.000 HD
ENDBRANCH  20  21
ENDBRANCH  18  20
ENDBRANCH   1  19
BRANCH   9  23
ATOM     23  C   UNL     1       8.929   9.656  18.924  0.00  0.00    +0.000 C 
BRANCH  23  24
ATOM     24  C   UNL     1       8.062   9.173  17.742  0.00  0.00    +0.000 C 
BRANCH  24  25
ATOM     25  C   UNL     1       7.786   7.690  17.834  0.00  0.00    +0.000 A 
ATOM     26  C   UNL     1       8.214   6.955  18.953  0.00  0.00    +0.000 A 
ATOM     27  C   UNL     1       7.993   5.577  19.025  0.00  0.00    +0.000 A 
ATOM     28  C   UNL     1       7.346   4.927  17.975  0.00  0.00    +0.000 A 
ATOM     29  C   UNL     1       6.913   5.648  16.862  0.00  0.00    +0.000 A 
ATOM     30  C   UNL     1       7.134   7.022  16.789  0.00  0.00    +0.000 A 
ENDBRANCH  24  25
ENDBRANCH  23  24
ENDBRANCH   9  23
TORSDOF 8
ENDMDL
MODEL 9
REMARK VINA RESULT:      -6.9      6.583     10.716
REMARK  Name = 
REMARK  8 active torsions:
REMARK  status: ('A' for Active; 'I' for Inactive)
REMARK    1  A    between atoms: O_1  and  C_2
REMARK    2  A    between atoms: C_2  and  C_3
REMARK    3  A    between atoms: C_4  and  C_5
REMARK    4  A    between atoms: C_10  and  C_11
REMARK    5  A    between atoms: C_15  and  O_16
REMARK    6  A    between atoms: N_20  and  C_21
REMARK    7  A    between atoms: C_21  and  C_22
REMARK    8  A    between atoms: C_22  and  C_23
REMARK                            x       y       z     vdW  Elec       q    Type
REMARK                         _______ _______ _______ _____ _____    ______ ____
ROOT
ATOM      1  C   UNL     1      -0.678  11.687  18.842  0.00  0.00    +0.000 C 
ATOM      2  C   UNL     1      -1.333  12.961  19.438  0.00  0.00    +0.000 C 
ATOM      3  C   UNL     1      -0.263  14.054  19.614  0.00  0.00    +0.000 C 
ATOM      4  C   UNL     1       1.007  13.614  20.339  0.00  0.00    +0.000 C 
ATOM      5  C   UNL     1       1.467  12.183  20.057  0.00  0.00    +0.000 C 
ATOM      6  C   UNL     1       0.348  11.119  19.873  0.00  0.00    +0.000 C 
ATOM      7  C   UNL     1      -0.408  10.859  21.204  0.00  0.00    +0.000 C 
ATOM      8  C   UNL     1      -1.441  11.881  21.678  0.00  0.00    +0.000 C 
ATOM      9  N   UNL     1      -2.038  12.792  20.716  0.00  0.00    +0.000 NA
ENDROOT
BRANCH   6  10
ATOM     10  C   UNL     1       1.058   9.807  19.416  0.00  0.00    +0.000 A 
ATOM     11  C   UNL     1       1.579   9.665  18.114  0.00  0.00    +0.000 A 
ATOM     12  C   UNL     1       2.312   8.537  17.732  0.00  0.00    +0.000 A 
ATOM     13  C   UNL     1       2.522   7.502  18.634  0.00  0.00    +0.000 A 
ATOM     14  C   UNL     1       1.954   7.590  19.899  0.00  0.00    +0.000 A 
ATOM     15  C   UNL     1       1.217   8.711  20.283  0.00  0.00    +0.000 A 
BRANCH  14  16
ATOM     16  O   UNL     1       2.112   6.590  20.813  0.00  0.00    +0.000 OA
ATOM     17  H   UNL     1       3.063   6.449  20.953  0.00  0.00    +0.000 HD
ENDBRANCH  14  16
ENDBRANCH   6  10
BRANCH   1  19
ATOM     18  C   UNL     1      -2.665  11.060  17.431  0.00  0.00    +0.000 C 
ATOM     19  C   UNL     1      -1.748  10.723  18.355  0.00  0.00    +0.000 C 
BRANCH  18  20
ATOM     20  C   UNL     1      -3.813  10.210  17.010  0.00  0.00    +0.000 C 
BRANCH  20  21
ATOM     21  O   UNL     1      -4.594  10.995  16.119  0.00  0.00    +0.000 OA
ATOM     22  H   UNL     1      -4.926  10.395  15.434  0.00  0.00    +0.000 HD
ENDBRANCH  20  21
ENDBRANCH  18  20
ENDBRANCH   1  19
BRANCH   9  23
ATOM     23  C   UNL     1      -3.501  12.705  20.598  0.00  0.00    +0.000 C 
BRANCH  23  24
ATOM     24  C   UNL     1      -4.260  13.658  21.544  0.00  0.00    +0.000 C 
BRANCH  24  25
ATOM     25  C   UNL     1      -5.528  13.020  22.064  0.00  0.00    +0.000 A 
ATOM     26  C   UNL     1      -6.419  12.385  21.181  0.00  0.00    +0.000 A 
ATOM     27  C   UNL     1      -7.609  11.825  21.652  0.00  0.00    +0.000 A 
ATOM     28  C   UNL     1      -7.917  11.902  23.010  0.00  0.00    +0.000 A 
ATOM     29  C   UNL     1      -7.037  12.526  23.896  0.00  0.00    +0.000 A 
ATOM     30  C   UNL     1      -5.851  13.085  23.426  0.00  0.00    +0.000 A 
ENDBRANCH  24  25
ENDBRANCH  23  24
ENDBRANCH   9  23
TORSDOF 8
ENDMDL
