MODEL 1
REMARK VINA RESULT:      -7.8      0.000      0.000
REMARK  Name = 
REMARK  13 active torsions:
REMARK  status: ('A' for Active; 'I' for Inactive)
REMARK    1  A    between atoms: C_1  and  C_2
REMARK    2  A    between atoms: C_2  and  C_3
REMARK    3  A    between atoms: C_3  and  C_4
REMARK    4  A    between atoms: C_4  and  O_5
REMARK    5  A    between atoms: O_5  and  C_6
REMARK    6  A    between atoms: C_10  and  C_11
REMARK    7  A    between atoms: N_13  and  C_14
REMARK    8  A    between atoms: C_14  and  C_15
REMARK    9  A    between atoms: C_23  and  C_24
REMARK   10  A    between atoms: C_24  and  C_25
REMARK   11  A    between atoms: C_24  and  C_26
REMARK   12  A    between atoms: N_27  and  C_28
REMARK   13  A    between atoms: C_28  and  C_29
REMARK                            x       y       z     vdW  Elec       q    Type
REMARK                         _______ _______ _______ _____ _____    ______ ____
ROOT
ATOM      1  C   UNL     1      -3.880  10.992  16.983  0.00  0.00    +0.000 A 
ATOM      2  C   UNL     1      -3.079   9.986  16.442  0.00  0.00    +0.000 A 
ATOM      3  C   UNL     1      -1.796   9.746  16.931  0.00  0.00    +0.000 A 
ATOM      4  C   UNL     1      -1.290  10.498  18.013  0.00  0.00    +0.000 A 
ATOM      5  C   UNL     1      -0.038  10.483  18.717  0.00  0.00    +0.000 A 
ATOM      6  C   UNL     1      -0.138  11.446  19.742  0.00  0.00    +0.000 A 
ATOM      7  N   UNL     1      -1.332  12.132  19.539  0.00  0.00    +0.000 N 
ATOM      8  C   UNL     1      -2.081  11.518  18.539  0.00  0.00    +0.000 A 
ATOM      9  C   UNL     1      -3.376  11.781  18.033  0.00  0.00    +0.000 A 
ENDROOT
BRANCH   5  10
ATOM     10  C   UNL     1       1.132   9.675  18.405  0.00  0.00    +0.000 C 
ATOM     11  O   UNL     1       1.924  10.002  17.517  0.00  0.00    +0.000 OA
ATOM     12  N   UNL     1       1.315   8.507  19.138  0.00  0.00    +0.000 N 
ATOM     13  H   UNL     1       0.703   8.314  19.917  0.00  0.00    +0.000 HD
BRANCH  12  14
ATOM     14  C   UNL     1       2.459   7.668  18.903  0.00  0.00    +0.000 C 
BRANCH  14  15
ATOM     15  C   UNL     1       2.128   6.203  19.035  0.00  0.00    +0.000 A 
ATOM     16  C   UNL     1       1.999   5.399  17.888  0.00  0.00    +0.000 A 
ATOM     17  C   UNL     1       1.655   4.049  17.997  0.00  0.00    +0.000 A 
ATOM     18  C   UNL     1       1.444   3.496  19.255  0.00  0.00    +0.000 A 
ATOM     19  F   UNL     1       1.090   2.207  19.356  0.00  0.00    +0.000 F 
ATOM     20  C   UNL     1       1.595   4.272  20.395  0.00  0.00    +0.000 A 
ATOM     21  F   UNL     1       1.398   3.736  21.608  0.00  0.00    +0.000 F 
ATOM     22  C   UNL     1       1.942   5.618  20.298  0.00  0.00    +0.000 A 
ENDBRANCH  14  15
ENDBRANCH  12  14
ENDBRANCH   5  10
BRANCH   6  23
ATOM     23  C   UNL     1       0.776  11.713  20.946  0.00  0.00    +0.000 C 
ATOM     24  C   UNL     1       1.036  10.466  21.805  0.00  0.00    +0.000 C 
ATOM     25  C   UNL     1       2.120  12.371  20.622  0.00  0.00    +0.000 C 
ENDBRANCH   6  23
BRANCH   1  26
ATOM     26  O   UNL     1      -5.151  11.282  16.547  0.00  0.00    +0.000 OA
BRANCH  26  27
ATOM     27  C   UNL     1      -5.795  12.374  17.220  0.00  0.00    +0.000 C 
BRANCH  27  28
ATOM     28  C   UNL     1      -7.068  11.914  17.922  0.00  0.00    +0.000 C 
BRANCH  28  30
ATOM     29  C   UNL     1      -7.167  10.515  20.023  0.00  0.00    +0.000 C 
ATOM     30  C   UNL     1      -6.860  11.883  19.439  0.00  0.00    +0.000 C 
ENDBRANCH  28  30
ENDBRANCH  27  28
ENDBRANCH  26  27
ENDBRANCH   1  26
BRANCH   7  31
ATOM     31  C   UNL     1      -1.731  13.397  20.184  0.00  0.00    +0.000 C 
BRANCH  31  32
ATOM     32  C   UNL     1      -2.577  13.270  21.434  0.00  0.00    +0.000 A 
ATOM     33  C   UNL     1      -2.035  13.106  22.714  0.00  0.00    +0.000 A 
ATOM     34  C   UNL     1      -2.849  12.755  23.792  0.00  0.00    +0.000 A 
ATOM     35  C   UNL     1      -4.224  12.611  23.619  0.00  0.00    +0.000 A 
ATOM     36  C   UNL     1      -4.796  12.886  22.381  0.00  0.00    +0.000 A 
ATOM     37  C   UNL     1      -3.979  13.222  21.297  0.00  0.00    +0.000 A 
ENDBRANCH  31  32
ENDBRANCH   7  31
TORSDOF 10
ENDMDL
MODEL 2
REMARK VINA RESULT:      -7.8      0.855      1.491
REMARK  Name = 
REMARK  13 active torsions:
REMARK  status: ('A' for Active; 'I' for Inactive)
REMARK    1  A    between atoms: C_1  and  C_2
REMARK    2  A    between atoms: C_2  and  C_3
REMARK    3  A    between atoms: C_3  and  C_4
REMARK    4  A    between atoms: C_4  and  O_5
REMARK    5  A    between atoms: O_5  and  C_6
REMARK    6  A    between atoms: C_10  and  C_11
REMARK    7  A    between atoms: N_13  and  C_14
REMARK    8  A    between atoms: C_14  and  C_15
REMARK    9  A    between atoms: C_23  and  C_24
REMARK   10  A    between atoms: C_24  and  C_25
REMARK   11  A    between atoms: C_24  and  C_26
REMARK   12  A    between atoms: N_27  and  C_28
REMARK   13  A    between atoms: C_28  and  C_29
REMARK                            x       y       z     vdW  Elec       q    Type
REMARK                         _______ _______ _______ _____ _____    ______ ____
ROOT
ATOM      1  C   UNL     1      -3.933  10.959  17.118  0.00  0.00    +0.000 A 
ATOM      2  C   UNL     1      -3.059  10.081  16.475  0.00  0.00    +0.000 A 
ATOM      3  C   UNL     1      -1.746   9.921  16.915  0.00  0.00    +0.000 A 
ATOM      4  C   UNL     1      -1.281  10.623  18.049  0.00  0.00    +0.000 A 
ATOM      5  C   UNL     1      -0.013  10.665  18.723  0.00  0.00    +0.000 A 
ATOM      6  C   UNL     1      -0.171  11.524  19.830  0.00  0.00    +0.000 A 
ATOM      7  N   UNL     1      -1.428  12.111  19.712  0.00  0.00    +0.000 N 
ATOM      8  C   UNL     1      -2.146  11.516  18.677  0.00  0.00    +0.000 A 
ATOM      9  C   UNL     1      -3.473  11.699  18.222  0.00  0.00    +0.000 A 
ENDROOT
BRANCH   5  10
ATOM     10  C   UNL     1       1.217  10.000  18.319  0.00  0.00    +0.000 C 
ATOM     11  O   UNL     1       2.163  10.629  17.839  0.00  0.00    +0.000 OA
ATOM     12  N   UNL     1       1.279   8.619  18.480  0.00  0.00    +0.000 N 
ATOM     13  H   UNL     1       0.527   8.146  18.958  0.00  0.00    +0.000 HD
BRANCH  12  14
ATOM     14  C   UNL     1       2.469   7.894  18.124  0.00  0.00    +0.000 C 
BRANCH  14  15
ATOM     15  C   UNL     1       2.497   6.514  18.729  0.00  0.00    +0.000 A 
ATOM     16  C   UNL     1       2.067   6.312  20.053  0.00  0.00    +0.000 A 
ATOM     17  C   UNL     1       2.126   5.043  20.637  0.00  0.00    +0.000 A 
ATOM     18  C   UNL     1       2.609   3.970  19.897  0.00  0.00    +0.000 A 
ATOM     19  F   UNL     1       2.687   2.760  20.466  0.00  0.00    +0.000 F 
ATOM     20  C   UNL     1       3.010   4.153  18.581  0.00  0.00    +0.000 A 
ATOM     21  F   UNL     1       3.470   3.116  17.866  0.00  0.00    +0.000 F 
ATOM     22  C   UNL     1       2.953   5.412  17.988  0.00  0.00    +0.000 A 
ENDBRANCH  14  15
ENDBRANCH  12  14
ENDBRANCH   5  10
BRANCH   6  23
ATOM     23  C   UNL     1       0.748  11.772  21.034  0.00  0.00    +0.000 C 
ATOM     24  C   UNL     1       1.184  10.483  21.746  0.00  0.00    +0.000 C 
ATOM     25  C   UNL     1       1.991  12.619  20.752  0.00  0.00    +0.000 C 
ENDBRANCH   6  23
BRANCH   1  26
ATOM     26  O   UNL     1      -5.237  11.165  16.734  0.00  0.00    +0.000 OA
BRANCH  26  27
ATOM     27  C   UNL     1      -6.029  11.936  17.649  0.00  0.00    +0.000 C 
BRANCH  27  28
ATOM     28  C   UNL     1      -6.976  11.045  18.446  0.00  0.00    +0.000 C 
BRANCH  28  30
ATOM     29  C   UNL     1      -7.815  10.784  20.813  0.00  0.00    +0.000 C 
ATOM     30  C   UNL     1      -6.612  11.072  19.933  0.00  0.00    +0.000 C 
ENDBRANCH  28  30
ENDBRANCH  27  28
ENDBRANCH  26  27
ENDBRANCH   1  26
BRANCH   7  31
ATOM     31  C   UNL     1      -1.923  13.273  20.473  0.00  0.00    +0.000 C 
BRANCH  31  32
ATOM     32  C   UNL     1      -2.944  12.978  21.552  0.00  0.00    +0.000 A 
ATOM     33  C   UNL     1      -4.280  13.387  21.475  0.00  0.00    +0.000 A 
ATOM     34  C   UNL     1      -5.116  13.304  22.590  0.00  0.00    +0.000 A 
ATOM     35  C   UNL     1      -4.643  12.765  23.785  0.00  0.00    +0.000 A 
ATOM     36  C   UNL     1      -3.354  12.245  23.845  0.00  0.00    +0.000 A 
ATOM     37  C   UNL     1      -2.512  12.342  22.734  0.00  0.00    +0.000 A 
ENDBRANCH  31  32
ENDBRANCH   7  31
TORSDOF 10
ENDMDL
MODEL 3
REMARK VINA RESULT:      -7.7      0.627      1.069
REMARK  Name = 
REMARK  13 active torsions:
REMARK  status: ('A' for Active; 'I' for Inactive)
REMARK    1  A    between atoms: C_1  and  C_2
REMARK    2  A    between atoms: C_2  and  C_3
REMARK    3  A    between atoms: C_3  and  C_4
REMARK    4  A    between atoms: C_4  and  O_5
REMARK    5  A    between atoms: O_5  and  C_6
REMARK    6  A    between atoms: C_10  and  C_11
REMARK    7  A    between atoms: N_13  and  C_14
REMARK    8  A    between atoms: C_14  and  C_15
REMARK    9  A    between atoms: C_23  and  C_24
REMARK   10  A    between atoms: C_24  and  C_25
REMARK   11  A    between atoms: C_24  and  C_26
REMARK   12  A    between atoms: N_27  and  C_28
REMARK   13  A    between atoms: C_28  and  C_29
REMARK                            x       y       z     vdW  Elec       q    Type
REMARK                         _______ _______ _______ _____ _____    ______ ____
ROOT
ATOM      1  C   UNL     1      -3.957  10.964  16.983  0.00  0.00    +0.000 A 
ATOM      2  C   UNL     1      -3.123  10.019  16.383  0.00  0.00    +0.000 A 
ATOM      3  C   UNL     1      -1.858   9.743  16.899  0.00  0.00    +0.000 A 
ATOM      4  C   UNL     1      -1.405  10.393  18.067  0.00  0.00    +0.000 A 
ATOM      5  C   UNL     1      -0.181  10.320  18.817  0.00  0.00    +0.000 A 
ATOM      6  C   UNL     1      -0.333  11.181  19.924  0.00  0.00    +0.000 A 
ATOM      7  N   UNL     1      -1.526  11.875  19.738  0.00  0.00    +0.000 N 
ATOM      8  C   UNL     1      -2.227  11.353  18.654  0.00  0.00    +0.000 A 
ATOM      9  C   UNL     1      -3.503  11.653  18.122  0.00  0.00    +0.000 A 
ENDROOT
BRANCH   5  10
ATOM     10  C   UNL     1       1.009   9.554  18.479  0.00  0.00    +0.000 C 
ATOM     11  O   UNL     1       1.736   9.875  17.535  0.00  0.00    +0.000 OA
ATOM     12  N   UNL     1       1.287   8.432  19.253  0.00  0.00    +0.000 N 
ATOM     13  H   UNL     1       0.727   8.248  20.072  0.00  0.00    +0.000 HD
BRANCH  12  14
ATOM     14  C   UNL     1       2.458   7.637  18.994  0.00  0.00    +0.000 C 
BRANCH  14  15
ATOM     15  C   UNL     1       2.172   6.159  19.077  0.00  0.00    +0.000 A 
ATOM     16  C   UNL     1       2.176   5.370  17.913  0.00  0.00    +0.000 A 
ATOM     17  C   UNL     1       1.875   4.007  17.973  0.00  0.00    +0.000 A 
ATOM     18  C   UNL     1       1.574   3.425  19.199  0.00  0.00    +0.000 A 
ATOM     19  F   UNL     1       1.262   2.124  19.252  0.00  0.00    +0.000 F 
ATOM     20  C   UNL     1       1.594   4.188  20.359  0.00  0.00    +0.000 A 
ATOM     21  F   UNL     1       1.310   3.625  21.542  0.00  0.00    +0.000 F 
ATOM     22  C   UNL     1       1.896   5.548  20.310  0.00  0.00    +0.000 A 
ENDBRANCH  14  15
ENDBRANCH  12  14
ENDBRANCH   5  10
BRANCH   6  23
ATOM     23  C   UNL     1       0.529  11.339  21.184  0.00  0.00    +0.000 C 
ATOM     24  C   UNL     1       0.691  10.036  21.981  0.00  0.00    +0.000 C 
ATOM     25  C   UNL     1       1.914  11.952  20.964  0.00  0.00    +0.000 C 
ENDBRANCH   6  23
BRANCH   1  26
ATOM     26  O   UNL     1      -5.212  11.285  16.524  0.00  0.00    +0.000 OA
BRANCH  26  27
ATOM     27  C   UNL     1      -6.125  11.763  17.523  0.00  0.00    +0.000 C 
BRANCH  27  28
ATOM     28  C   UNL     1      -6.807  13.051  17.075  0.00  0.00    +0.000 C 
BRANCH  28  30
ATOM     29  C   UNL     1      -7.561  12.955  19.484  0.00  0.00    +0.000 C 
ATOM     30  C   UNL     1      -7.874  13.472  18.090  0.00  0.00    +0.000 C 
ENDBRANCH  28  30
ENDBRANCH  27  28
ENDBRANCH  26  27
ENDBRANCH   1  26
BRANCH   7  31
ATOM     31  C   UNL     1      -1.964  13.070  20.483  0.00  0.00    +0.000 C 
BRANCH  31  32
ATOM     32  C   UNL     1      -2.996  12.838  21.567  0.00  0.00    +0.000 A 
ATOM     33  C   UNL     1      -4.350  13.158  21.417  0.00  0.00    +0.000 A 
ATOM     34  C   UNL     1      -5.210  13.152  22.517  0.00  0.00    +0.000 A 
ATOM     35  C   UNL     1      -4.742  12.776  23.774  0.00  0.00    +0.000 A 
ATOM     36  C   UNL     1      -3.428  12.340  23.919  0.00  0.00    +0.000 A 
ATOM     37  C   UNL     1      -2.563  12.362  22.821  0.00  0.00    +0.000 A 
ENDBRANCH  31  32
ENDBRANCH   7  31
TORSDOF 10
ENDMDL
MODEL 4
REMARK VINA RESULT:      -7.7      3.685      9.605
REMARK  Name = 
REMARK  13 active torsions:
REMARK  status: ('A' for Active; 'I' for Inactive)
REMARK    1  A    between atoms: C_1  and  C_2
REMARK    2  A    between atoms: C_2  and  C_3
REMARK    3  A    between atoms: C_3  and  C_4
REMARK    4  A    between atoms: C_4  and  O_5
REMARK    5  A    between atoms: O_5  and  C_6
REMARK    6  A    between atoms: C_10  and  C_11
REMARK    7  A    between atoms: N_13  and  C_14
REMARK    8  A    between atoms: C_14  and  C_15
REMARK    9  A    between atoms: C_23  and  C_24
REMARK   10  A    between atoms: C_24  and  C_25
REMARK   11  A    between atoms: C_24  and  C_26
REMARK   12  A    between atoms: N_27  and  C_28
REMARK   13  A    between atoms: C_28  and  C_29
REMARK                            x       y       z     vdW  Elec       q    Type
REMARK                         _______ _______ _______ _____ _____    ______ ____
ROOT
ATOM      1  C   UNL     1       4.895   5.761  17.424  0.00  0.00    +0.000 A 
ATOM      2  C   UNL     1       4.569   6.904  16.692  0.00  0.00    +0.000 A 
ATOM      3  C   UNL     1       3.591   7.791  17.138  0.00  0.00    +0.000 A 
ATOM      4  C   UNL     1       2.929   7.568  18.365  0.00  0.00    +0.000 A 
ATOM      5  C   UNL     1       1.902   8.285  19.069  0.00  0.00    +0.000 A 
ATOM      6  C   UNL     1       1.678   7.590  20.275  0.00  0.00    +0.000 A 
ATOM      7  N   UNL     1       2.411   6.409  20.206  0.00  0.00    +0.000 N 
ATOM      8  C   UNL     1       3.238   6.415  19.085  0.00  0.00    +0.000 A 
ATOM      9  C   UNL     1       4.214   5.500  18.627  0.00  0.00    +0.000 A 
ENDROOT
BRANCH   5  10
ATOM     10  C   UNL     1       1.187   9.466  18.610  0.00  0.00    +0.000 C 
ATOM     11  O   UNL     1       0.387   9.411  17.671  0.00  0.00    +0.000 OA
ATOM     12  N   UNL     1       1.452  10.666  19.260  0.00  0.00    +0.000 N 
ATOM     13  H   UNL     1       2.040  10.662  20.080  0.00  0.00    +0.000 HD
BRANCH  12  14
ATOM     14  C   UNL     1       0.768  11.872  18.877  0.00  0.00    +0.000 C 
BRANCH  14  15
ATOM     15  C   UNL     1      -0.444  12.137  19.735  0.00  0.00    +0.000 A 
ATOM     16  C   UNL     1      -0.315  12.236  21.132  0.00  0.00    +0.000 A 
ATOM     17  C   UNL     1      -1.436  12.443  21.939  0.00  0.00    +0.000 A 
ATOM     18  C   UNL     1      -2.691  12.556  21.353  0.00  0.00    +0.000 A 
ATOM     19  F   UNL     1      -3.769  12.730  22.130  0.00  0.00    +0.000 F 
ATOM     20  C   UNL     1      -2.827  12.487  19.973  0.00  0.00    +0.000 A 
ATOM     21  F   UNL     1      -4.037  12.603  19.407  0.00  0.00    +0.000 F 
ATOM     22  C   UNL     1      -1.715  12.285  19.158  0.00  0.00    +0.000 A 
ENDBRANCH  14  15
ENDBRANCH  12  14
ENDBRANCH   5  10
BRANCH   6  23
ATOM     23  C   UNL     1       0.883   7.999  21.523  0.00  0.00    +0.000 C 
ATOM     24  C   UNL     1       1.517   9.163  22.299  0.00  0.00    +0.000 C 
ATOM     25  C   UNL     1      -0.596   8.317  21.289  0.00  0.00    +0.000 C 
ENDBRANCH   6  23
BRANCH   1  26
ATOM     26  O   UNL     1       5.846   4.846  17.040  0.00  0.00    +0.000 OA
BRANCH  26  27
ATOM     27  C   UNL     1       6.403   5.054  15.734  0.00  0.00    +0.000 C 
BRANCH  27  28
ATOM     28  C   UNL     1       6.130   3.862  14.822  0.00  0.00    +0.000 C 
BRANCH  28  30
ATOM     29  C   UNL     1       5.877   3.251  12.385  0.00  0.00    +0.000 C 
ATOM     30  C   UNL     1       5.709   4.340  13.430  0.00  0.00    +0.000 C 
ENDBRANCH  28  30
ENDBRANCH  27  28
ENDBRANCH  26  27
ENDBRANCH   1  26
BRANCH   7  31
ATOM     31  C   UNL     1       2.276   5.245  21.102  0.00  0.00    +0.000 C 
BRANCH  31  32
ATOM     32  C   UNL     1       2.037   3.909  20.430  0.00  0.00    +0.000 A 
ATOM     33  C   UNL     1       2.996   2.891  20.385  0.00  0.00    +0.000 A 
ATOM     34  C   UNL     1       2.820   1.783  19.555  0.00  0.00    +0.000 A 
ATOM     35  C   UNL     1       1.661   1.650  18.794  0.00  0.00    +0.000 A 
ATOM     36  C   UNL     1       0.644   2.593  18.916  0.00  0.00    +0.000 A 
ATOM     37  C   UNL     1       0.827   3.711  19.735  0.00  0.00    +0.000 A 
ENDBRANCH  31  32
ENDBRANCH   7  31
TORSDOF 10
ENDMDL
MODEL 5
REMARK VINA RESULT:      -7.6      5.116      9.888
REMARK  Name = 
REMARK  13 active torsions:
REMARK  status: ('A' for Active; 'I' for Inactive)
REMARK    1  A    between atoms: C_1  and  C_2
REMARK    2  A    between atoms: C_2  and  C_3
REMARK    3  A    between atoms: C_3  and  C_4
REMARK    4  A    between atoms: C_4  and  O_5
REMARK    5  A    between atoms: O_5  and  C_6
REMARK    6  A    between atoms: C_10  and  C_11
REMARK    7  A    between atoms: N_13  and  C_14
REMARK    8  A    between atoms: C_14  and  C_15
REMARK    9  A    between atoms: C_23  and  C_24
REMARK   10  A    between atoms: C_24  and  C_25
REMARK   11  A    between atoms: C_24  and  C_26
REMARK   12  A    between atoms: N_27  and  C_28
REMARK   13  A    between atoms: C_28  and  C_29
REMARK                            x       y       z     vdW  Elec       q    Type
REMARK                         _______ _______ _______ _____ _____    ______ ____
ROOT
ATOM      1  C   UNL     1       4.501   5.790  17.359  0.00  0.00    +0.000 A 
ATOM      2  C   UNL     1       4.226   6.973  16.670  0.00  0.00    +0.000 A 
ATOM      3  C   UNL     1       3.329   7.910  17.179  0.00  0.00    +0.000 A 
ATOM      4  C   UNL     1       2.701   7.697  18.425  0.00  0.00    +0.000 A 
ATOM      5  C   UNL     1       1.753   8.460  19.188  0.00  0.00    +0.000 A 
ATOM      6  C   UNL     1       1.528   7.748  20.384  0.00  0.00    +0.000 A 
ATOM      7  N   UNL     1       2.175   6.522  20.254  0.00  0.00    +0.000 N 
ATOM      8  C   UNL     1       2.957   6.506  19.102  0.00  0.00    +0.000 A 
ATOM      9  C   UNL     1       3.850   5.540  18.581  0.00  0.00    +0.000 A 
ENDROOT
BRANCH   5  10
ATOM     10  C   UNL     1       1.103   9.700  18.790  0.00  0.00    +0.000 C 
ATOM     11  O   UNL     1       0.148   9.705  18.008  0.00  0.00    +0.000 OA
ATOM     12  N   UNL     1       1.611  10.885  19.312  0.00  0.00    +0.000 N 
ATOM     13  H   UNL     1       2.332  10.842  20.017  0.00  0.00    +0.000 HD
BRANCH  12  14
ATOM     14  C   UNL     1       1.008  12.148  18.981  0.00  0.00    +0.000 C 
BRANCH  14  15
ATOM     15  C   UNL     1       1.998  13.284  19.036  0.00  0.00    +0.000 A 
ATOM     16  C   UNL     1       2.558  13.678  20.264  0.00  0.00    +0.000 A 
ATOM     17  C   UNL     1       3.447  14.754  20.332  0.00  0.00    +0.000 A 
ATOM     18  C   UNL     1       3.785  15.437  19.169  0.00  0.00    +0.000 A 
ATOM     19  F   UNL     1       4.618  16.484  19.239  0.00  0.00    +0.000 F 
ATOM     20  C   UNL     1       3.260  15.039  17.947  0.00  0.00    +0.000 A 
ATOM     21  F   UNL     1       3.592  15.695  16.825  0.00  0.00    +0.000 F 
ATOM     22  C   UNL     1       2.375  13.966  17.868  0.00  0.00    +0.000 A 
ENDBRANCH  14  15
ENDBRANCH  12  14
ENDBRANCH   5  10
BRANCH   6  23
ATOM     23  C   UNL     1       0.811   8.173  21.673  0.00  0.00    +0.000 C 
ATOM     24  C   UNL     1       1.528   9.301  22.429  0.00  0.00    +0.000 C 
ATOM     25  C   UNL     1      -0.663   8.552  21.514  0.00  0.00    +0.000 C 
ENDBRANCH   6  23
BRANCH   1  26
ATOM     26  O   UNL     1       5.372   4.825  16.913  0.00  0.00    +0.000 OA
BRANCH  26  27
ATOM     27  C   UNL     1       6.241   4.276  17.914  0.00  0.00    +0.000 C 
BRANCH  27  28
ATOM     28  C   UNL     1       7.642   4.871  17.813  0.00  0.00    +0.000 C 
BRANCH  28  30
ATOM     29  C   UNL     1       7.754   7.393  17.899  0.00  0.00    +0.000 C 
ATOM     30  C   UNL     1       7.763   6.108  18.708  0.00  0.00    +0.000 C 
ENDBRANCH  28  30
ENDBRANCH  27  28
ENDBRANCH  26  27
ENDBRANCH   1  26
BRANCH   7  31
ATOM     31  C   UNL     1       1.995   5.345  21.124  0.00  0.00    +0.000 C 
BRANCH  31  32
ATOM     32  C   UNL     1       1.912   4.004  20.424  0.00  0.00    +0.000 A 
ATOM     33  C   UNL     1       2.960   3.077  20.416  0.00  0.00    +0.000 A 
ATOM     34  C   UNL     1       2.927   1.972  19.565  0.00  0.00    +0.000 A 
ATOM     35  C   UNL     1       1.824   1.749  18.744  0.00  0.00    +0.000 A 
ATOM     36  C   UNL     1       0.721   2.594  18.824  0.00  0.00    +0.000 A 
ATOM     37  C   UNL     1       0.761   3.710  19.665  0.00  0.00    +0.000 A 
ENDBRANCH  31  32
ENDBRANCH   7  31
TORSDOF 10
ENDMDL
MODEL 6
REMARK VINA RESULT:      -7.5      3.571      9.267
REMARK  Name = 
REMARK  13 active torsions:
REMARK  status: ('A' for Active; 'I' for Inactive)
REMARK    1  A    between atoms: C_1  and  C_2
REMARK    2  A    between atoms: C_2  and  C_3
REMARK    3  A    between atoms: C_3  and  C_4
REMARK    4  A    between atoms: C_4  and  O_5
REMARK    5  A    between atoms: O_5  and  C_6
REMARK    6  A    between atoms: C_10  and  C_11
REMARK    7  A    between atoms: N_13  and  C_14
REMARK    8  A    between atoms: C_14  and  C_15
REMARK    9  A    between atoms: C_23  and  C_24
REMARK   10  A    between atoms: C_24  and  C_25
REMARK   11  A    between atoms: C_24  and  C_26
REMARK   12  A    between atoms: N_27  and  C_28
REMARK   13  A    between atoms: C_28  and  C_29
REMARK                            x       y       z     vdW  Elec       q    Type
REMARK                         _______ _______ _______ _____ _____    ______ ____
ROOT
ATOM      1  C   UNL     1       4.312   6.019  17.323  0.00  0.00    +0.000 A 
ATOM      2  C   UNL     1       4.008   7.238  16.716  0.00  0.00    +0.000 A 
ATOM      3  C   UNL     1       3.142   8.148  17.320  0.00  0.00    +0.000 A 
ATOM      4  C   UNL     1       2.577   7.867  18.583  0.00  0.00    +0.000 A 
ATOM      5  C   UNL     1       1.673   8.589  19.434  0.00  0.00    +0.000 A 
ATOM      6  C   UNL     1       1.506   7.813  20.599  0.00  0.00    +0.000 A 
ATOM      7  N   UNL     1       2.140   6.595  20.369  0.00  0.00    +0.000 N 
ATOM      8  C   UNL     1       2.862   6.640  19.179  0.00  0.00    +0.000 A 
ATOM      9  C   UNL     1       3.723   5.703  18.561  0.00  0.00    +0.000 A 
ENDROOT
BRANCH   5  10
ATOM     10  C   UNL     1       1.010   9.851  19.138  0.00  0.00    +0.000 C 
ATOM     11  O   UNL     1       1.647  10.848  18.791  0.00  0.00    +0.000 OA
ATOM     12  N   UNL     1      -0.373   9.893  19.278  0.00  0.00    +0.000 N 
ATOM     13  H   UNL     1      -0.874   9.039  19.474  0.00  0.00    +0.000 HD
BRANCH  12  14
ATOM     14  C   UNL     1      -1.102  11.098  18.982  0.00  0.00    +0.000 C 
BRANCH  14  15
ATOM     15  C   UNL     1      -2.043  10.923  17.817  0.00  0.00    +0.000 A 
ATOM     16  C   UNL     1      -3.269  11.612  17.787  0.00  0.00    +0.000 A 
ATOM     17  C   UNL     1      -4.166  11.428  16.732  0.00  0.00    +0.000 A 
ATOM     18  C   UNL     1      -3.838  10.558  15.698  0.00  0.00    +0.000 A 
ATOM     19  F   UNL     1      -4.709  10.365  14.699  0.00  0.00    +0.000 F 
ATOM     20  C   UNL     1      -2.618   9.895  15.703  0.00  0.00    +0.000 A 
ATOM     21  F   UNL     1      -2.300   9.061  14.701  0.00  0.00    +0.000 F 
ATOM     22  C   UNL     1      -1.716  10.073  16.749  0.00  0.00    +0.000 A 
ENDBRANCH  14  15
ENDBRANCH  12  14
ENDBRANCH   5  10
BRANCH   6  23
ATOM     23  C   UNL     1       0.857   8.167  21.944  0.00  0.00    +0.000 C 
ATOM     24  C   UNL     1       1.504   9.377  22.635  0.00  0.00    +0.000 C 
ATOM     25  C   UNL     1      -0.658   8.377  21.911  0.00  0.00    +0.000 C 
ENDBRANCH   6  23
BRANCH   1  26
ATOM     26  O   UNL     1       5.154   5.077  16.781  0.00  0.00    +0.000 OA
BRANCH  26  27
ATOM     27  C   UNL     1       6.524   5.484  16.652  0.00  0.00    +0.000 C 
BRANCH  27  28
ATOM     28  C   UNL     1       7.320   5.144  17.908  0.00  0.00    +0.000 C 
BRANCH  28  30
ATOM     29  C   UNL     1       7.669   7.634  17.671  0.00  0.00    +0.000 C 
ATOM     30  C   UNL     1       7.852   6.421  18.566  0.00  0.00    +0.000 C 
ENDBRANCH  28  30
ENDBRANCH  27  28
ENDBRANCH  26  27
ENDBRANCH   1  26
BRANCH   7  31
ATOM     31  C   UNL     1       1.999   5.372  21.181  0.00  0.00    +0.000 C 
BRANCH  31  32
ATOM     32  C   UNL     1       1.939   4.066  20.415  0.00  0.00    +0.000 A 
ATOM     33  C   UNL     1       3.012   3.171  20.342  0.00  0.00    +0.000 A 
ATOM     34  C   UNL     1       2.993   2.108  19.436  0.00  0.00    +0.000 A 
ATOM     35  C   UNL     1       1.880   1.895  18.626  0.00  0.00    +0.000 A 
ATOM     36  C   UNL     1       0.756   2.704  18.769  0.00  0.00    +0.000 A 
ATOM     37  C   UNL     1       0.782   3.777  19.665  0.00  0.00    +0.000 A 
ENDBRANCH  31  32
ENDBRANCH   7  31
TORSDOF 10
ENDMDL
MODEL 7
REMARK VINA RESULT:      -7.5      3.947      9.446
REMARK  Name = 
REMARK  13 active torsions:
REMARK  status: ('A' for Active; 'I' for Inactive)
REMARK    1  A    between atoms: C_1  and  C_2
REMARK    2  A    between atoms: C_2  and  C_3
REMARK    3  A    between atoms: C_3  and  C_4
REMARK    4  A    between atoms: C_4  and  O_5
REMARK    5  A    between atoms: O_5  and  C_6
REMARK    6  A    between atoms: C_10  and  C_11
REMARK    7  A    between atoms: N_13  and  C_14
REMARK    8  A    between atoms: C_14  and  C_15
REMARK    9  A    between atoms: C_23  and  C_24
REMARK   10  A    between atoms: C_24  and  C_25
REMARK   11  A    between atoms: C_24  and  C_26
REMARK   12  A    between atoms: N_27  and  C_28
REMARK   13  A    between atoms: C_28  and  C_29
REMARK                            x       y       z     vdW  Elec       q    Type
REMARK                         _______ _______ _______ _____ _____    ______ ____
ROOT
ATOM      1  C   UNL     1       4.556   5.755  17.405  0.00  0.00    +0.000 A 
ATOM      2  C   UNL     1       4.310   6.959  16.745  0.00  0.00    +0.000 A 
ATOM      3  C   UNL     1       3.433   7.904  17.273  0.00  0.00    +0.000 A 
ATOM      4  C   UNL     1       2.797   7.676  18.513  0.00  0.00    +0.000 A 
ATOM      5  C   UNL     1       1.864   8.442  19.292  0.00  0.00    +0.000 A 
ATOM      6  C   UNL     1       1.620   7.707  20.470  0.00  0.00    +0.000 A 
ATOM      7  N   UNL     1       2.240   6.471  20.313  0.00  0.00    +0.000 N 
ATOM      8  C   UNL     1       3.024   6.464  19.162  0.00  0.00    +0.000 A 
ATOM      9  C   UNL     1       3.897   5.491  18.620  0.00  0.00    +0.000 A 
ENDROOT
BRANCH   5  10
ATOM     10  C   UNL     1       1.243   9.706  18.921  0.00  0.00    +0.000 C 
ATOM     11  O   UNL     1       1.909  10.645  18.478  0.00  0.00    +0.000 OA
ATOM     12  N   UNL     1      -0.131   9.820  19.103  0.00  0.00    +0.000 N 
ATOM     13  H   UNL     1      -0.659   9.006  19.381  0.00  0.00    +0.000 HD
BRANCH  12  14
ATOM     14  C   UNL     1      -0.819  11.029  18.740  0.00  0.00    +0.000 C 
BRANCH  14  15
ATOM     15  C   UNL     1      -1.855  10.796  17.670  0.00  0.00    +0.000 A 
ATOM     16  C   UNL     1      -1.663   9.791  16.705  0.00  0.00    +0.000 A 
ATOM     17  C   UNL     1      -2.599   9.592  15.686  0.00  0.00    +0.000 A 
ATOM     18  C   UNL     1      -3.733  10.394  15.631  0.00  0.00    +0.000 A 
ATOM     19  F   UNL     1      -4.617  10.218  14.639  0.00  0.00    +0.000 F 
ATOM     20  C   UNL     1      -3.946  11.371  16.594  0.00  0.00    +0.000 A 
ATOM     21  F   UNL     1      -5.044  12.140  16.544  0.00  0.00    +0.000 F 
ATOM     22  C   UNL     1      -3.021  11.575  17.616  0.00  0.00    +0.000 A 
ENDBRANCH  14  15
ENDBRANCH  12  14
ENDBRANCH   5  10
BRANCH   6  23
ATOM     23  C   UNL     1       0.910   8.118  21.767  0.00  0.00    +0.000 C 
ATOM     24  C   UNL     1       1.484   9.393  22.403  0.00  0.00    +0.000 C 
ATOM     25  C   UNL     1      -0.611   8.264  21.669  0.00  0.00    +0.000 C 
ENDBRANCH   6  23
BRANCH   1  26
ATOM     26  O   UNL     1       5.406   4.781  16.939  0.00  0.00    +0.000 OA
BRANCH  26  27
ATOM     27  C   UNL     1       6.037   5.069  15.682  0.00  0.00    +0.000 C 
BRANCH  27  28
ATOM     28  C   UNL     1       5.991   3.860  14.753  0.00  0.00    +0.000 C 
BRANCH  28  30
ATOM     29  C   UNL     1       6.056   3.151  12.330  0.00  0.00    +0.000 C 
ATOM     30  C   UNL     1       5.888   4.313  13.293  0.00  0.00    +0.000 C 
ENDBRANCH  28  30
ENDBRANCH  27  28
ENDBRANCH  26  27
ENDBRANCH   1  26
BRANCH   7  31
ATOM     31  C   UNL     1       2.032   5.278  21.154  0.00  0.00    +0.000 C 
BRANCH  31  32
ATOM     32  C   UNL     1       1.929   3.955  20.423  0.00  0.00    +0.000 A 
ATOM     33  C   UNL     1       2.959   3.007  20.405  0.00  0.00    +0.000 A 
ATOM     34  C   UNL     1       2.913   1.922  19.528  0.00  0.00    +0.000 A 
ATOM     35  C   UNL     1       1.814   1.740  18.691  0.00  0.00    +0.000 A 
ATOM     36  C   UNL     1       0.728   2.605  18.780  0.00  0.00    +0.000 A 
ATOM     37  C   UNL     1       0.781   3.701  19.646  0.00  0.00    +0.000 A 
ENDBRANCH  31  32
ENDBRANCH   7  31
TORSDOF 10
ENDMDL
MODEL 8
REMARK VINA RESULT:      -7.3      2.075      4.229
REMARK  Name = 
REMARK  13 active torsions:
REMARK  status: ('A' for Active; 'I' for Inactive)
REMARK    1  A    between atoms: C_1  and  C_2
REMARK    2  A    between atoms: C_2  and  C_3
REMARK    3  A    between atoms: C_3  and  C_4
REMARK    4  A    between atoms: C_4  and  O_5
REMARK    5  A    between atoms: O_5  and  C_6
REMARK    6  A    between atoms: C_10  and  C_11
REMARK    7  A    between atoms: N_13  and  C_14
REMARK    8  A    between atoms: C_14  and  C_15
REMARK    9  A    between atoms: C_23  and  C_24
REMARK   10  A    between atoms: C_24  and  C_25
REMARK   11  A    between atoms: C_24  and  C_26
REMARK   12  A    between atoms: N_27  and  C_28
REMARK   13  A    between atoms: C_28  and  C_29
REMARK                            x       y       z     vdW  Elec       q    Type
REMARK                         _______ _______ _______ _____ _____    ______ ____
ROOT
ATOM      1  C   UNL     1      -2.897  12.683  22.567  0.00  0.00    +0.000 A 
ATOM      2  C   UNL     1      -2.326  11.789  23.472  0.00  0.00    +0.000 A 
ATOM      3  C   UNL     1      -1.280  10.949  23.093  0.00  0.00    +0.000 A 
ATOM      4  C   UNL     1      -0.752  11.009  21.785  0.00  0.00    +0.000 A 
ATOM      5  C   UNL     1       0.296  10.289  21.117  0.00  0.00    +0.000 A 
ATOM      6  C   UNL     1       0.392  10.827  19.817  0.00  0.00    +0.000 A 
ATOM      7  N   UNL     1      -0.677  11.705  19.661  0.00  0.00    +0.000 N 
ATOM      8  C   UNL     1      -1.337  11.886  20.873  0.00  0.00    +0.000 A 
ATOM      9  C   UNL     1      -2.413  12.726  21.246  0.00  0.00    +0.000 A 
ENDROOT
BRANCH   5  10
ATOM     10  C   UNL     1       1.074   9.180  21.649  0.00  0.00    +0.000 C 
ATOM     11  O   UNL     1       1.693   9.279  22.712  0.00  0.00    +0.000 OA
ATOM     12  N   UNL     1       1.107   8.006  20.904  0.00  0.00    +0.000 N 
ATOM     13  H   UNL     1       0.518   7.925  20.088  0.00  0.00    +0.000 HD
BRANCH  12  14
ATOM     14  C   UNL     1       1.836   6.860  21.376  0.00  0.00    +0.000 C 
BRANCH  14  15
ATOM     15  C   UNL     1       1.928   5.774  20.334  0.00  0.00    +0.000 A 
ATOM     16  C   UNL     1       2.788   5.921  19.231  0.00  0.00    +0.000 A 
ATOM     17  C   UNL     1       2.852   4.938  18.240  0.00  0.00    +0.000 A 
ATOM     18  C   UNL     1       2.060   3.802  18.350  0.00  0.00    +0.000 A 
ATOM     19  F   UNL     1       2.104   2.872  17.386  0.00  0.00    +0.000 F 
ATOM     20  C   UNL     1       1.227   3.633  19.448  0.00  0.00    +0.000 A 
ATOM     21  F   UNL     1       0.468   2.533  19.556  0.00  0.00    +0.000 F 
ATOM     22  C   UNL     1       1.158   4.605  20.444  0.00  0.00    +0.000 A 
ENDBRANCH  14  15
ENDBRANCH  12  14
ENDBRANCH   5  10
BRANCH   6  23
ATOM     23  C   UNL     1       1.467  10.631  18.739  0.00  0.00    +0.000 C 
ATOM     24  C   UNL     1       1.083   9.594  17.673  0.00  0.00    +0.000 C 
ATOM     25  C   UNL     1       1.934  11.906  18.033  0.00  0.00    +0.000 C 
ENDBRANCH   6  23
BRANCH   1  26
ATOM     26  O   UNL     1      -3.930  13.536  22.874  0.00  0.00    +0.000 OA
BRANCH  26  27
ATOM     27  C   UNL     1      -5.231  12.933  22.911  0.00  0.00    +0.000 C 
BRANCH  27  28
ATOM     28  C   UNL     1      -5.990  13.178  21.611  0.00  0.00    +0.000 C 
BRANCH  28  30
ATOM     29  C   UNL     1      -7.651  11.309  21.257  0.00  0.00    +0.000 C 
ATOM     30  C   UNL     1      -7.448  12.731  21.750  0.00  0.00    +0.000 C 
ENDBRANCH  28  30
ENDBRANCH  27  28
ENDBRANCH  26  27
ENDBRANCH   1  26
BRANCH   7  31
ATOM     31  C   UNL     1      -1.147  12.289  18.391  0.00  0.00    +0.000 C 
BRANCH  31  32
ATOM     32  C   UNL     1      -2.071  11.422  17.561  0.00  0.00    +0.000 A 
ATOM     33  C   UNL     1      -2.652  10.243  18.040  0.00  0.00    +0.000 A 
ATOM     34  C   UNL     1      -3.296   9.361  17.170  0.00  0.00    +0.000 A 
ATOM     35  C   UNL     1      -3.413   9.668  15.816  0.00  0.00    +0.000 A 
ATOM     36  C   UNL     1      -2.947  10.891  15.343  0.00  0.00    +0.000 A 
ATOM     37  C   UNL     1      -2.288  11.767  16.211  0.00  0.00    +0.000 A 
ENDBRANCH  31  32
ENDBRANCH   7  31
TORSDOF 10
ENDMDL
MODEL 9
REMARK VINA RESULT:      -7.2      3.710      9.442
REMARK  Name = 
REMARK  13 active torsions:
REMARK  status: ('A' for Active; 'I' for Inactive)
REMARK    1  A    between atoms: C_1  and  C_2
REMARK    2  A    between atoms: C_2  and  C_3
REMARK    3  A    between atoms: C_3  and  C_4
REMARK    4  A    between atoms: C_4  and  O_5
REMARK    5  A    between atoms: O_5  and  C_6
REMARK    6  A    between atoms: C_10  and  C_11
REMARK    7  A    between atoms: N_13  and  C_14
REMARK    8  A    between atoms: C_14  and  C_15
REMARK    9  A    between atoms: C_23  and  C_24
REMARK   10  A    between atoms: C_24  and  C_25
REMARK   11  A    between atoms: C_24  and  C_26
REMARK   12  A    between atoms: N_27  and  C_28
REMARK   13  A    between atoms: C_28  and  C_29
REMARK                            x       y       z     vdW  Elec       q    Type
REMARK                         _______ _______ _______ _____ _____    ______ ____
ROOT
ATOM      1  C   UNL     1       4.442   5.656  17.344  0.00  0.00    +0.000 A 
ATOM      2  C   UNL     1       4.270   6.865  16.667  0.00  0.00    +0.000 A 
ATOM      3  C   UNL     1       3.449   7.867  17.181  0.00  0.00    +0.000 A 
ATOM      4  C   UNL     1       2.797   7.693  18.421  0.00  0.00    +0.000 A 
ATOM      5  C   UNL     1       1.909   8.523  19.187  0.00  0.00    +0.000 A 
ATOM      6  C   UNL     1       1.619   7.819  20.374  0.00  0.00    +0.000 A 
ATOM      7  N   UNL     1       2.165   6.546  20.234  0.00  0.00    +0.000 N 
ATOM      8  C   UNL     1       2.950   6.477  19.086  0.00  0.00    +0.000 A 
ATOM      9  C   UNL     1       3.765   5.448  18.560  0.00  0.00    +0.000 A 
ENDROOT
BRANCH   5  10
ATOM     10  C   UNL     1       1.365   9.816  18.798  0.00  0.00    +0.000 C 
ATOM     11  O   UNL     1       2.037  10.848  18.878  0.00  0.00    +0.000 OA
ATOM     12  N   UNL     1       0.050   9.846  18.348  0.00  0.00    +0.000 N 
ATOM     13  H   UNL     1      -0.442   8.976  18.208  0.00  0.00    +0.000 HD
BRANCH  12  14
ATOM     14  C   UNL     1      -0.550  11.083  17.926  0.00  0.00    +0.000 C 
BRANCH  14  15
ATOM     15  C   UNL     1      -2.056  11.008  17.903  0.00  0.00    +0.000 A 
ATOM     16  C   UNL     1      -2.711  10.208  16.950  0.00  0.00    +0.000 A 
ATOM     17  C   UNL     1      -4.107  10.160  16.895  0.00  0.00    +0.000 A 
ATOM     18  C   UNL     1      -4.853  10.909  17.797  0.00  0.00    +0.000 A 
ATOM     19  F   UNL     1      -6.191  10.882  17.728  0.00  0.00    +0.000 F 
ATOM     20  C   UNL     1      -4.218  11.681  18.760  0.00  0.00    +0.000 A 
ATOM     21  F   UNL     1      -4.939  12.398  19.635  0.00  0.00    +0.000 F 
ATOM     22  C   UNL     1      -2.827  11.732  18.826  0.00  0.00    +0.000 A 
ENDBRANCH  14  15
ENDBRANCH  12  14
ENDBRANCH   5  10
BRANCH   6  23
ATOM     23  C   UNL     1       0.931   8.287  21.663  0.00  0.00    +0.000 C 
ATOM     24  C   UNL     1       1.641   9.468  22.342  0.00  0.00    +0.000 C 
ATOM     25  C   UNL     1      -0.557   8.623  21.533  0.00  0.00    +0.000 C 
ENDBRANCH   6  23
BRANCH   1  26
ATOM     26  O   UNL     1       5.234   4.628  16.893  0.00  0.00    +0.000 OA
BRANCH  26  27
ATOM     27  C   UNL     1       6.551   5.010  16.468  0.00  0.00    +0.000 C 
BRANCH  27  28
ATOM     28  C   UNL     1       6.641   5.078  14.947  0.00  0.00    +0.000 C 
BRANCH  28  30
ATOM     29  C   UNL     1       6.301   3.581  12.942  0.00  0.00    +0.000 C 
ATOM     30  C   UNL     1       5.781   3.983  14.311  0.00  0.00    +0.000 C 
ENDBRANCH  28  30
ENDBRANCH  27  28
ENDBRANCH  26  27
ENDBRANCH   1  26
BRANCH   7  31
ATOM     31  C   UNL     1       1.884   5.378  21.090  0.00  0.00    +0.000 C 
BRANCH  31  32
ATOM     32  C   UNL     1       1.864   4.032  20.396  0.00  0.00    +0.000 A 
ATOM     33  C   UNL     1       2.941   3.139  20.424  0.00  0.00    +0.000 A 
ATOM     34  C   UNL     1       2.968   2.028  19.579  0.00  0.00    +0.000 A 
ATOM     35  C   UNL     1       1.897   1.765  18.729  0.00  0.00    +0.000 A 
ATOM     36  C   UNL     1       0.765   2.575  18.773  0.00  0.00    +0.000 A 
ATOM     37  C   UNL     1       0.745   3.696  19.607  0.00  0.00    +0.000 A 
ENDBRANCH  31  32
ENDBRANCH   7  31
TORSDOF 10
ENDMDL
