MODEL 1
REMARK VINA RESULT:      -7.9      0.000      0.000
REMARK  Name = 
REMARK  5 active torsions:
REMARK  status: ('A' for Active; 'I' for Inactive)
REMARK    1  A    between atoms: C_2  and  O_3
REMARK    2  A    between atoms: C_2  and  C_4
REMARK    3  A    between atoms: C_4  and  C_5
REMARK    4  A    between atoms: C_7  and  C_8
REMARK    5  A    between atoms: C_15  and  C_16
REMARK                            x       y       z     vdW  Elec       q    Type
REMARK                         _______ _______ _______ _____ _____    ______ ____
ROOT
ATOM      1  C   UNL     1       3.072   5.249  19.448  0.00  0.00    +0.000 A 
ATOM      2  S   UNL     1       4.134   4.184  18.610  0.00  0.00    +0.000 S 
ATOM      3  C   UNL     1       4.506   5.411  17.469  0.00  0.00    +0.000 A 
ATOM      4  N   UNL     1       3.930   6.568  17.724  0.00  0.00    +0.000 NA
ATOM      5  C   UNL     1       3.044   6.477  18.799  0.00  0.00    +0.000 A 
ENDROOT
BRANCH   3   6
ATOM      6  C   UNL     1       5.441   5.152  16.368  0.00  0.00    +0.000 A 
ATOM      7  C   UNL     1       5.090   4.298  15.318  0.00  0.00    +0.000 A 
ATOM      8  C   UNL     1       5.979   4.079  14.264  0.00  0.00    +0.000 A 
ATOM      9  C   UNL     1       7.208   4.714  14.296  0.00  0.00    +0.000 A 
ATOM     10  N   UNL     1       7.600   5.531  15.296  0.00  0.00    +0.000 NA
ATOM     11  C   UNL     1       6.712   5.723  16.304  0.00  0.00    +0.000 A 
ENDBRANCH   3   6
BRANCH   5  12
ATOM     12  C   UNL     1       2.220   7.643  19.144  0.00  0.00    +0.000 A 
ATOM     13  C   UNL     1       1.709   7.854  20.430  0.00  0.00    +0.000 A 
ATOM     14  C   UNL     1       0.892   8.954  20.716  0.00  0.00    +0.000 A 
ATOM     15  C   UNL     1       0.542   9.845  19.709  0.00  0.00    +0.000 A 
ATOM     16  C   UNL     1       1.018   9.642  18.414  0.00  0.00    +0.000 A 
ATOM     17  C   UNL     1       1.852   8.553  18.137  0.00  0.00    +0.000 A 
ENDBRANCH   5  12
BRANCH   1  18
ATOM     18  C   UNL     1       2.369   4.705  20.658  0.00  0.00    +0.000 C 
BRANCH  18  20
ATOM     19  O   UNL     1       0.794   3.618  19.196  0.00  0.00    +0.000 OA
ATOM     20  C   UNL     1       1.272   3.723  20.322  0.00  0.00    +0.000 C 
BRANCH  20  21
ATOM     21  O   UNL     1       0.913   2.882  21.321  0.00  0.00    +0.000 OA
ATOM     22  H   UNL     1       0.938   1.936  21.092  0.00  0.00    +0.000 HD
ENDBRANCH  20  21
ENDBRANCH  18  20
ENDBRANCH   1  18
TORSDOF 5
ENDMDL
MODEL 2
REMARK VINA RESULT:      -7.8      0.740      1.413
REMARK  Name = 
REMARK  5 active torsions:
REMARK  status: ('A' for Active; 'I' for Inactive)
REMARK    1  A    between atoms: C_2  and  O_3
REMARK    2  A    between atoms: C_2  and  C_4
REMARK    3  A    between atoms: C_4  and  C_5
REMARK    4  A    between atoms: C_7  and  C_8
REMARK    5  A    between atoms: C_15  and  C_16
REMARK                            x       y       z     vdW  Elec       q    Type
REMARK                         _______ _______ _______ _____ _____    ______ ____
ROOT
ATOM      1  C   UNL     1       2.616   5.671  19.776  0.00  0.00    +0.000 A 
ATOM      2  S   UNL     1       3.706   4.525  19.095  0.00  0.00    +0.000 S 
ATOM      3  C   UNL     1       4.188   5.658  17.898  0.00  0.00    +0.000 A 
ATOM      4  N   UNL     1       3.626   6.842  18.028  0.00  0.00    +0.000 NA
ATOM      5  C   UNL     1       2.666   6.849  19.041  0.00  0.00    +0.000 A 
ENDROOT
BRANCH   3   6
ATOM      6  C   UNL     1       5.191   5.300  16.889  0.00  0.00    +0.000 A 
ATOM      7  C   UNL     1       4.992   4.205  16.040  0.00  0.00    +0.000 A 
ATOM      8  C   UNL     1       5.943   3.889  15.068  0.00  0.00    +0.000 A 
ATOM      9  C   UNL     1       7.079   4.674  14.977  0.00  0.00    +0.000 A 
ATOM     10  N   UNL     1       7.325   5.727  15.785  0.00  0.00    +0.000 NA
ATOM     11  C   UNL     1       6.381   6.007  16.719  0.00  0.00    +0.000 A 
ENDBRANCH   3   6
BRANCH   5  12
ATOM     12  C   UNL     1       1.850   8.053  19.242  0.00  0.00    +0.000 A 
ATOM     13  C   UNL     1       1.545   8.943  18.204  0.00  0.00    +0.000 A 
ATOM     14  C   UNL     1       0.800  10.104  18.438  0.00  0.00    +0.000 A 
ATOM     15  C   UNL     1       0.375  10.415  19.724  0.00  0.00    +0.000 A 
ATOM     16  C   UNL     1       0.688   9.557  20.778  0.00  0.00    +0.000 A 
ATOM     17  C   UNL     1       1.415   8.386  20.536  0.00  0.00    +0.000 A 
ENDBRANCH   5  12
BRANCH   1  18
ATOM     18  C   UNL     1       1.817   5.232  20.969  0.00  0.00    +0.000 C 
BRANCH  18  20
ATOM     19  O   UNL     1       2.290   3.037  21.839  0.00  0.00    +0.000 OA
ATOM     20  C   UNL     1       1.648   3.733  21.058  0.00  0.00    +0.000 C 
BRANCH  20  21
ATOM     21  O   UNL     1       0.663   3.209  20.291  0.00  0.00    +0.000 OA
ATOM     22  H   UNL     1       0.034   2.637  20.764  0.00  0.00    +0.000 HD
ENDBRANCH  20  21
ENDBRANCH  18  20
ENDBRANCH   1  18
TORSDOF 5
ENDMDL
MODEL 3
REMARK VINA RESULT:      -7.8      3.865      7.150
REMARK  Name = 
REMARK  5 active torsions:
REMARK  status: ('A' for Active; 'I' for Inactive)
REMARK    1  A    between atoms: C_2  and  O_3
REMARK    2  A    between atoms: C_2  and  C_4
REMARK    3  A    between atoms: C_4  and  C_5
REMARK    4  A    between atoms: C_7  and  C_8
REMARK    5  A    between atoms: C_15  and  C_16
REMARK                            x       y       z     vdW  Elec       q    Type
REMARK                         _______ _______ _______ _____ _____    ______ ____
ROOT
ATOM      1  C   UNL     1       6.351   4.859  17.504  0.00  0.00    +0.000 A 
ATOM      2  S   UNL     1       5.314   4.751  18.874  0.00  0.00    +0.000 S 
ATOM      3  C   UNL     1       4.081   4.037  17.917  0.00  0.00    +0.000 A 
ATOM      4  N   UNL     1       4.432   3.827  16.666  0.00  0.00    +0.000 NA
ATOM      5  C   UNL     1       5.691   4.362  16.386  0.00  0.00    +0.000 A 
ENDROOT
BRANCH   3   6
ATOM      6  C   UNL     1       2.796   3.656  18.514  0.00  0.00    +0.000 A 
ATOM      7  C   UNL     1       2.325   4.296  19.665  0.00  0.00    +0.000 A 
ATOM      8  C   UNL     1       1.089   3.941  20.209  0.00  0.00    +0.000 A 
ATOM      9  C   UNL     1       0.359   2.941  19.592  0.00  0.00    +0.000 A 
ATOM     10  N   UNL     1       0.781   2.281  18.493  0.00  0.00    +0.000 NA
ATOM     11  C   UNL     1       1.985   2.650  17.988  0.00  0.00    +0.000 A 
ENDBRANCH   3   6
BRANCH   5  12
ATOM     12  C   UNL     1       6.189   4.329  15.005  0.00  0.00    +0.000 A 
ATOM     13  C   UNL     1       7.270   5.108  14.572  0.00  0.00    +0.000 A 
ATOM     14  C   UNL     1       7.693   5.084  13.238  0.00  0.00    +0.000 A 
ATOM     15  C   UNL     1       7.020   4.307  12.304  0.00  0.00    +0.000 A 
ATOM     16  C   UNL     1       5.925   3.542  12.707  0.00  0.00    +0.000 A 
ATOM     17  C   UNL     1       5.518   3.552  14.045  0.00  0.00    +0.000 A 
ENDBRANCH   5  12
BRANCH   1  18
ATOM     18  C   UNL     1       7.710   5.459  17.717  0.00  0.00    +0.000 C 
BRANCH  18  20
ATOM     19  O   UNL     1       6.961   7.673  17.138  0.00  0.00    +0.000 OA
ATOM     20  C   UNL     1       7.689   6.965  17.827  0.00  0.00    +0.000 C 
BRANCH  20  21
ATOM     21  O   UNL     1       8.452   7.491  18.814  0.00  0.00    +0.000 OA
ATOM     22  H   UNL     1       7.961   7.795  19.597  0.00  0.00    +0.000 HD
ENDBRANCH  20  21
ENDBRANCH  18  20
ENDBRANCH   1  18
TORSDOF 5
ENDMDL
MODEL 4
REMARK VINA RESULT:      -7.8      2.071      6.211
REMARK  Name = 
REMARK  5 active torsions:
REMARK  status: ('A' for Active; 'I' for Inactive)
REMARK    1  A    between atoms: C_2  and  O_3
REMARK    2  A    between atoms: C_2  and  C_4
REMARK    3  A    between atoms: C_4  and  C_5
REMARK    4  A    between atoms: C_7  and  C_8
REMARK    5  A    between atoms: C_15  and  C_16
REMARK                            x       y       z     vdW  Elec       q    Type
REMARK                         _______ _______ _______ _____ _____    ______ ____
ROOT
ATOM      1  C   UNL     1       3.410   4.156  19.441  0.00  0.00    +0.000 A 
ATOM      2  S   UNL     1       2.248   4.990  20.400  0.00  0.00    +0.000 S 
ATOM      3  C   UNL     1       2.569   6.454  19.562  0.00  0.00    +0.000 A 
ATOM      4  N   UNL     1       3.440   6.327  18.582  0.00  0.00    +0.000 NA
ATOM      5  C   UNL     1       3.994   5.046  18.547  0.00  0.00    +0.000 A 
ENDROOT
BRANCH   3   6
ATOM      6  C   UNL     1       1.855   7.687  19.910  0.00  0.00    +0.000 A 
ATOM      7  C   UNL     1       1.286   7.851  21.177  0.00  0.00    +0.000 A 
ATOM      8  C   UNL     1       0.630   9.040  21.503  0.00  0.00    +0.000 A 
ATOM      9  C   UNL     1       0.550  10.034  20.544  0.00  0.00    +0.000 A 
ATOM     10  N   UNL     1       1.066   9.915  19.302  0.00  0.00    +0.000 NA
ATOM     11  C   UNL     1       1.697   8.748  19.017  0.00  0.00    +0.000 A 
ENDBRANCH   3   6
BRANCH   5  12
ATOM     12  C   UNL     1       5.076   4.763  17.595  0.00  0.00    +0.000 A 
ATOM     13  C   UNL     1       6.430   4.869  17.936  0.00  0.00    +0.000 A 
ATOM     14  C   UNL     1       7.437   4.633  16.993  0.00  0.00    +0.000 A 
ATOM     15  C   UNL     1       7.107   4.320  15.680  0.00  0.00    +0.000 A 
ATOM     16  C   UNL     1       5.764   4.233  15.311  0.00  0.00    +0.000 A 
ATOM     17  C   UNL     1       4.761   4.449  16.262  0.00  0.00    +0.000 A 
ENDBRANCH   5  12
BRANCH   1  18
ATOM     18  C   UNL     1       3.613   2.696  19.724  0.00  0.00    +0.000 C 
BRANCH  18  20
ATOM     19  O   UNL     1       2.302   2.085  17.798  0.00  0.00    +0.000 OA
ATOM     20  C   UNL     1       3.209   1.802  18.574  0.00  0.00    +0.000 C 
BRANCH  20  21
ATOM     21  O   UNL     1       3.984   0.708  18.385  0.00  0.00    +0.000 OA
ATOM     22  H   UNL     1       4.535   0.727  17.583  0.00  0.00    +0.000 HD
ENDBRANCH  20  21
ENDBRANCH  18  20
ENDBRANCH   1  18
TORSDOF 5
ENDMDL
MODEL 5
REMARK VINA RESULT:      -7.8      3.893      7.163
REMARK  Name = 
REMARK  5 active torsions:
REMARK  status: ('A' for Active; 'I' for Inactive)
REMARK    1  A    between atoms: C_2  and  O_3
REMARK    2  A    between atoms: C_2  and  C_4
REMARK    3  A    between atoms: C_4  and  C_5
REMARK    4  A    between atoms: C_7  and  C_8
REMARK    5  A    between atoms: C_15  and  C_16
REMARK                            x       y       z     vdW  Elec       q    Type
REMARK                         _______ _______ _______ _____ _____    ______ ____
ROOT
ATOM      1  C   UNL     1       6.318   4.862  17.386  0.00  0.00    +0.000 A 
ATOM      2  S   UNL     1       5.337   4.737  18.795  0.00  0.00    +0.000 S 
ATOM      3  C   UNL     1       4.066   4.035  17.879  0.00  0.00    +0.000 A 
ATOM      4  N   UNL     1       4.366   3.840  16.612  0.00  0.00    +0.000 NA
ATOM      5  C   UNL     1       5.613   4.378  16.289  0.00  0.00    +0.000 A 
ENDROOT
BRANCH   3   6
ATOM      6  C   UNL     1       2.806   3.647  18.522  0.00  0.00    +0.000 A 
ATOM      7  C   UNL     1       2.407   4.234  19.727  0.00  0.00    +0.000 A 
ATOM      8  C   UNL     1       1.194   3.874  20.317  0.00  0.00    +0.000 A 
ATOM      9  C   UNL     1       0.412   2.920  19.688  0.00  0.00    +0.000 A 
ATOM     10  N   UNL     1       0.763   2.311  18.535  0.00  0.00    +0.000 NA
ATOM     11  C   UNL     1       1.948   2.685  17.988  0.00  0.00    +0.000 A 
ENDBRANCH   3   6
BRANCH   5  12
ATOM     12  C   UNL     1       6.056   4.363  14.889  0.00  0.00    +0.000 A 
ATOM     13  C   UNL     1       5.447   3.566  13.911  0.00  0.00    +0.000 A 
ATOM     14  C   UNL     1       5.920   3.544  12.594  0.00  0.00    +0.000 A 
ATOM     15  C   UNL     1       7.035   4.292  12.239  0.00  0.00    +0.000 A 
ATOM     16  C   UNL     1       7.674   5.074  13.201  0.00  0.00    +0.000 A 
ATOM     17  C   UNL     1       7.185   5.111  14.511  0.00  0.00    +0.000 A 
ENDBRANCH   5  12
BRANCH   1  18
ATOM     18  C   UNL     1       7.685   5.460  17.552  0.00  0.00    +0.000 C 
BRANCH  18  20
ATOM     19  O   UNL     1       6.940   7.713  17.143  0.00  0.00    +0.000 OA
ATOM     20  C   UNL     1       7.661   6.952  17.781  0.00  0.00    +0.000 C 
BRANCH  20  21
ATOM     21  O   UNL     1       8.414   7.398  18.814  0.00  0.00    +0.000 OA
ATOM     22  H   UNL     1       9.354   7.545  18.606  0.00  0.00    +0.000 HD
ENDBRANCH  20  21
ENDBRANCH  18  20
ENDBRANCH   1  18
TORSDOF 5
ENDMDL
MODEL 6
REMARK VINA RESULT:      -7.7      3.828      7.106
REMARK  Name = 
REMARK  5 active torsions:
REMARK  status: ('A' for Active; 'I' for Inactive)
REMARK    1  A    between atoms: C_2  and  O_3
REMARK    2  A    between atoms: C_2  and  C_4
REMARK    3  A    between atoms: C_4  and  C_5
REMARK    4  A    between atoms: C_7  and  C_8
REMARK    5  A    between atoms: C_15  and  C_16
REMARK                            x       y       z     vdW  Elec       q    Type
REMARK                         _______ _______ _______ _____ _____    ______ ____
ROOT
ATOM      1  C   UNL     1       6.328   4.897  17.386  0.00  0.00    +0.000 A 
ATOM      2  S   UNL     1       5.353   4.809  18.801  0.00  0.00    +0.000 S 
ATOM      3  C   UNL     1       4.064   4.119  17.901  0.00  0.00    +0.000 A 
ATOM      4  N   UNL     1       4.354   3.903  16.635  0.00  0.00    +0.000 NA
ATOM      5  C   UNL     1       5.609   4.413  16.299  0.00  0.00    +0.000 A 
ENDROOT
BRANCH   3   6
ATOM      6  C   UNL     1       2.801   3.763  18.556  0.00  0.00    +0.000 A 
ATOM      7  C   UNL     1       2.031   2.692  18.091  0.00  0.00    +0.000 A 
ATOM      8  C   UNL     1       0.842   2.348  18.738  0.00  0.00    +0.000 A 
ATOM      9  C   UNL     1       0.447   3.096  19.833  0.00  0.00    +0.000 A 
ATOM     10  N   UNL     1       1.145   4.150  20.307  0.00  0.00    +0.000 NA
ATOM     11  C   UNL     1       2.296   4.457  19.656  0.00  0.00    +0.000 A 
ENDBRANCH   3   6
BRANCH   5  12
ATOM     12  C   UNL     1       6.043   4.372  14.897  0.00  0.00    +0.000 A 
ATOM     13  C   UNL     1       5.423   3.564  13.936  0.00  0.00    +0.000 A 
ATOM     14  C   UNL     1       5.889   3.517  12.617  0.00  0.00    +0.000 A 
ATOM     15  C   UNL     1       7.007   4.252  12.243  0.00  0.00    +0.000 A 
ATOM     16  C   UNL     1       7.657   5.045  13.188  0.00  0.00    +0.000 A 
ATOM     17  C   UNL     1       7.175   5.106  14.501  0.00  0.00    +0.000 A 
ENDBRANCH   5  12
BRANCH   1  18
ATOM     18  C   UNL     1       7.708   5.471  17.537  0.00  0.00    +0.000 C 
BRANCH  18  20
ATOM     19  O   UNL     1       7.042   7.746  17.115  0.00  0.00    +0.000 OA
ATOM     20  C   UNL     1       7.712   6.961  17.780  0.00  0.00    +0.000 C 
BRANCH  20  21
ATOM     21  O   UNL     1       8.426   7.377  18.852  0.00  0.00    +0.000 OA
ATOM     22  H   UNL     1       8.379   6.793  19.630  0.00  0.00    +0.000 HD
ENDBRANCH  20  21
ENDBRANCH  18  20
ENDBRANCH   1  18
TORSDOF 5
ENDMDL
MODEL 7
REMARK VINA RESULT:      -7.7      2.144      6.190
REMARK  Name = 
REMARK  5 active torsions:
REMARK  status: ('A' for Active; 'I' for Inactive)
REMARK    1  A    between atoms: C_2  and  O_3
REMARK    2  A    between atoms: C_2  and  C_4
REMARK    3  A    between atoms: C_4  and  C_5
REMARK    4  A    between atoms: C_7  and  C_8
REMARK    5  A    between atoms: C_15  and  C_16
REMARK                            x       y       z     vdW  Elec       q    Type
REMARK                         _______ _______ _______ _____ _____    ______ ____
ROOT
ATOM      1  C   UNL     1       3.446   4.217  19.362  0.00  0.00    +0.000 A 
ATOM      2  S   UNL     1       2.285   5.067  20.307  0.00  0.00    +0.000 S 
ATOM      3  C   UNL     1       2.600   6.514  19.438  0.00  0.00    +0.000 A 
ATOM      4  N   UNL     1       3.468   6.370  18.459  0.00  0.00    +0.000 NA
ATOM      5  C   UNL     1       4.025   5.090  18.448  0.00  0.00    +0.000 A 
ENDROOT
BRANCH   3   6
ATOM      6  C   UNL     1       1.884   7.753  19.763  0.00  0.00    +0.000 A 
ATOM      7  C   UNL     1       1.718   8.756  18.803  0.00  0.00    +0.000 A 
ATOM      8  C   UNL     1       1.013   9.920  19.118  0.00  0.00    +0.000 A 
ATOM      9  C   UNL     1       0.500  10.055  20.396  0.00  0.00    +0.000 A 
ATOM     10  N   UNL     1       0.651   9.124  21.362  0.00  0.00    +0.000 NA
ATOM     11  C   UNL     1       1.340   8.005  21.023  0.00  0.00    +0.000 A 
ENDBRANCH   3   6
BRANCH   5  12
ATOM     12  C   UNL     1       5.105   4.790  17.499  0.00  0.00    +0.000 A 
ATOM     13  C   UNL     1       6.459   4.833  17.855  0.00  0.00    +0.000 A 
ATOM     14  C   UNL     1       7.465   4.583  16.915  0.00  0.00    +0.000 A 
ATOM     15  C   UNL     1       7.136   4.319  15.592  0.00  0.00    +0.000 A 
ATOM     16  C   UNL     1       5.796   4.296  15.207  0.00  0.00    +0.000 A 
ATOM     17  C   UNL     1       4.792   4.525  16.154  0.00  0.00    +0.000 A 
ENDBRANCH   5  12
BRANCH   1  18
ATOM     18  C   UNL     1       3.653   2.763  19.674  0.00  0.00    +0.000 C 
BRANCH  18  20
ATOM     19  O   UNL     1       2.366   2.131  17.739  0.00  0.00    +0.000 OA
ATOM     20  C   UNL     1       3.246   1.846  18.545  0.00  0.00    +0.000 C 
BRANCH  20  21
ATOM     21  O   UNL     1       3.988   0.721  18.409  0.00  0.00    +0.000 OA
ATOM     22  H   UNL     1       4.936   0.826  18.607  0.00  0.00    +0.000 HD
ENDBRANCH  20  21
ENDBRANCH  18  20
ENDBRANCH   1  18
TORSDOF 5
ENDMDL
MODEL 8
REMARK VINA RESULT:      -7.7      0.971      1.480
REMARK  Name = 
REMARK  5 active torsions:
REMARK  status: ('A' for Active; 'I' for Inactive)
REMARK    1  A    between atoms: C_2  and  O_3
REMARK    2  A    between atoms: C_2  and  C_4
REMARK    3  A    between atoms: C_4  and  C_5
REMARK    4  A    between atoms: C_7  and  C_8
REMARK    5  A    between atoms: C_15  and  C_16
REMARK                            x       y       z     vdW  Elec       q    Type
REMARK                         _______ _______ _______ _____ _____    ______ ____
ROOT
ATOM      1  C   UNL     1       3.334   4.495  18.556  0.00  0.00    +0.000 A 
ATOM      2  S   UNL     1       4.352   3.552  17.538  0.00  0.00    +0.000 S 
ATOM      3  C   UNL     1       4.779   4.945  16.631  0.00  0.00    +0.000 A 
ATOM      4  N   UNL     1       4.252   6.061  17.090  0.00  0.00    +0.000 NA
ATOM      5  C   UNL     1       3.360   5.819  18.135  0.00  0.00    +0.000 A 
ENDROOT
BRANCH   3   6
ATOM      6  C   UNL     1       5.706   4.846  15.498  0.00  0.00    +0.000 A 
ATOM      7  C   UNL     1       5.399   4.049  14.390  0.00  0.00    +0.000 A 
ATOM      8  C   UNL     1       6.278   3.983  13.308  0.00  0.00    +0.000 A 
ATOM      9  C   UNL     1       7.454   4.710  13.368  0.00  0.00    +0.000 A 
ATOM     10  N   UNL     1       7.804   5.476  14.423  0.00  0.00    +0.000 NA
ATOM     11  C   UNL     1       6.927   5.520  15.457  0.00  0.00    +0.000 A 
ENDBRANCH   3   6
BRANCH   5  12
ATOM     12  C   UNL     1       2.585   6.939  18.685  0.00  0.00    +0.000 A 
ATOM     13  C   UNL     1       2.238   8.064  17.927  0.00  0.00    +0.000 A 
ATOM     14  C   UNL     1       1.534   9.133  18.493  0.00  0.00    +0.000 A 
ATOM     15  C   UNL     1       1.194   9.111  19.840  0.00  0.00    +0.000 A 
ATOM     16  C   UNL     1       1.550   8.012  20.622  0.00  0.00    +0.000 A 
ATOM     17  C   UNL     1       2.235   6.936  20.047  0.00  0.00    +0.000 A 
ENDBRANCH   5  12
BRANCH   1  18
ATOM     18  C   UNL     1       2.604   3.775  19.654  0.00  0.00    +0.000 C 
BRANCH  18  20
ATOM     19  O   UNL     1       0.947   2.845  18.175  0.00  0.00    +0.000 OA
ATOM     20  C   UNL     1       1.210   3.346  19.264  0.00  0.00    +0.000 C 
BRANCH  20  21
ATOM     21  O   UNL     1       0.273   3.452  20.236  0.00  0.00    +0.000 OA
ATOM     22  H   UNL     1       0.153   2.654  20.781  0.00  0.00    +0.000 HD
ENDBRANCH  20  21
ENDBRANCH  18  20
ENDBRANCH   1  18
TORSDOF 5
ENDMDL
MODEL 9
REMARK VINA RESULT:      -7.7      2.194      6.284
REMARK  Name = 
REMARK  5 active torsions:
REMARK  status: ('A' for Active; 'I' for Inactive)
REMARK    1  A    between atoms: C_2  and  O_3
REMARK    2  A    between atoms: C_2  and  C_4
REMARK    3  A    between atoms: C_4  and  C_5
REMARK    4  A    between atoms: C_7  and  C_8
REMARK    5  A    between atoms: C_15  and  C_16
REMARK                            x       y       z     vdW  Elec       q    Type
REMARK                         _______ _______ _______ _____ _____    ______ ____
ROOT
ATOM      1  C   UNL     1       3.371   4.246  19.470  0.00  0.00    +0.000 A 
ATOM      2  S   UNL     1       2.207   5.085  20.422  0.00  0.00    +0.000 S 
ATOM      3  C   UNL     1       2.517   6.540  19.564  0.00  0.00    +0.000 A 
ATOM      4  N   UNL     1       3.385   6.405  18.583  0.00  0.00    +0.000 NA
ATOM      5  C   UNL     1       3.946   5.127  18.563  0.00  0.00    +0.000 A 
ENDROOT
BRANCH   3   6
ATOM      6  C   UNL     1       1.796   7.773  19.898  0.00  0.00    +0.000 A 
ATOM      7  C   UNL     1       1.632   8.786  18.947  0.00  0.00    +0.000 A 
ATOM      8  C   UNL     1       0.923   9.944  19.270  0.00  0.00    +0.000 A 
ATOM      9  C   UNL     1       0.405  10.066  20.548  0.00  0.00    +0.000 A 
ATOM     10  N   UNL     1       0.555   9.126  21.505  0.00  0.00    +0.000 NA
ATOM     11  C   UNL     1       1.248   8.012  21.158  0.00  0.00    +0.000 A 
ENDBRANCH   3   6
BRANCH   5  12
ATOM     12  C   UNL     1       5.027   4.839  17.611  0.00  0.00    +0.000 A 
ATOM     13  C   UNL     1       4.787   4.404  16.302  0.00  0.00    +0.000 A 
ATOM     14  C   UNL     1       5.841   4.097  15.434  0.00  0.00    +0.000 A 
ATOM     15  C   UNL     1       7.156   4.187  15.872  0.00  0.00    +0.000 A 
ATOM     16  C   UNL     1       7.420   4.594  17.180  0.00  0.00    +0.000 A 
ATOM     17  C   UNL     1       6.364   4.920  18.038  0.00  0.00    +0.000 A 
ENDBRANCH   5  12
BRANCH   1  18
ATOM     18  C   UNL     1       3.583   2.791  19.771  0.00  0.00    +0.000 C 
BRANCH  18  20
ATOM     19  O   UNL     1       2.356   2.106  17.815  0.00  0.00    +0.000 OA
ATOM     20  C   UNL     1       3.272   1.887  18.602  0.00  0.00    +0.000 C 
BRANCH  20  21
ATOM     21  O   UNL     1       4.138   0.864  18.407  0.00  0.00    +0.000 OA
ATOM     22  H   UNL     1       4.805   0.750  19.107  0.00  0.00    +0.000 HD
ENDBRANCH  20  21
ENDBRANCH  18  20
ENDBRANCH   1  18
TORSDOF 5
ENDMDL
