MODEL 1
REMARK VINA RESULT:      -8.5      0.000      0.000
REMARK  Name = 
REMARK  7 active torsions:
REMARK  status: ('A' for Active; 'I' for Inactive)
REMARK    1  A    between atoms: O_1  and  C_2
REMARK    2  A    between atoms: C_8  and  C_9
REMARK    3  A    between atoms: C_12  and  O_13
REMARK    4  A    between atoms: O_13  and  C_14
REMARK    5  A    between atoms: C_14  and  C_15
REMARK    6  A    between atoms: C_15  and  N_16
REMARK    7  A    between atoms: C_30  and  O_31
REMARK                            x       y       z     vdW  Elec       q    Type
REMARK                         _______ _______ _______ _____ _____    ______ ____
ROOT
ATOM      1  C   UNL     1       1.267   2.648  18.593  0.00  0.00    +0.000 A 
ATOM      2  C   UNL     1       2.197   1.881  19.318  0.00  0.00    +0.000 A 
ATOM      3  C   UNL     1       3.517   2.331  19.448  0.00  0.00    +0.000 A 
ATOM      4  C   UNL     1       3.888   3.527  18.852  0.00  0.00    +0.000 A 
ATOM      5  C   UNL     1       2.931   4.277  18.111  0.00  0.00    +0.000 A 
ATOM      6  C   UNL     1       1.618   3.853  17.984  0.00  0.00    +0.000 A 
ATOM      7  C   UNL     1       3.554   5.576  17.602  0.00  0.00    +0.000 C 
ATOM      8  C   UNL     1       5.018   5.365  18.019  0.00  0.00    +0.000 A 
ATOM      9  C   UNL     1       5.140   4.236  18.853  0.00  0.00    +0.000 A 
ATOM     10  C   UNL     1       6.304   3.999  19.561  0.00  0.00    +0.000 A 
ATOM     11  C   UNL     1       7.312   4.972  19.525  0.00  0.00    +0.000 A 
ATOM     12  C   UNL     1       7.201   6.112  18.696  0.00  0.00    +0.000 A 
ATOM     13  C   UNL     1       8.073   7.193  18.771  0.00  0.00    +0.000 A 
ATOM     14  C   UNL     1       7.913   8.235  17.866  0.00  0.00    +0.000 A 
ATOM     15  C   UNL     1       7.129   8.107  16.735  0.00  0.00    +0.000 A 
ATOM     16  C   UNL     1       6.136   7.148  16.758  0.00  0.00    +0.000 A 
ATOM     17  C   UNL     1       6.106   6.208  17.798  0.00  0.00    +0.000 A 
ENDROOT
BRANCH   7  18
ATOM     18  C   UNL     1       2.900   6.797  18.264  0.00  0.00    +0.000 A 
ATOM     19  C   UNL     1       2.537   6.753  19.627  0.00  0.00    +0.000 A 
ATOM     20  C   UNL     1       1.857   7.810  20.223  0.00  0.00    +0.000 A 
ATOM     21  C   UNL     1       1.502   8.949  19.499  0.00  0.00    +0.000 A 
ATOM     22  C   UNL     1       1.885   9.032  18.162  0.00  0.00    +0.000 A 
ATOM     23  C   UNL     1       2.571   7.959  17.547  0.00  0.00    +0.000 A 
BRANCH  21  24
ATOM     24  O   UNL     1       0.780  10.011  20.026  0.00  0.00    +0.000 OA
BRANCH  24  25
ATOM     25  C   UNL     1       0.083  10.772  19.024  0.00  0.00    +0.000 C 
BRANCH  25  26
ATOM     26  C   UNL     1      -1.361  11.144  19.400  0.00  0.00    +0.000 C 
BRANCH  26  27
ATOM     27  N   UNL     1      -2.341  10.676  18.385  0.00  0.00    +0.000 NA
ATOM     28  C   UNL     1      -3.373  11.699  18.155  0.00  0.00    +0.000 C 
ATOM     29  C   UNL     1      -4.448  11.203  17.181  0.00  0.00    +0.000 C 
ATOM     30  C   UNL     1      -3.841  10.744  15.859  0.00  0.00    +0.000 C 
ATOM     31  C   UNL     1      -2.730   9.738  16.113  0.00  0.00    +0.000 C 
ATOM     32  C   UNL     1      -1.709  10.276  17.115  0.00  0.00    +0.000 C 
ENDBRANCH  26  27
ENDBRANCH  25  26
ENDBRANCH  24  25
ENDBRANCH  21  24
ENDBRANCH   7  18
BRANCH   1  33
ATOM     33  O   UNL     1      -0.032   2.246  18.474  0.00  0.00    +0.000 OA
ATOM     34  H   UNL     1      -0.321   1.881  19.327  0.00  0.00    +0.000 HD
ENDBRANCH   1  33
BRANCH  14  35
ATOM     35  O   UNL     1       8.295   9.495  18.226  0.00  0.00    +0.000 OA
ATOM     36  H   UNL     1       8.179  10.002  17.391  0.00  0.00    +0.000 HD
ENDBRANCH  14  35
TORSDOF 7
ENDMDL
MODEL 2
REMARK VINA RESULT:      -8.3      3.285      7.873
REMARK  Name = 
REMARK  7 active torsions:
REMARK  status: ('A' for Active; 'I' for Inactive)
REMARK    1  A    between atoms: O_1  and  C_2
REMARK    2  A    between atoms: C_8  and  C_9
REMARK    3  A    between atoms: C_12  and  O_13
REMARK    4  A    between atoms: O_13  and  C_14
REMARK    5  A    between atoms: C_14  and  C_15
REMARK    6  A    between atoms: C_15  and  N_16
REMARK    7  A    between atoms: C_30  and  O_31
REMARK                            x       y       z     vdW  Elec       q    Type
REMARK                         _______ _______ _______ _____ _____    ______ ____
ROOT
ATOM      1  C   UNL     1       1.331   9.716  19.532  0.00  0.00    +0.000 A 
ATOM      2  C   UNL     1       0.961   9.318  20.830  0.00  0.00    +0.000 A 
ATOM      3  C   UNL     1       1.053   7.971  21.196  0.00  0.00    +0.000 A 
ATOM      4  C   UNL     1       1.502   7.044  20.267  0.00  0.00    +0.000 A 
ATOM      5  C   UNL     1       1.856   7.469  18.955  0.00  0.00    +0.000 A 
ATOM      6  C   UNL     1       1.784   8.801  18.580  0.00  0.00    +0.000 A 
ATOM      7  C   UNL     1       2.373   6.288  18.137  0.00  0.00    +0.000 C 
ATOM      8  C   UNL     1       2.104   5.132  19.114  0.00  0.00    +0.000 A 
ATOM      9  C   UNL     1       1.727   5.627  20.377  0.00  0.00    +0.000 A 
ATOM     10  C   UNL     1       1.690   4.797  21.482  0.00  0.00    +0.000 A 
ATOM     11  C   UNL     1       2.153   3.482  21.340  0.00  0.00    +0.000 A 
ATOM     12  C   UNL     1       2.538   2.973  20.077  0.00  0.00    +0.000 A 
ATOM     13  C   UNL     1       3.184   1.751  19.916  0.00  0.00    +0.000 A 
ATOM     14  C   UNL     1       3.461   1.316  18.626  0.00  0.00    +0.000 A 
ATOM     15  C   UNL     1       2.872   1.894  17.517  0.00  0.00    +0.000 A 
ATOM     16  C   UNL     1       2.408   3.187  17.649  0.00  0.00    +0.000 A 
ATOM     17  C   UNL     1       2.337   3.771  18.922  0.00  0.00    +0.000 A 
ENDROOT
BRANCH   7  18
ATOM     18  C   UNL     1       3.859   6.464  17.793  0.00  0.00    +0.000 A 
ATOM     19  C   UNL     1       4.851   5.995  18.680  0.00  0.00    +0.000 A 
ATOM     20  C   UNL     1       6.200   6.229  18.437  0.00  0.00    +0.000 A 
ATOM     21  C   UNL     1       6.626   6.940  17.314  0.00  0.00    +0.000 A 
ATOM     22  C   UNL     1       5.668   7.378  16.403  0.00  0.00    +0.000 A 
ATOM     23  C   UNL     1       4.293   7.151  16.647  0.00  0.00    +0.000 A 
BRANCH  21  24
ATOM     24  O   UNL     1       7.953   7.247  17.046  0.00  0.00    +0.000 OA
BRANCH  24  25
ATOM     25  C   UNL     1       8.528   8.150  18.006  0.00  0.00    +0.000 C 
BRANCH  25  26
ATOM     26  C   UNL     1       8.104   9.617  17.832  0.00  0.00    +0.000 C 
BRANCH  26  27
ATOM     27  N   UNL     1       9.170  10.562  18.256  0.00  0.00    +0.000 NA
ATOM     28  C   UNL     1       8.850  11.930  17.819  0.00  0.00    +0.000 C 
ATOM     29  C   UNL     1       9.980  12.907  18.163  0.00  0.00    +0.000 C 
ATOM     30  C   UNL     1      10.313  12.882  19.651  0.00  0.00    +0.000 C 
ATOM     31  C   UNL     1      10.576  11.455  20.106  0.00  0.00    +0.000 C 
ATOM     32  C   UNL     1       9.431  10.524  19.706  0.00  0.00    +0.000 C 
ENDBRANCH  26  27
ENDBRANCH  25  26
ENDBRANCH  24  25
ENDBRANCH  21  24
ENDBRANCH   7  18
BRANCH   1  33
ATOM     33  O   UNL     1       1.277  11.027  19.157  0.00  0.00    +0.000 OA
ATOM     34  H   UNL     1       1.534  11.575  19.917  0.00  0.00    +0.000 HD
ENDBRANCH   1  33
BRANCH  14  35
ATOM     35  O   UNL     1       4.536   0.502  18.414  0.00  0.00    +0.000 OA
ATOM     36  H   UNL     1       4.551  -0.051  19.227  0.00  0.00    +0.000 HD
ENDBRANCH  14  35
TORSDOF 7
ENDMDL
MODEL 3
REMARK VINA RESULT:      -8.1      3.496      7.194
REMARK  Name = 
REMARK  7 active torsions:
REMARK  status: ('A' for Active; 'I' for Inactive)
REMARK    1  A    between atoms: O_1  and  C_2
REMARK    2  A    between atoms: C_8  and  C_9
REMARK    3  A    between atoms: C_12  and  O_13
REMARK    4  A    between atoms: O_13  and  C_14
REMARK    5  A    between atoms: C_14  and  C_15
REMARK    6  A    between atoms: C_15  and  N_16
REMARK    7  A    between atoms: C_30  and  O_31
REMARK                            x       y       z     vdW  Elec       q    Type
REMARK                         _______ _______ _______ _____ _____    ______ ____
ROOT
ATOM      1  C   UNL     1       2.539   7.086  18.585  0.00  0.00    +0.000 A 
ATOM      2  C   UNL     1       2.264   6.373  19.766  0.00  0.00    +0.000 A 
ATOM      3  C   UNL     1       1.618   7.014  20.830  0.00  0.00    +0.000 A 
ATOM      4  C   UNL     1       1.263   8.349  20.703  0.00  0.00    +0.000 A 
ATOM      5  C   UNL     1       1.566   9.053  19.503  0.00  0.00    +0.000 A 
ATOM      6  C   UNL     1       2.194   8.430  18.436  0.00  0.00    +0.000 A 
ATOM      7  C   UNL     1       1.030  10.481  19.577  0.00  0.00    +0.000 C 
ATOM      8  C   UNL     1       0.539  10.520  21.033  0.00  0.00    +0.000 A 
ATOM      9  C   UNL     1       0.570   9.233  21.603  0.00  0.00    +0.000 A 
ATOM     10  C   UNL     1      -0.065   8.973  22.803  0.00  0.00    +0.000 A 
ATOM     11  C   UNL     1      -0.841   9.989  23.376  0.00  0.00    +0.000 A 
ATOM     12  C   UNL     1      -0.884  11.285  22.812  0.00  0.00    +0.000 A 
ATOM     13  C   UNL     1      -1.784  12.263  23.225  0.00  0.00    +0.000 A 
ATOM     14  C   UNL     1      -1.698  13.524  22.648  0.00  0.00    +0.000 A 
ATOM     15  C   UNL     1      -0.595  13.920  21.915  0.00  0.00    +0.000 A 
ATOM     16  C   UNL     1       0.179  12.927  21.351  0.00  0.00    +0.000 A 
ATOM     17  C   UNL     1      -0.032  11.590  21.719  0.00  0.00    +0.000 A 
ENDROOT
BRANCH   7  18
ATOM     18  C   UNL     1      -0.088  10.703  18.549  0.00  0.00    +0.000 A 
ATOM     19  C   UNL     1      -0.538  12.010  18.265  0.00  0.00    +0.000 A 
ATOM     20  C   UNL     1      -1.614  12.229  17.410  0.00  0.00    +0.000 A 
ATOM     21  C   UNL     1      -2.294  11.169  16.809  0.00  0.00    +0.000 A 
ATOM     22  C   UNL     1      -1.843   9.872  17.042  0.00  0.00    +0.000 A 
ATOM     23  C   UNL     1      -0.754   9.641  17.915  0.00  0.00    +0.000 A 
BRANCH  21  24
ATOM     24  O   UNL     1      -3.404  11.323  15.989  0.00  0.00    +0.000 OA
BRANCH  24  25
ATOM     25  C   UNL     1      -4.629  10.899  16.612  0.00  0.00    +0.000 C 
BRANCH  25  26
ATOM     26  C   UNL     1      -5.437  12.034  17.261  0.00  0.00    +0.000 C 
BRANCH  26  27
ATOM     27  N   UNL     1      -5.737  11.760  18.691  0.00  0.00    +0.000 NA
ATOM     28  C   UNL     1      -5.073  12.748  19.556  0.00  0.00    +0.000 C 
ATOM     29  C   UNL     1      -5.293  12.431  21.040  0.00  0.00    +0.000 C 
ATOM     30  C   UNL     1      -6.775  12.327  21.381  0.00  0.00    +0.000 C 
ATOM     31  C   UNL     1      -7.464  11.355  20.437  0.00  0.00    +0.000 C 
ATOM     32  C   UNL     1      -7.182  11.703  18.975  0.00  0.00    +0.000 C 
ENDBRANCH  26  27
ENDBRANCH  25  26
ENDBRANCH  24  25
ENDBRANCH  21  24
ENDBRANCH   7  18
BRANCH   1  33
ATOM     33  O   UNL     1       3.144   6.479  17.524  0.00  0.00    +0.000 OA
ATOM     34  H   UNL     1       2.517   6.462  16.781  0.00  0.00    +0.000 HD
ENDBRANCH   1  33
BRANCH  14  35
ATOM     35  O   UNL     1      -2.824  14.291  22.553  0.00  0.00    +0.000 OA
ATOM     36  H   UNL     1      -3.535  13.618  22.452  0.00  0.00    +0.000 HD
ENDBRANCH  14  35
TORSDOF 7
ENDMDL
MODEL 4
REMARK VINA RESULT:      -7.9      0.435      1.255
REMARK  Name = 
REMARK  7 active torsions:
REMARK  status: ('A' for Active; 'I' for Inactive)
REMARK    1  A    between atoms: O_1  and  C_2
REMARK    2  A    between atoms: C_8  and  C_9
REMARK    3  A    between atoms: C_12  and  O_13
REMARK    4  A    between atoms: O_13  and  C_14
REMARK    5  A    between atoms: C_14  and  C_15
REMARK    6  A    between atoms: C_15  and  N_16
REMARK    7  A    between atoms: C_30  and  O_31
REMARK                            x       y       z     vdW  Elec       q    Type
REMARK                         _______ _______ _______ _____ _____    ______ ____
ROOT
ATOM      1  C   UNL     1       1.252   2.541  18.669  0.00  0.00    +0.000 A 
ATOM      2  C   UNL     1       2.186   1.824  19.438  0.00  0.00    +0.000 A 
ATOM      3  C   UNL     1       3.496   2.303  19.565  0.00  0.00    +0.000 A 
ATOM      4  C   UNL     1       3.854   3.478  18.920  0.00  0.00    +0.000 A 
ATOM      5  C   UNL     1       2.894   4.177  18.135  0.00  0.00    +0.000 A 
ATOM      6  C   UNL     1       1.591   3.724  18.010  0.00  0.00    +0.000 A 
ATOM      7  C   UNL     1       3.502   5.462  17.576  0.00  0.00    +0.000 C 
ATOM      8  C   UNL     1       4.964   5.296  18.021  0.00  0.00    +0.000 A 
ATOM      9  C   UNL     1       5.094   4.208  18.906  0.00  0.00    +0.000 A 
ATOM     10  C   UNL     1       6.252   4.023  19.638  0.00  0.00    +0.000 A 
ATOM     11  C   UNL     1       7.243   5.012  19.572  0.00  0.00    +0.000 A 
ATOM     12  C   UNL     1       7.124   6.112  18.691  0.00  0.00    +0.000 A 
ATOM     13  C   UNL     1       7.976   7.211  18.729  0.00  0.00    +0.000 A 
ATOM     14  C   UNL     1       7.810   8.208  17.776  0.00  0.00    +0.000 A 
ATOM     15  C   UNL     1       7.044   8.015  16.642  0.00  0.00    +0.000 A 
ATOM     16  C   UNL     1       6.068   7.042  16.695  0.00  0.00    +0.000 A 
ATOM     17  C   UNL     1       6.039   6.148  17.776  0.00  0.00    +0.000 A 
ENDROOT
BRANCH   7  18
ATOM     18  C   UNL     1       2.818   6.700  18.175  0.00  0.00    +0.000 A 
ATOM     19  C   UNL     1       2.680   7.873  17.404  0.00  0.00    +0.000 A 
ATOM     20  C   UNL     1       2.151   9.036  17.956  0.00  0.00    +0.000 A 
ATOM     21  C   UNL     1       1.746   9.091  19.290  0.00  0.00    +0.000 A 
ATOM     22  C   UNL     1       1.835   7.934  20.059  0.00  0.00    +0.000 A 
ATOM     23  C   UNL     1       2.378   6.749  19.508  0.00  0.00    +0.000 A 
BRANCH  21  24
ATOM     24  O   UNL     1       1.260  10.235  19.908  0.00  0.00    +0.000 OA
BRANCH  24  25
ATOM     25  C   UNL     1      -0.175  10.265  19.993  0.00  0.00    +0.000 C 
BRANCH  25  26
ATOM     26  C   UNL     1      -0.808  11.606  19.589  0.00  0.00    +0.000 C 
BRANCH  26  27
ATOM     27  N   UNL     1      -1.677  11.476  18.389  0.00  0.00    +0.000 NA
ATOM     28  C   UNL     1      -1.456  10.179  17.731  0.00  0.00    +0.000 C 
ATOM     29  C   UNL     1      -2.273  10.060  16.439  0.00  0.00    +0.000 C 
ATOM     30  C   UNL     1      -3.759  10.290  16.689  0.00  0.00    +0.000 C 
ATOM     31  C   UNL     1      -3.970  11.601  17.430  0.00  0.00    +0.000 C 
ATOM     32  C   UNL     1      -3.106  11.673  18.690  0.00  0.00    +0.000 C 
ENDBRANCH  26  27
ENDBRANCH  25  26
ENDBRANCH  24  25
ENDBRANCH  21  24
ENDBRANCH   7  18
BRANCH   1  33
ATOM     33  O   UNL     1      -0.037   2.112  18.551  0.00  0.00    +0.000 OA
ATOM     34  H   UNL     1      -0.197   1.429  19.223  0.00  0.00    +0.000 HD
ENDBRANCH   1  33
BRANCH  14  35
ATOM     35  O   UNL     1       8.166   9.490  18.084  0.00  0.00    +0.000 OA
ATOM     36  H   UNL     1       8.635   9.784  17.271  0.00  0.00    +0.000 HD
ENDBRANCH  14  35
TORSDOF 7
ENDMDL
MODEL 5
REMARK VINA RESULT:      -7.8      0.725      1.250
REMARK  Name = 
REMARK  7 active torsions:
REMARK  status: ('A' for Active; 'I' for Inactive)
REMARK    1  A    between atoms: O_1  and  C_2
REMARK    2  A    between atoms: C_8  and  C_9
REMARK    3  A    between atoms: C_12  and  O_13
REMARK    4  A    between atoms: O_13  and  C_14
REMARK    5  A    between atoms: C_14  and  C_15
REMARK    6  A    between atoms: C_15  and  N_16
REMARK    7  A    between atoms: C_30  and  O_31
REMARK                            x       y       z     vdW  Elec       q    Type
REMARK                         _______ _______ _______ _____ _____    ______ ____
ROOT
ATOM      1  C   UNL     1       1.276   2.699  18.626  0.00  0.00    +0.000 A 
ATOM      2  C   UNL     1       2.191   1.947  19.385  0.00  0.00    +0.000 A 
ATOM      3  C   UNL     1       3.511   2.393  19.523  0.00  0.00    +0.000 A 
ATOM      4  C   UNL     1       3.898   3.571  18.901  0.00  0.00    +0.000 A 
ATOM      5  C   UNL     1       2.957   4.306  18.125  0.00  0.00    +0.000 A 
ATOM      6  C   UNL     1       1.643   3.886  17.990  0.00  0.00    +0.000 A 
ATOM      7  C   UNL     1       3.595   5.587  17.592  0.00  0.00    +0.000 C 
ATOM      8  C   UNL     1       5.052   5.380  18.037  0.00  0.00    +0.000 A 
ATOM      9  C   UNL     1       5.154   4.273  18.902  0.00  0.00    +0.000 A 
ATOM     10  C   UNL     1       6.306   4.049  19.634  0.00  0.00    +0.000 A 
ATOM     11  C   UNL     1       7.319   5.015  19.588  0.00  0.00    +0.000 A 
ATOM     12  C   UNL     1       7.228   6.134  18.727  0.00  0.00    +0.000 A 
ATOM     13  C   UNL     1       8.105   7.211  18.787  0.00  0.00    +0.000 A 
ATOM     14  C   UNL     1       7.964   8.229  17.851  0.00  0.00    +0.000 A 
ATOM     15  C   UNL     1       7.196   8.075  16.712  0.00  0.00    +0.000 A 
ATOM     16  C   UNL     1       6.199   7.123  16.746  0.00  0.00    +0.000 A 
ATOM     17  C   UNL     1       6.147   6.211  17.810  0.00  0.00    +0.000 A 
ENDROOT
BRANCH   7  18
ATOM     18  C   UNL     1       2.938   6.829  18.212  0.00  0.00    +0.000 A 
ATOM     19  C   UNL     1       2.535   6.816  19.563  0.00  0.00    +0.000 A 
ATOM     20  C   UNL     1       1.852   7.893  20.119  0.00  0.00    +0.000 A 
ATOM     21  C   UNL     1       1.533   9.022  19.363  0.00  0.00    +0.000 A 
ATOM     22  C   UNL     1       1.955   9.075  18.038  0.00  0.00    +0.000 A 
ATOM     23  C   UNL     1       2.644   7.981  17.463  0.00  0.00    +0.000 A 
BRANCH  21  24
ATOM     24  O   UNL     1       0.809  10.103  19.849  0.00  0.00    +0.000 OA
BRANCH  24  25
ATOM     25  C   UNL     1       0.166  10.863  18.812  0.00  0.00    +0.000 C 
BRANCH  25  26
ATOM     26  C   UNL     1      -0.424  12.204  19.280  0.00  0.00    +0.000 C 
BRANCH  26  27
ATOM     27  N   UNL     1      -1.852  12.352  18.894  0.00  0.00    +0.000 NA
ATOM     28  C   UNL     1      -2.230  11.325  17.911  0.00  0.00    +0.000 C 
ATOM     29  C   UNL     1      -3.672  11.515  17.428  0.00  0.00    +0.000 C 
ATOM     30  C   UNL     1      -4.658  11.535  18.592  0.00  0.00    +0.000 C 
ATOM     31  C   UNL     1      -4.220  12.552  19.633  0.00  0.00    +0.000 C 
ATOM     32  C   UNL     1      -2.766  12.332  20.050  0.00  0.00    +0.000 C 
ENDBRANCH  26  27
ENDBRANCH  25  26
ENDBRANCH  24  25
ENDBRANCH  21  24
ENDBRANCH   7  18
BRANCH   1  33
ATOM     33  O   UNL     1      -0.022   2.301  18.497  0.00  0.00    +0.000 OA
ATOM     34  H   UNL     1      -0.086   1.701  17.736  0.00  0.00    +0.000 HD
ENDBRANCH   1  33
BRANCH  14  35
ATOM     35  O   UNL     1       8.348   9.497  18.184  0.00  0.00    +0.000 OA
ATOM     36  H   UNL     1       7.849   9.662  19.016  0.00  0.00    +0.000 HD
ENDBRANCH  14  35
TORSDOF 7
ENDMDL
MODEL 6
REMARK VINA RESULT:      -7.7      1.746      2.903
REMARK  Name = 
REMARK  7 active torsions:
REMARK  status: ('A' for Active; 'I' for Inactive)
REMARK    1  A    between atoms: O_1  and  C_2
REMARK    2  A    between atoms: C_8  and  C_9
REMARK    3  A    between atoms: C_12  and  O_13
REMARK    4  A    between atoms: O_13  and  C_14
REMARK    5  A    between atoms: C_14  and  C_15
REMARK    6  A    between atoms: C_15  and  N_16
REMARK    7  A    between atoms: C_30  and  O_31
REMARK                            x       y       z     vdW  Elec       q    Type
REMARK                         _______ _______ _______ _____ _____    ______ ____
ROOT
ATOM      1  C   UNL     1       1.266   2.647  18.565  0.00  0.00    +0.000 A 
ATOM      2  C   UNL     1       2.208   1.873  19.266  0.00  0.00    +0.000 A 
ATOM      3  C   UNL     1       3.528   2.325  19.385  0.00  0.00    +0.000 A 
ATOM      4  C   UNL     1       3.887   3.531  18.801  0.00  0.00    +0.000 A 
ATOM      5  C   UNL     1       2.918   4.288  18.083  0.00  0.00    +0.000 A 
ATOM      6  C   UNL     1       1.605   3.861  17.967  0.00  0.00    +0.000 A 
ATOM      7  C   UNL     1       3.530   5.595  17.584  0.00  0.00    +0.000 C 
ATOM      8  C   UNL     1       5.001   5.383  17.979  0.00  0.00    +0.000 A 
ATOM      9  C   UNL     1       5.137   4.243  18.795  0.00  0.00    +0.000 A 
ATOM     10  C   UNL     1       6.311   4.000  19.484  0.00  0.00    +0.000 A 
ATOM     11  C   UNL     1       7.315   4.977  19.448  0.00  0.00    +0.000 A 
ATOM     12  C   UNL     1       7.190   6.128  18.636  0.00  0.00    +0.000 A 
ATOM     13  C   UNL     1       8.060   7.211  18.715  0.00  0.00    +0.000 A 
ATOM     14  C   UNL     1       7.884   8.264  17.826  0.00  0.00    +0.000 A 
ATOM     15  C   UNL     1       7.085   8.149  16.704  0.00  0.00    +0.000 A 
ATOM     16  C   UNL     1       6.096   7.188  16.727  0.00  0.00    +0.000 A 
ATOM     17  C   UNL     1       6.083   6.233  17.755  0.00  0.00    +0.000 A 
ENDROOT
BRANCH   7  18
ATOM     18  C   UNL     1       2.882   6.805  18.272  0.00  0.00    +0.000 A 
ATOM     19  C   UNL     1       2.479   6.720  19.621  0.00  0.00    +0.000 A 
ATOM     20  C   UNL     1       1.803   7.769  20.236  0.00  0.00    +0.000 A 
ATOM     21  C   UNL     1       1.491   8.939  19.544  0.00  0.00    +0.000 A 
ATOM     22  C   UNL     1       1.913   9.063  18.223  0.00  0.00    +0.000 A 
ATOM     23  C   UNL     1       2.595   7.998  17.588  0.00  0.00    +0.000 A 
BRANCH  21  24
ATOM     24  O   UNL     1       0.775   9.997  20.089  0.00  0.00    +0.000 OA
BRANCH  24  25
ATOM     25  C   UNL     1      -0.209  10.535  19.190  0.00  0.00    +0.000 C 
BRANCH  25  26
ATOM     26  C   UNL     1      -0.292  12.070  19.184  0.00  0.00    +0.000 C 
BRANCH  26  27
ATOM     27  N   UNL     1       1.026  12.703  19.456  0.00  0.00    +0.000 NA
ATOM     28  C   UNL     1       1.679  13.096  18.197  0.00  0.00    +0.000 C 
ATOM     29  C   UNL     1       3.080  13.666  18.447  0.00  0.00    +0.000 C 
ATOM     30  C   UNL     1       3.046  14.836  19.424  0.00  0.00    +0.000 C 
ATOM     31  C   UNL     1       2.310  14.439  20.693  0.00  0.00    +0.000 C 
ATOM     32  C   UNL     1       0.936  13.849  20.378  0.00  0.00    +0.000 C 
ENDBRANCH  26  27
ENDBRANCH  25  26
ENDBRANCH  24  25
ENDBRANCH  21  24
ENDBRANCH   7  18
BRANCH   1  33
ATOM     33  O   UNL     1      -0.033   2.243  18.457  0.00  0.00    +0.000 OA
ATOM     34  H   UNL     1      -0.601   2.922  18.858  0.00  0.00    +0.000 HD
ENDBRANCH   1  33
BRANCH  14  35
ATOM     35  O   UNL     1       8.268   9.521  18.199  0.00  0.00    +0.000 OA
ATOM     36  H   UNL     1       8.570   9.388  19.125  0.00  0.00    +0.000 HD
ENDBRANCH  14  35
TORSDOF 7
ENDMDL
MODEL 7
REMARK VINA RESULT:      -7.7      1.845      2.316
REMARK  Name = 
REMARK  7 active torsions:
REMARK  status: ('A' for Active; 'I' for Inactive)
REMARK    1  A    between atoms: O_1  and  C_2
REMARK    2  A    between atoms: C_8  and  C_9
REMARK    3  A    between atoms: C_12  and  O_13
REMARK    4  A    between atoms: O_13  and  C_14
REMARK    5  A    between atoms: C_14  and  C_15
REMARK    6  A    between atoms: C_15  and  N_16
REMARK    7  A    between atoms: C_30  and  O_31
REMARK                            x       y       z     vdW  Elec       q    Type
REMARK                         _______ _______ _______ _____ _____    ______ ____
ROOT
ATOM      1  C   UNL     1       1.319   2.680  18.506  0.00  0.00    +0.000 A 
ATOM      2  C   UNL     1       2.223   1.921  19.271  0.00  0.00    +0.000 A 
ATOM      3  C   UNL     1       3.539   2.370  19.438  0.00  0.00    +0.000 A 
ATOM      4  C   UNL     1       3.932   3.557  18.838  0.00  0.00    +0.000 A 
ATOM      5  C   UNL     1       3.002   4.298  18.056  0.00  0.00    +0.000 A 
ATOM      6  C   UNL     1       1.693   3.875  17.892  0.00  0.00    +0.000 A 
ATOM      7  C   UNL     1       3.644   5.588  17.550  0.00  0.00    +0.000 C 
ATOM      8  C   UNL     1       5.094   5.380  18.017  0.00  0.00    +0.000 A 
ATOM      9  C   UNL     1       5.186   4.263  18.870  0.00  0.00    +0.000 A 
ATOM     10  C   UNL     1       6.325   4.033  19.618  0.00  0.00    +0.000 A 
ATOM     11  C   UNL     1       7.336   5.003  19.602  0.00  0.00    +0.000 A 
ATOM     12  C   UNL     1       7.255   6.132  18.753  0.00  0.00    +0.000 A 
ATOM     13  C   UNL     1       8.127   7.212  18.842  0.00  0.00    +0.000 A 
ATOM     14  C   UNL     1       7.999   8.242  17.918  0.00  0.00    +0.000 A 
ATOM     15  C   UNL     1       7.252   8.099  16.764  0.00  0.00    +0.000 A 
ATOM     16  C   UNL     1       6.257   7.144  16.768  0.00  0.00    +0.000 A 
ATOM     17  C   UNL     1       6.190   6.218  17.820  0.00  0.00    +0.000 A 
ENDROOT
BRANCH   7  18
ATOM     18  C   UNL     1       2.973   6.820  18.173  0.00  0.00    +0.000 A 
ATOM     19  C   UNL     1       2.525   6.780  19.511  0.00  0.00    +0.000 A 
ATOM     20  C   UNL     1       1.828   7.849  20.066  0.00  0.00    +0.000 A 
ATOM     21  C   UNL     1       1.539   8.995  19.325  0.00  0.00    +0.000 A 
ATOM     22  C   UNL     1       2.005   9.074  18.015  0.00  0.00    +0.000 A 
ATOM     23  C   UNL     1       2.709   7.989  17.440  0.00  0.00    +0.000 A 
BRANCH  21  24
ATOM     24  O   UNL     1       0.805  10.069  19.809  0.00  0.00    +0.000 OA
BRANCH  24  25
ATOM     25  C   UNL     1       0.358   9.883  21.163  0.00  0.00    +0.000 C 
BRANCH  25  26
ATOM     26  C   UNL     1       0.043  11.188  21.912  0.00  0.00    +0.000 C 
BRANCH  26  27
ATOM     27  N   UNL     1      -1.394  11.556  21.817  0.00  0.00    +0.000 NA
ATOM     28  C   UNL     1      -1.874  12.095  23.099  0.00  0.00    +0.000 C 
ATOM     29  C   UNL     1      -3.377  12.395  23.053  0.00  0.00    +0.000 C 
ATOM     30  C   UNL     1      -3.728  13.338  21.908  0.00  0.00    +0.000 C 
ATOM     31  C   UNL     1      -3.169  12.805  20.599  0.00  0.00    +0.000 C 
ATOM     32  C   UNL     1      -1.676  12.495  20.717  0.00  0.00    +0.000 C 
ENDBRANCH  26  27
ENDBRANCH  25  26
ENDBRANCH  24  25
ENDBRANCH  21  24
ENDBRANCH   7  18
BRANCH   1  33
ATOM     33  O   UNL     1       0.024   2.279  18.350  0.00  0.00    +0.000 OA
ATOM     34  H   UNL     1      -0.478   3.009  17.952  0.00  0.00    +0.000 HD
ENDBRANCH   1  33
BRANCH  14  35
ATOM     35  O   UNL     1       8.373   9.506  18.273  0.00  0.00    +0.000 OA
ATOM     36  H   UNL     1       8.226   9.509  19.246  0.00  0.00    +0.000 HD
ENDBRANCH  14  35
TORSDOF 7
ENDMDL
MODEL 8
REMARK VINA RESULT:      -7.7      4.420      9.192
REMARK  Name = 
REMARK  7 active torsions:
REMARK  status: ('A' for Active; 'I' for Inactive)
REMARK    1  A    between atoms: O_1  and  C_2
REMARK    2  A    between atoms: C_8  and  C_9
REMARK    3  A    between atoms: C_12  and  O_13
REMARK    4  A    between atoms: O_13  and  C_14
REMARK    5  A    between atoms: C_14  and  C_15
REMARK    6  A    between atoms: C_15  and  N_16
REMARK    7  A    between atoms: C_30  and  O_31
REMARK                            x       y       z     vdW  Elec       q    Type
REMARK                         _______ _______ _______ _____ _____    ______ ____
ROOT
ATOM      1  C   UNL     1      -2.204  14.143  22.347  0.00  0.00    +0.000 A 
ATOM      2  C   UNL     1      -2.320  13.174  23.360  0.00  0.00    +0.000 A 
ATOM      3  C   UNL     1      -1.760  11.904  23.175  0.00  0.00    +0.000 A 
ATOM      4  C   UNL     1      -1.102  11.620  21.987  0.00  0.00    +0.000 A 
ATOM      5  C   UNL     1      -1.013  12.613  20.971  0.00  0.00    +0.000 A 
ATOM      6  C   UNL     1      -1.550  13.878  21.143  0.00  0.00    +0.000 A 
ATOM      7  C   UNL     1      -0.199  12.089  19.789  0.00  0.00    +0.000 C 
ATOM      8  C   UNL     1       0.007  10.627  20.217  0.00  0.00    +0.000 A 
ATOM      9  C   UNL     1      -0.414  10.435  21.548  0.00  0.00    +0.000 A 
ATOM     10  C   UNL     1      -0.088   9.280  22.235  0.00  0.00    +0.000 A 
ATOM     11  C   UNL     1       0.771   8.361  21.618  0.00  0.00    +0.000 A 
ATOM     12  C   UNL     1       1.204   8.544  20.283  0.00  0.00    +0.000 A 
ATOM     13  C   UNL     1       2.203   7.773  19.697  0.00  0.00    +0.000 A 
ATOM     14  C   UNL     1       2.507   7.993  18.360  0.00  0.00    +0.000 A 
ATOM     15  C   UNL     1       1.676   8.723  17.531  0.00  0.00    +0.000 A 
ATOM     16  C   UNL     1       0.822   9.628  18.129  0.00  0.00    +0.000 A 
ATOM     17  C   UNL     1       0.660   9.611  19.522  0.00  0.00    +0.000 A 
ENDROOT
BRANCH   7  18
ATOM     18  C   UNL     1       1.114  12.870  19.635  0.00  0.00    +0.000 A 
ATOM     19  C   UNL     1       1.600  13.190  18.349  0.00  0.00    +0.000 A 
ATOM     20  C   UNL     1       2.834  13.811  18.182  0.00  0.00    +0.000 A 
ATOM     21  C   UNL     1       3.639  14.136  19.274  0.00  0.00    +0.000 A 
ATOM     22  C   UNL     1       3.163  13.867  20.555  0.00  0.00    +0.000 A 
ATOM     23  C   UNL     1       1.913  13.229  20.733  0.00  0.00    +0.000 A 
BRANCH  21  24
ATOM     24  O   UNL     1       4.900  14.709  19.166  0.00  0.00    +0.000 OA
BRANCH  24  25
ATOM     25  C   UNL     1       5.395  14.735  17.817  0.00  0.00    +0.000 C 
BRANCH  25  26
ATOM     26  C   UNL     1       6.920  14.891  17.703  0.00  0.00    +0.000 C 
BRANCH  26  27
ATOM     27  N   UNL     1       7.648  13.794  18.392  0.00  0.00    +0.000 NA
ATOM     28  C   UNL     1       8.302  12.914  17.411  0.00  0.00    +0.000 C 
ATOM     29  C   UNL     1       8.982  11.721  18.094  0.00  0.00    +0.000 C 
ATOM     30  C   UNL     1       9.977  12.173  19.158  0.00  0.00    +0.000 C 
ATOM     31  C   UNL     1       9.308  13.135  20.126  0.00  0.00    +0.000 C 
ATOM     32  C   UNL     1       8.621  14.283  19.386  0.00  0.00    +0.000 C 
ENDBRANCH  26  27
ENDBRANCH  25  26
ENDBRANCH  24  25
ENDBRANCH  21  24
ENDBRANCH   7  18
BRANCH   1  33
ATOM     33  O   UNL     1      -2.718  15.396  22.513  0.00  0.00    +0.000 OA
ATOM     34  H   UNL     1      -2.011  16.042  22.348  0.00  0.00    +0.000 HD
ENDBRANCH   1  33
BRANCH  14  35
ATOM     35  O   UNL     1       3.771   7.735  17.913  0.00  0.00    +0.000 OA
ATOM     36  H   UNL     1       4.244   7.486  18.739  0.00  0.00    +0.000 HD
ENDBRANCH  14  35
TORSDOF 7
ENDMDL
MODEL 9
REMARK VINA RESULT:      -7.7      3.393     10.329
REMARK  Name = 
REMARK  7 active torsions:
REMARK  status: ('A' for Active; 'I' for Inactive)
REMARK    1  A    between atoms: O_1  and  C_2
REMARK    2  A    between atoms: C_8  and  C_9
REMARK    3  A    between atoms: C_12  and  O_13
REMARK    4  A    between atoms: O_13  and  C_14
REMARK    5  A    between atoms: C_14  and  C_15
REMARK    6  A    between atoms: C_15  and  N_16
REMARK    7  A    between atoms: C_30  and  O_31
REMARK                            x       y       z     vdW  Elec       q    Type
REMARK                         _______ _______ _______ _____ _____    ______ ____
ROOT
ATOM      1  C   UNL     1      -1.468  14.710  24.221  0.00  0.00    +0.000 A 
ATOM      2  C   UNL     1      -2.867  14.790  24.345  0.00  0.00    +0.000 A 
ATOM      3  C   UNL     1      -3.684  14.283  23.328  0.00  0.00    +0.000 A 
ATOM      4  C   UNL     1      -3.099  13.714  22.207  0.00  0.00    +0.000 A 
ATOM      5  C   UNL     1      -1.680  13.660  22.098  0.00  0.00    +0.000 A 
ATOM      6  C   UNL     1      -0.857  14.145  23.101  0.00  0.00    +0.000 A 
ATOM      7  C   UNL     1      -1.275  12.942  20.812  0.00  0.00    +0.000 C 
ATOM      8  C   UNL     1      -2.650  12.755  20.151  0.00  0.00    +0.000 A 
ATOM      9  C   UNL     1      -3.683  13.093  21.048  0.00  0.00    +0.000 A 
ATOM     10  C   UNL     1      -4.997  12.760  20.775  0.00  0.00    +0.000 A 
ATOM     11  C   UNL     1      -5.260  11.972  19.646  0.00  0.00    +0.000 A 
ATOM     12  C   UNL     1      -4.232  11.622  18.739  0.00  0.00    +0.000 A 
ATOM     13  C   UNL     1      -4.403  10.688  17.723  0.00  0.00    +0.000 A 
ATOM     14  C   UNL     1      -3.347  10.466  16.847  0.00  0.00    +0.000 A 
ATOM     15  C   UNL     1      -2.268  11.326  16.769  0.00  0.00    +0.000 A 
ATOM     16  C   UNL     1      -2.003  12.110  17.873  0.00  0.00    +0.000 A 
ATOM     17  C   UNL     1      -2.940  12.180  18.915  0.00  0.00    +0.000 A 
ENDROOT
BRANCH   7  18
ATOM     18  C   UNL     1      -0.561  11.619  21.121  0.00  0.00    +0.000 A 
ATOM     19  C   UNL     1       0.458  11.148  20.266  0.00  0.00    +0.000 A 
ATOM     20  C   UNL     1       1.051   9.906  20.472  0.00  0.00    +0.000 A 
ATOM     21  C   UNL     1       0.659   9.078  21.524  0.00  0.00    +0.000 A 
ATOM     22  C   UNL     1      -0.316   9.537  22.405  0.00  0.00    +0.000 A 
ATOM     23  C   UNL     1      -0.929  10.796  22.199  0.00  0.00    +0.000 A 
BRANCH  21  24
ATOM     24  O   UNL     1       1.179   7.809  21.749  0.00  0.00    +0.000 OA
BRANCH  24  25
ATOM     25  C   UNL     1       1.859   7.267  20.604  0.00  0.00    +0.000 C 
BRANCH  25  26
ATOM     26  C   UNL     1       1.837   5.732  20.521  0.00  0.00    +0.000 C 
BRANCH  26  27
ATOM     27  N   UNL     1       2.183   5.240  19.162  0.00  0.00    +0.000 NA
ATOM     28  C   UNL     1       3.554   5.635  18.803  0.00  0.00    +0.000 C 
ATOM     29  C   UNL     1       3.901   5.218  17.369  0.00  0.00    +0.000 C 
ATOM     30  C   UNL     1       3.697   3.723  17.152  0.00  0.00    +0.000 C 
ATOM     31  C   UNL     1       2.299   3.315  17.588  0.00  0.00    +0.000 C 
ATOM     32  C   UNL     1       2.001   3.785  19.012  0.00  0.00    +0.000 C 
ENDBRANCH  26  27
ENDBRANCH  25  26
ENDBRANCH  24  25
ENDBRANCH  21  24
ENDBRANCH   7  18
BRANCH   1  33
ATOM     33  O   UNL     1      -0.648  15.172  25.209  0.00  0.00    +0.000 OA
ATOM     34  H   UNL     1      -1.134  15.836  25.726  0.00  0.00    +0.000 HD
ENDBRANCH   1  33
BRANCH  14  35
ATOM     35  O   UNL     1      -3.219   9.242  16.255  0.00  0.00    +0.000 OA
ATOM     36  H   UNL     1      -2.526   9.403  15.576  0.00  0.00    +0.000 HD
ENDBRANCH  14  35
TORSDOF 7
ENDMDL
