MODEL 1
REMARK VINA RESULT:      -5.5      0.000      0.000
REMARK  Name = 
REMARK  16 active torsions:
REMARK  status: ('A' for Active; 'I' for Inactive)
REMARK    1  A    between atoms: C_1  and  C_2
REMARK    2  A    between atoms: C_2  and  C_3
REMARK    3  A    between atoms: C_3  and  C_4
REMARK    4  A    between atoms: C_4  and  C_5
REMARK    5  A    between atoms: C_5  and  C_6
REMARK    6  A    between atoms: C_6  and  C_7
REMARK    7  A    between atoms: C_7  and  C_8
REMARK    8  A    between atoms: C_8  and  C_9
REMARK    9  A    between atoms: C_9  and  C_10
REMARK   10  A    between atoms: C_10  and  C_11
REMARK   11  A    between atoms: C_11  and  C_12
REMARK   12  A    between atoms: C_12  and  C_13
REMARK   13  A    between atoms: C_13  and  C_14
REMARK   14  A    between atoms: C_14  and  C_15
REMARK   15  A    between atoms: C_15  and  N_16
REMARK   16  A    between atoms: N_16  and  C_17
REMARK                            x       y       z     vdW  Elec       q    Type
REMARK                         _______ _______ _______ _____ _____    ______ ____
ROOT
ATOM      1  C   UNL     1       2.316   5.930  20.141  0.00  0.00    +0.000 C 
ENDROOT
BRANCH   1   2
ATOM      2  C   UNL     1       1.279   4.869  19.796  0.00  0.00    +0.000 C 
BRANCH   2   3
ATOM      3  C   UNL     1       1.281   3.794  20.847  0.00  0.00    +0.000 C 
BRANCH   3   4
ATOM      4  C   UNL     1       1.646   2.453  20.222  0.00  0.00    +0.000 C 
BRANCH   4   5
ATOM      5  C   UNL     1       1.194   2.491  18.782  0.00  0.00    +0.000 C 
BRANCH   5   6
ATOM      6  C   UNL     1       2.337   2.226  17.804  0.00  0.00    +0.000 C 
BRANCH   6   7
ATOM      7  C   UNL     1       3.688   2.221  18.530  0.00  0.00    +0.000 C 
BRANCH   7   8
ATOM      8  C   UNL     1       4.473   3.506  18.236  0.00  0.00    +0.000 C 
BRANCH   8   9
ATOM      9  C   UNL     1       4.044   4.193  16.952  0.00  0.00    +0.000 C 
BRANCH   9  10
ATOM     10  C   UNL     1       5.218   4.124  15.971  0.00  0.00    +0.000 C 
BRANCH  10  12
ATOM     11  C   UNL     1       5.066   6.604  16.171  0.00  0.00    +0.000 C 
ATOM     12  C   UNL     1       6.007   5.426  15.943  0.00  0.00    +0.000 C 
ENDBRANCH  10  12
ENDBRANCH   9  10
ENDBRANCH   8   9
ENDBRANCH   7   8
ENDBRANCH   6   7
ENDBRANCH   5   6
ENDBRANCH   4   5
ENDBRANCH   3   4
ENDBRANCH   2   3
ENDBRANCH   1   2
BRANCH   1  13
ATOM     13  C   UNL     1       2.485   6.814  18.929  0.00  0.00    +0.000 C 
BRANCH  13  14
ATOM     14  C   UNL     1       1.954   8.227  19.155  0.00  0.00    +0.000 C 
BRANCH  14  15
ATOM     15  C   UNL     1       2.119   9.067  17.884  0.00  0.00    +0.000 C 
BRANCH  15  16
ATOM     16  N   UNL     1       0.968   9.966  17.689  0.00  0.00    +0.000 NA
ATOM     17  H   UNL     1       0.295   9.546  17.024  0.00  0.00    +0.000 HD
BRANCH  16  18
ATOM     18  C   UNL     1       0.255  10.285  18.939  0.00  0.00    +0.000 C 
ATOM     19  C   UNL     1      -1.286  10.341  18.766  0.00  0.00    +0.000 C 
ATOM     20  C   UNL     1      -1.719  11.540  17.899  0.00  0.00    +0.000 C 
ATOM     21  N   UNL     1      -1.225  12.806  18.460  0.00  0.00    +0.000 NA
ATOM     22  C   UNL     1       0.244  12.809  18.577  0.00  0.00    +0.000 C 
ATOM     23  C   UNL     1       0.731  11.649  19.472  0.00  0.00    +0.000 C 
ATOM     24  H   UNL     1      -1.642  12.946  19.411  0.00  0.00    +0.000 HD
ENDBRANCH  16  18
ENDBRANCH  15  16
ENDBRANCH  14  15
ENDBRANCH  13  14
ENDBRANCH   1  13
TORSDOF 15
ENDMDL
MODEL 2
REMARK VINA RESULT:      -5.5      5.392      7.683
REMARK  Name = 
REMARK  16 active torsions:
REMARK  status: ('A' for Active; 'I' for Inactive)
REMARK    1  A    between atoms: C_1  and  C_2
REMARK    2  A    between atoms: C_2  and  C_3
REMARK    3  A    between atoms: C_3  and  C_4
REMARK    4  A    between atoms: C_4  and  C_5
REMARK    5  A    between atoms: C_5  and  C_6
REMARK    6  A    between atoms: C_6  and  C_7
REMARK    7  A    between atoms: C_7  and  C_8
REMARK    8  A    between atoms: C_8  and  C_9
REMARK    9  A    between atoms: C_9  and  C_10
REMARK   10  A    between atoms: C_10  and  C_11
REMARK   11  A    between atoms: C_11  and  C_12
REMARK   12  A    between atoms: C_12  and  C_13
REMARK   13  A    between atoms: C_13  and  C_14
REMARK   14  A    between atoms: C_14  and  C_15
REMARK   15  A    between atoms: C_15  and  N_16
REMARK   16  A    between atoms: N_16  and  C_17
REMARK                            x       y       z     vdW  Elec       q    Type
REMARK                         _______ _______ _______ _____ _____    ______ ____
ROOT
ATOM      1  C   UNL     1       6.855   6.766  17.703  0.00  0.00    +0.000 C 
ENDROOT
BRANCH   1   2
ATOM      2  C   UNL     1       5.485   6.984  17.075  0.00  0.00    +0.000 C 
BRANCH   2   3
ATOM      3  C   UNL     1       5.333   6.104  15.865  0.00  0.00    +0.000 C 
BRANCH   3   4
ATOM      4  C   UNL     1       6.087   4.796  16.073  0.00  0.00    +0.000 C 
BRANCH   4   5
ATOM      5  C   UNL     1       5.067   3.685  16.074  0.00  0.00    +0.000 C 
BRANCH   5   6
ATOM      6  C   UNL     1       4.329   3.570  17.407  0.00  0.00    +0.000 C 
BRANCH   6   7
ATOM      7  C   UNL     1       2.813   3.686  17.204  0.00  0.00    +0.000 C 
BRANCH   7   8
ATOM      8  C   UNL     1       2.241   4.862  18.007  0.00  0.00    +0.000 C 
BRANCH   8   9
ATOM      9  C   UNL     1       1.476   4.429  19.245  0.00  0.00    +0.000 C 
BRANCH   9  10
ATOM     10  C   UNL     1       2.270   4.893  20.470  0.00  0.00    +0.000 C 
BRANCH  10  12
ATOM     11  C   UNL     1       1.430   2.646  21.146  0.00  0.00    +0.000 C 
ATOM     12  C   UNL     1       2.280   3.839  21.569  0.00  0.00    +0.000 C 
ENDBRANCH  10  12
ENDBRANCH   9  10
ENDBRANCH   8   9
ENDBRANCH   7   8
ENDBRANCH   6   7
ENDBRANCH   5   6
ENDBRANCH   4   5
ENDBRANCH   3   4
ENDBRANCH   2   3
ENDBRANCH   1   2
BRANCH   1  13
ATOM     13  C   UNL     1       7.741   7.910  17.272  0.00  0.00    +0.000 C 
BRANCH  13  14
ATOM     14  C   UNL     1       8.455   8.574  18.445  0.00  0.00    +0.000 C 
BRANCH  14  15
ATOM     15  C   UNL     1       8.613  10.077  18.191  0.00  0.00    +0.000 C 
BRANCH  15  16
ATOM     16  N   UNL     1       9.286  10.738  19.323  0.00  0.00    +0.000 NA
ATOM     17  H   UNL     1       9.302  10.110  20.146  0.00  0.00    +0.000 HD
BRANCH  16  18
ATOM     18  C   UNL     1      10.668  11.152  19.021  0.00  0.00    +0.000 C 
ATOM     19  C   UNL     1      11.323  11.973  20.164  0.00  0.00    +0.000 C 
ATOM     20  C   UNL     1      10.660  13.355  20.326  0.00  0.00    +0.000 C 
ATOM     21  N   UNL     1      10.703  14.114  19.067  0.00  0.00    +0.000 NA
ATOM     22  C   UNL     1      10.031  13.388  17.975  0.00  0.00    +0.000 C 
ATOM     23  C   UNL     1      10.684  12.008  17.742  0.00  0.00    +0.000 C 
ATOM     24  H   UNL     1      11.703  14.280  18.800  0.00  0.00    +0.000 HD
ENDBRANCH  16  18
ENDBRANCH  15  16
ENDBRANCH  14  15
ENDBRANCH  13  14
ENDBRANCH   1  13
TORSDOF 15
ENDMDL
MODEL 3
REMARK VINA RESULT:      -5.5      3.152      7.835
REMARK  Name = 
REMARK  16 active torsions:
REMARK  status: ('A' for Active; 'I' for Inactive)
REMARK    1  A    between atoms: C_1  and  C_2
REMARK    2  A    between atoms: C_2  and  C_3
REMARK    3  A    between atoms: C_3  and  C_4
REMARK    4  A    between atoms: C_4  and  C_5
REMARK    5  A    between atoms: C_5  and  C_6
REMARK    6  A    between atoms: C_6  and  C_7
REMARK    7  A    between atoms: C_7  and  C_8
REMARK    8  A    between atoms: C_8  and  C_9
REMARK    9  A    between atoms: C_9  and  C_10
REMARK   10  A    between atoms: C_10  and  C_11
REMARK   11  A    between atoms: C_11  and  C_12
REMARK   12  A    between atoms: C_12  and  C_13
REMARK   13  A    between atoms: C_13  and  C_14
REMARK   14  A    between atoms: C_14  and  C_15
REMARK   15  A    between atoms: C_15  and  N_16
REMARK   16  A    between atoms: N_16  and  C_17
REMARK                            x       y       z     vdW  Elec       q    Type
REMARK                         _______ _______ _______ _____ _____    ______ ____
ROOT
ATOM      1  C   UNL     1       1.377   3.328  18.715  0.00  0.00    +0.000 C 
ENDROOT
BRANCH   1   2
ATOM      2  C   UNL     1       1.094   4.062  20.019  0.00  0.00    +0.000 C 
BRANCH   2   3
ATOM      3  C   UNL     1       2.006   5.252  20.142  0.00  0.00    +0.000 C 
BRANCH   3   4
ATOM      4  C   UNL     1       2.170   5.927  18.787  0.00  0.00    +0.000 C 
BRANCH   4   5
ATOM      5  C   UNL     1       2.555   7.363  19.044  0.00  0.00    +0.000 C 
BRANCH   5   6
ATOM      6  C   UNL     1       2.646   8.183  17.758  0.00  0.00    +0.000 C 
BRANCH   6   7
ATOM      7  C   UNL     1       1.820   9.471  17.872  0.00  0.00    +0.000 C 
BRANCH   7   8
ATOM      8  C   UNL     1       1.021   9.496  19.181  0.00  0.00    +0.000 C 
BRANCH   8   9
ATOM      9  C   UNL     1      -0.289  10.256  19.071  0.00  0.00    +0.000 C 
BRANCH   9  10
ATOM     10  C   UNL     1      -0.583  10.879  20.439  0.00  0.00    +0.000 C 
BRANCH  10  12
ATOM     11  C   UNL     1      -1.648  13.104  20.084  0.00  0.00    +0.000 C 
ATOM     12  C   UNL     1      -0.351  12.384  20.435  0.00  0.00    +0.000 C 
ENDBRANCH  10  12
ENDBRANCH   9  10
ENDBRANCH   8   9
ENDBRANCH   7   8
ENDBRANCH   6   7
ENDBRANCH   5   6
ENDBRANCH   4   5
ENDBRANCH   3   4
ENDBRANCH   2   3
ENDBRANCH   1   2
BRANCH   1  13
ATOM     13  C   UNL     1       1.750   1.907  19.063  0.00  0.00    +0.000 C 
BRANCH  13  14
ATOM     14  C   UNL     1       3.196   1.576  18.708  0.00  0.00    +0.000 C 
BRANCH  14  15
ATOM     15  C   UNL     1       3.773   2.645  17.774  0.00  0.00    +0.000 C 
BRANCH  15  16
ATOM     16  N   UNL     1       4.924   3.325  18.393  0.00  0.00    +0.000 NA
ATOM     17  H   UNL     1       5.789   2.779  18.235  0.00  0.00    +0.000 HD
BRANCH  16  18
ATOM     18  C   UNL     1       5.135   4.694  17.891  0.00  0.00    +0.000 C 
ATOM     19  C   UNL     1       5.171   4.778  16.341  0.00  0.00    +0.000 C 
ATOM     20  C   UNL     1       6.419   4.085  15.761  0.00  0.00    +0.000 C 
ATOM     21  N   UNL     1       7.652   4.653  16.328  0.00  0.00    +0.000 NA
ATOM     22  C   UNL     1       7.678   4.530  17.796  0.00  0.00    +0.000 C 
ATOM     23  C   UNL     1       6.466   5.245  18.434  0.00  0.00    +0.000 C 
ATOM     24  H   UNL     1       7.713   5.667  16.071  0.00  0.00    +0.000 HD
ENDBRANCH  16  18
ENDBRANCH  15  16
ENDBRANCH  14  15
ENDBRANCH  13  14
ENDBRANCH   1  13
TORSDOF 15
ENDMDL
MODEL 4
REMARK VINA RESULT:      -5.5      5.013      8.254
REMARK  Name = 
REMARK  16 active torsions:
REMARK  status: ('A' for Active; 'I' for Inactive)
REMARK    1  A    between atoms: C_1  and  C_2
REMARK    2  A    between atoms: C_2  and  C_3
REMARK    3  A    between atoms: C_3  and  C_4
REMARK    4  A    between atoms: C_4  and  C_5
REMARK    5  A    between atoms: C_5  and  C_6
REMARK    6  A    between atoms: C_6  and  C_7
REMARK    7  A    between atoms: C_7  and  C_8
REMARK    8  A    between atoms: C_8  and  C_9
REMARK    9  A    between atoms: C_9  and  C_10
REMARK   10  A    between atoms: C_10  and  C_11
REMARK   11  A    between atoms: C_11  and  C_12
REMARK   12  A    between atoms: C_12  and  C_13
REMARK   13  A    between atoms: C_13  and  C_14
REMARK   14  A    between atoms: C_14  and  C_15
REMARK   15  A    between atoms: C_15  and  N_16
REMARK   16  A    between atoms: N_16  and  C_17
REMARK                            x       y       z     vdW  Elec       q    Type
REMARK                         _______ _______ _______ _____ _____    ______ ____
ROOT
ATOM      1  C   UNL     1       4.024   6.518  17.492  0.00  0.00    +0.000 C 
ENDROOT
BRANCH   1   2
ATOM      2  C   UNL     1       5.259   5.682  17.803  0.00  0.00    +0.000 C 
BRANCH   2   3
ATOM      3  C   UNL     1       6.489   6.382  17.296  0.00  0.00    +0.000 C 
BRANCH   3   4
ATOM      4  C   UNL     1       7.656   6.140  18.245  0.00  0.00    +0.000 C 
BRANCH   4   5
ATOM      5  C   UNL     1       8.224   7.489  18.611  0.00  0.00    +0.000 C 
BRANCH   5   6
ATOM      6  C   UNL     1       8.012   8.531  17.514  0.00  0.00    +0.000 C 
BRANCH   6   7
ATOM      7  C   UNL     1       8.226   9.949  18.059  0.00  0.00    +0.000 C 
BRANCH   7   8
ATOM      8  C   UNL     1       9.194   9.939  19.248  0.00  0.00    +0.000 C 
BRANCH   8   9
ATOM      9  C   UNL     1      10.155  11.115  19.251  0.00  0.00    +0.000 C 
BRANCH   9  10
ATOM     10  C   UNL     1      10.219  11.661  20.681  0.00  0.00    +0.000 C 
BRANCH  10  12
ATOM     11  C   UNL     1      11.527  13.525  19.666  0.00  0.00    +0.000 C 
ATOM     12  C   UNL     1      10.466  13.164  20.700  0.00  0.00    +0.000 C 
ENDBRANCH  10  12
ENDBRANCH   9  10
ENDBRANCH   8   9
ENDBRANCH   7   8
ENDBRANCH   6   7
ENDBRANCH   5   6
ENDBRANCH   4   5
ENDBRANCH   3   4
ENDBRANCH   2   3
ENDBRANCH   1   2
BRANCH   1  13
ATOM     13  C   UNL     1       2.858   5.897  18.222  0.00  0.00    +0.000 C 
BRANCH  13  14
ATOM     14  C   UNL     1       2.841   6.246  19.707  0.00  0.00    +0.000 C 
BRANCH  14  15
ATOM     15  C   UNL     1       1.866   5.333  20.458  0.00  0.00    +0.000 C 
BRANCH  15  16
ATOM     16  N   UNL     1       1.335   4.282  19.573  0.00  0.00    +0.000 NA
ATOM     17  H   UNL     1       1.764   4.355  18.633  0.00  0.00    +0.000 HD
BRANCH  16  18
ATOM     18  C   UNL     1       1.557   2.918  20.084  0.00  0.00    +0.000 C 
ATOM     19  C   UNL     1       2.934   2.741  20.777  0.00  0.00    +0.000 C 
ATOM     20  C   UNL     1       4.096   2.841  19.770  0.00  0.00    +0.000 C 
ATOM     21  N   UNL     1       3.945   1.859  18.687  0.00  0.00    +0.000 NA
ATOM     22  C   UNL     1       2.673   2.042  17.965  0.00  0.00    +0.000 C 
ATOM     23  C   UNL     1       1.469   1.910  18.923  0.00  0.00    +0.000 C 
ATOM     24  H   UNL     1       3.970   0.893  19.093  0.00  0.00    +0.000 HD
ENDBRANCH  16  18
ENDBRANCH  15  16
ENDBRANCH  14  15
ENDBRANCH  13  14
ENDBRANCH   1  13
TORSDOF 15
ENDMDL
MODEL 5
REMARK VINA RESULT:      -5.4      1.426      1.994
REMARK  Name = 
REMARK  16 active torsions:
REMARK  status: ('A' for Active; 'I' for Inactive)
REMARK    1  A    between atoms: C_1  and  C_2
REMARK    2  A    between atoms: C_2  and  C_3
REMARK    3  A    between atoms: C_3  and  C_4
REMARK    4  A    between atoms: C_4  and  C_5
REMARK    5  A    between atoms: C_5  and  C_6
REMARK    6  A    between atoms: C_6  and  C_7
REMARK    7  A    between atoms: C_7  and  C_8
REMARK    8  A    between atoms: C_8  and  C_9
REMARK    9  A    between atoms: C_9  and  C_10
REMARK   10  A    between atoms: C_10  and  C_11
REMARK   11  A    between atoms: C_11  and  C_12
REMARK   12  A    between atoms: C_12  and  C_13
REMARK   13  A    between atoms: C_13  and  C_14
REMARK   14  A    between atoms: C_14  and  C_15
REMARK   15  A    between atoms: C_15  and  N_16
REMARK   16  A    between atoms: N_16  and  C_17
REMARK                            x       y       z     vdW  Elec       q    Type
REMARK                         _______ _______ _______ _____ _____    ______ ____
ROOT
ATOM      1  C   UNL     1       2.856   6.642  19.517  0.00  0.00    +0.000 C 
ENDROOT
BRANCH   1   2
ATOM      2  C   UNL     1       1.764   5.864  20.241  0.00  0.00    +0.000 C 
BRANCH   2   3
ATOM      3  C   UNL     1       2.371   4.713  20.995  0.00  0.00    +0.000 C 
BRANCH   3   4
ATOM      4  C   UNL     1       1.458   3.497  20.914  0.00  0.00    +0.000 C 
BRANCH   4   5
ATOM      5  C   UNL     1       0.776   3.536  19.569  0.00  0.00    +0.000 C 
BRANCH   5   6
ATOM      6  C   UNL     1       0.989   2.253  18.768  0.00  0.00    +0.000 C 
BRANCH   6   7
ATOM      7  C   UNL     1       2.358   2.262  18.075  0.00  0.00    +0.000 C 
BRANCH   7   8
ATOM      8  C   UNL     1       2.572   3.569  17.302  0.00  0.00    +0.000 C 
BRANCH   8   9
ATOM      9  C   UNL     1       4.026   3.828  16.950  0.00  0.00    +0.000 C 
BRANCH   9  10
ATOM     10  C   UNL     1       4.767   4.169  18.247  0.00  0.00    +0.000 C 
BRANCH  10  12
ATOM     11  C   UNL     1       6.748   5.472  19.013  0.00  0.00    +0.000 C 
ATOM     12  C   UNL     1       6.241   4.454  17.998  0.00  0.00    +0.000 C 
ENDBRANCH  10  12
ENDBRANCH   9  10
ENDBRANCH   8   9
ENDBRANCH   7   8
ENDBRANCH   6   7
ENDBRANCH   5   6
ENDBRANCH   4   5
ENDBRANCH   3   4
ENDBRANCH   2   3
ENDBRANCH   1   2
BRANCH   1  13
ATOM     13  C   UNL     1       2.314   7.034  18.163  0.00  0.00    +0.000 C 
BRANCH  13  14
ATOM     14  C   UNL     1       2.378   8.539  17.920  0.00  0.00    +0.000 C 
BRANCH  14  15
ATOM     15  C   UNL     1       0.970   9.143  17.949  0.00  0.00    +0.000 C 
BRANCH  15  16
ATOM     16  N   UNL     1       1.025  10.615  17.979  0.00  0.00    +0.000 NA
ATOM     17  H   UNL     1       1.102  10.990  17.017  0.00  0.00    +0.000 HD
BRANCH  16  18
ATOM     18  C   UNL     1      -0.144  11.232  18.629  0.00  0.00    +0.000 C 
ATOM     19  C   UNL     1      -0.093  12.783  18.635  0.00  0.00    +0.000 C 
ATOM     20  C   UNL     1       1.030  13.313  19.548  0.00  0.00    +0.000 C 
ATOM     21  N   UNL     1       0.881  12.806  20.920  0.00  0.00    +0.000 NA
ATOM     22  C   UNL     1       0.894  11.333  20.956  0.00  0.00    +0.000 C 
ATOM     23  C   UNL     1      -0.241  10.747  20.088  0.00  0.00    +0.000 C 
ATOM     24  H   UNL     1      -0.026  13.148  21.316  0.00  0.00    +0.000 HD
ENDBRANCH  16  18
ENDBRANCH  15  16
ENDBRANCH  14  15
ENDBRANCH  13  14
ENDBRANCH   1  13
TORSDOF 15
ENDMDL
MODEL 6
REMARK VINA RESULT:      -5.3      6.356      9.583
REMARK  Name = 
REMARK  16 active torsions:
REMARK  status: ('A' for Active; 'I' for Inactive)
REMARK    1  A    between atoms: C_1  and  C_2
REMARK    2  A    between atoms: C_2  and  C_3
REMARK    3  A    between atoms: C_3  and  C_4
REMARK    4  A    between atoms: C_4  and  C_5
REMARK    5  A    between atoms: C_5  and  C_6
REMARK    6  A    between atoms: C_6  and  C_7
REMARK    7  A    between atoms: C_7  and  C_8
REMARK    8  A    between atoms: C_8  and  C_9
REMARK    9  A    between atoms: C_9  and  C_10
REMARK   10  A    between atoms: C_10  and  C_11
REMARK   11  A    between atoms: C_11  and  C_12
REMARK   12  A    between atoms: C_12  and  C_13
REMARK   13  A    between atoms: C_13  and  C_14
REMARK   14  A    between atoms: C_14  and  C_15
REMARK   15  A    between atoms: C_15  and  N_16
REMARK   16  A    between atoms: N_16  and  C_17
REMARK                            x       y       z     vdW  Elec       q    Type
REMARK                         _______ _______ _______ _____ _____    ______ ____
ROOT
ATOM      1  C   UNL     1       7.606   6.540  18.307  0.00  0.00    +0.000 C 
ENDROOT
BRANCH   1   2
ATOM      2  C   UNL     1       8.404   7.797  18.628  0.00  0.00    +0.000 C 
BRANCH   2   3
ATOM      3  C   UNL     1       7.976   8.918  17.720  0.00  0.00    +0.000 C 
BRANCH   3   4
ATOM      4  C   UNL     1       8.803  10.165  18.005  0.00  0.00    +0.000 C 
BRANCH   4   5
ATOM      5  C   UNL     1       9.260  10.083  19.441  0.00  0.00    +0.000 C 
BRANCH   5   6
ATOM      6  C   UNL     1      10.057  11.312  19.872  0.00  0.00    +0.000 C 
BRANCH   6   7
ATOM      7  C   UNL     1      11.238  11.558  18.924  0.00  0.00    +0.000 C 
BRANCH   7   8
ATOM      8  C   UNL     1      11.782  12.983  19.083  0.00  0.00    +0.000 C 
BRANCH   8   9
ATOM      9  C   UNL     1      10.887  14.041  18.463  0.00  0.00    +0.000 C 
BRANCH   9  10
ATOM     10  C   UNL     1      11.603  14.592  17.226  0.00  0.00    +0.000 C 
BRANCH  10  12
ATOM     11  C   UNL     1       9.761  16.231  17.592  0.00  0.00    +0.000 C 
ATOM     12  C   UNL     1      11.010  15.919  16.774  0.00  0.00    +0.000 C 
ENDBRANCH  10  12
ENDBRANCH   9  10
ENDBRANCH   8   9
ENDBRANCH   7   8
ENDBRANCH   6   7
ENDBRANCH   5   6
ENDBRANCH   4   5
ENDBRANCH   3   4
ENDBRANCH   2   3
ENDBRANCH   1   2
BRANCH   1  13
ATOM     13  C   UNL     1       6.632   6.887  17.207  0.00  0.00    +0.000 C 
BRANCH  13  14
ATOM     14  C   UNL     1       5.200   6.479  17.541  0.00  0.00    +0.000 C 
BRANCH  14  15
ATOM     15  C   UNL     1       5.197   5.248  18.454  0.00  0.00    +0.000 C 
BRANCH  15  16
ATOM     16  N   UNL     1       3.821   4.829  18.774  0.00  0.00    +0.000 NA
ATOM     17  H   UNL     1       3.273   5.636  19.120  0.00  0.00    +0.000 HD
BRANCH  16  18
ATOM     18  C   UNL     1       3.108   4.233  17.631  0.00  0.00    +0.000 C 
ATOM     19  C   UNL     1       1.576   4.124  17.855  0.00  0.00    +0.000 C 
ATOM     20  C   UNL     1       1.232   3.095  18.950  0.00  0.00    +0.000 C 
ATOM     21  N   UNL     1       1.793   1.774  18.630  0.00  0.00    +0.000 NA
ATOM     22  C   UNL     1       3.257   1.831  18.474  0.00  0.00    +0.000 C 
ATOM     23  C   UNL     1       3.657   2.820  17.358  0.00  0.00    +0.000 C 
ATOM     24  H   UNL     1       1.369   1.428  17.736  0.00  0.00    +0.000 HD
ENDBRANCH  16  18
ENDBRANCH  15  16
ENDBRANCH  14  15
ENDBRANCH  13  14
ENDBRANCH   1  13
TORSDOF 15
ENDMDL
MODEL 7
REMARK VINA RESULT:      -5.3      1.155      1.842
REMARK  Name = 
REMARK  16 active torsions:
REMARK  status: ('A' for Active; 'I' for Inactive)
REMARK    1  A    between atoms: C_1  and  C_2
REMARK    2  A    between atoms: C_2  and  C_3
REMARK    3  A    between atoms: C_3  and  C_4
REMARK    4  A    between atoms: C_4  and  C_5
REMARK    5  A    between atoms: C_5  and  C_6
REMARK    6  A    between atoms: C_6  and  C_7
REMARK    7  A    between atoms: C_7  and  C_8
REMARK    8  A    between atoms: C_8  and  C_9
REMARK    9  A    between atoms: C_9  and  C_10
REMARK   10  A    between atoms: C_10  and  C_11
REMARK   11  A    between atoms: C_11  and  C_12
REMARK   12  A    between atoms: C_12  and  C_13
REMARK   13  A    between atoms: C_13  and  C_14
REMARK   14  A    between atoms: C_14  and  C_15
REMARK   15  A    between atoms: C_15  and  N_16
REMARK   16  A    between atoms: N_16  and  C_17
REMARK                            x       y       z     vdW  Elec       q    Type
REMARK                         _______ _______ _______ _____ _____    ______ ____
ROOT
ATOM      1  C   UNL     1       3.097   6.794  18.931  0.00  0.00    +0.000 C 
ENDROOT
BRANCH   1   2
ATOM      2  C   UNL     1       1.823   6.861  19.762  0.00  0.00    +0.000 C 
BRANCH   2   3
ATOM      3  C   UNL     1       1.810   5.742  20.767  0.00  0.00    +0.000 C 
BRANCH   3   4
ATOM      4  C   UNL     1       2.940   4.764  20.472  0.00  0.00    +0.000 C 
BRANCH   4   5
ATOM      5  C   UNL     1       2.372   3.371  20.591  0.00  0.00    +0.000 C 
BRANCH   5   6
ATOM      6  C   UNL     1       0.931   3.283  20.092  0.00  0.00    +0.000 C 
BRANCH   6   7
ATOM      7  C   UNL     1       0.890   3.002  18.585  0.00  0.00    +0.000 C 
BRANCH   7   8
ATOM      8  C   UNL     1       2.260   2.535  18.077  0.00  0.00    +0.000 C 
BRANCH   8   9
ATOM      9  C   UNL     1       2.872   3.472  17.051  0.00  0.00    +0.000 C 
BRANCH   9  10
ATOM     10  C   UNL     1       4.391   3.279  17.092  0.00  0.00    +0.000 C 
BRANCH  10  12
ATOM     11  C   UNL     1       5.184   5.360  15.971  0.00  0.00    +0.000 C 
ATOM     12  C   UNL     1       5.123   4.600  17.292  0.00  0.00    +0.000 C 
ENDBRANCH  10  12
ENDBRANCH   9  10
ENDBRANCH   8   9
ENDBRANCH   7   8
ENDBRANCH   6   7
ENDBRANCH   5   6
ENDBRANCH   4   5
ENDBRANCH   3   4
ENDBRANCH   2   3
ENDBRANCH   1   2
BRANCH   1  13
ATOM     13  C   UNL     1       2.972   7.812  17.822  0.00  0.00    +0.000 C 
BRANCH  13  14
ATOM     14  C   UNL     1       1.679   8.617  17.909  0.00  0.00    +0.000 C 
BRANCH  14  15
ATOM     15  C   UNL     1       1.990  10.113  18.025  0.00  0.00    +0.000 C 
BRANCH  15  16
ATOM     16  N   UNL     1       0.755  10.916  18.005  0.00  0.00    +0.000 NA
ATOM     17  H   UNL     1       0.518  11.184  17.033  0.00  0.00    +0.000 HD
BRANCH  16  18
ATOM     18  C   UNL     1      -0.404  10.222  18.594  0.00  0.00    +0.000 C 
ATOM     19  C   UNL     1      -1.606  10.102  17.619  0.00  0.00    +0.000 C 
ATOM     20  C   UNL     1      -2.239  11.476  17.322  0.00  0.00    +0.000 C 
ATOM     21  N   UNL     1      -2.658  12.144  18.563  0.00  0.00    +0.000 NA
ATOM     22  C   UNL     1      -1.525  12.331  19.486  0.00  0.00    +0.000 C 
ATOM     23  C   UNL     1      -0.876  10.978  19.849  0.00  0.00    +0.000 C 
ATOM     24  H   UNL     1      -3.389  11.562  19.037  0.00  0.00    +0.000 HD
ENDBRANCH  16  18
ENDBRANCH  15  16
ENDBRANCH  14  15
ENDBRANCH  13  14
ENDBRANCH   1  13
TORSDOF 15
ENDMDL
MODEL 8
REMARK VINA RESULT:      -5.3      2.812      7.494
REMARK  Name = 
REMARK  16 active torsions:
REMARK  status: ('A' for Active; 'I' for Inactive)
REMARK    1  A    between atoms: C_1  and  C_2
REMARK    2  A    between atoms: C_2  and  C_3
REMARK    3  A    between atoms: C_3  and  C_4
REMARK    4  A    between atoms: C_4  and  C_5
REMARK    5  A    between atoms: C_5  and  C_6
REMARK    6  A    between atoms: C_6  and  C_7
REMARK    7  A    between atoms: C_7  and  C_8
REMARK    8  A    between atoms: C_8  and  C_9
REMARK    9  A    between atoms: C_9  and  C_10
REMARK   10  A    between atoms: C_10  and  C_11
REMARK   11  A    between atoms: C_11  and  C_12
REMARK   12  A    between atoms: C_12  and  C_13
REMARK   13  A    between atoms: C_13  and  C_14
REMARK   14  A    between atoms: C_14  and  C_15
REMARK   15  A    between atoms: C_15  and  N_16
REMARK   16  A    between atoms: N_16  and  C_17
REMARK                            x       y       z     vdW  Elec       q    Type
REMARK                         _______ _______ _______ _____ _____    ______ ____
ROOT
ATOM      1  C   UNL     1       1.602   4.502  19.047  0.00  0.00    +0.000 C 
ENDROOT
BRANCH   1   2
ATOM      2  C   UNL     1       1.967   5.385  20.233  0.00  0.00    +0.000 C 
BRANCH   2   3
ATOM      3  C   UNL     1       2.409   6.737  19.744  0.00  0.00    +0.000 C 
BRANCH   3   4
ATOM      4  C   UNL     1       2.478   6.745  18.222  0.00  0.00    +0.000 C 
BRANCH   4   5
ATOM      5  C   UNL     1       2.772   8.161  17.793  0.00  0.00    +0.000 C 
BRANCH   5   6
ATOM      6  C   UNL     1       1.545   9.067  17.886  0.00  0.00    +0.000 C 
BRANCH   6   7
ATOM      7  C   UNL     1       1.958  10.518  18.163  0.00  0.00    +0.000 C 
BRANCH   7   8
ATOM      8  C   UNL     1       0.805  11.303  18.803  0.00  0.00    +0.000 C 
BRANCH   8   9
ATOM      9  C   UNL     1       1.073  11.694  20.245  0.00  0.00    +0.000 C 
BRANCH   9  10
ATOM     10  C   UNL     1       0.138  10.867  21.133  0.00  0.00    +0.000 C 
BRANCH  10  12
ATOM     11  C   UNL     1      -0.351   8.491  21.705  0.00  0.00    +0.000 C 
ATOM     12  C   UNL     1       0.753   9.525  21.504  0.00  0.00    +0.000 C 
ENDBRANCH  10  12
ENDBRANCH   9  10
ENDBRANCH   8   9
ENDBRANCH   7   8
ENDBRANCH   6   7
ENDBRANCH   5   6
ENDBRANCH   4   5
ENDBRANCH   3   4
ENDBRANCH   2   3
ENDBRANCH   1   2
BRANCH   1  13
ATOM     13  C   UNL     1       2.238   3.151  19.273  0.00  0.00    +0.000 C 
BRANCH  13  14
ATOM     14  C   UNL     1       3.584   3.248  19.984  0.00  0.00    +0.000 C 
BRANCH  14  15
ATOM     15  C   UNL     1       4.726   3.244  18.962  0.00  0.00    +0.000 C 
BRANCH  15  16
ATOM     16  N   UNL     1       5.371   4.566  18.882  0.00  0.00    +0.000 NA
ATOM     17  H   UNL     1       5.696   4.863  19.819  0.00  0.00    +0.000 HD
BRANCH  16  18
ATOM     18  C   UNL     1       6.516   4.604  17.955  0.00  0.00    +0.000 C 
ATOM     19  C   UNL     1       7.257   5.968  17.955  0.00  0.00    +0.000 C 
ATOM     20  C   UNL     1       6.389   7.090  17.353  0.00  0.00    +0.000 C 
ATOM     21  N   UNL     1       5.955   6.749  15.990  0.00  0.00    +0.000 NA
ATOM     22  C   UNL     1       5.191   5.489  15.965  0.00  0.00    +0.000 C 
ATOM     23  C   UNL     1       6.031   4.320  16.522  0.00  0.00    +0.000 C 
ATOM     24  H   UNL     1       6.798   6.648  15.376  0.00  0.00    +0.000 HD
ENDBRANCH  16  18
ENDBRANCH  15  16
ENDBRANCH  14  15
ENDBRANCH  13  14
ENDBRANCH   1  13
TORSDOF 15
ENDMDL
MODEL 9
REMARK VINA RESULT:      -5.3      5.066      7.355
REMARK  Name = 
REMARK  16 active torsions:
REMARK  status: ('A' for Active; 'I' for Inactive)
REMARK    1  A    between atoms: C_1  and  C_2
REMARK    2  A    between atoms: C_2  and  C_3
REMARK    3  A    between atoms: C_3  and  C_4
REMARK    4  A    between atoms: C_4  and  C_5
REMARK    5  A    between atoms: C_5  and  C_6
REMARK    6  A    between atoms: C_6  and  C_7
REMARK    7  A    between atoms: C_7  and  C_8
REMARK    8  A    between atoms: C_8  and  C_9
REMARK    9  A    between atoms: C_9  and  C_10
REMARK   10  A    between atoms: C_10  and  C_11
REMARK   11  A    between atoms: C_11  and  C_12
REMARK   12  A    between atoms: C_12  and  C_13
REMARK   13  A    between atoms: C_13  and  C_14
REMARK   14  A    between atoms: C_14  and  C_15
REMARK   15  A    between atoms: C_15  and  N_16
REMARK   16  A    between atoms: N_16  and  C_17
REMARK                            x       y       z     vdW  Elec       q    Type
REMARK                         _______ _______ _______ _____ _____    ______ ____
ROOT
ATOM      1  C   UNL     1       7.292   6.150  16.692  0.00  0.00    +0.000 C 
ENDROOT
BRANCH   1   2
ATOM      2  C   UNL     1       5.825   6.358  16.341  0.00  0.00    +0.000 C 
BRANCH   2   3
ATOM      3  C   UNL     1       5.186   5.035  16.018  0.00  0.00    +0.000 C 
BRANCH   3   4
ATOM      4  C   UNL     1       4.324   4.572  17.186  0.00  0.00    +0.000 C 
BRANCH   4   5
ATOM      5  C   UNL     1       4.055   5.779  18.051  0.00  0.00    +0.000 C 
BRANCH   5   6
ATOM      6  C   UNL     1       2.570   6.130  18.119  0.00  0.00    +0.000 C 
BRANCH   6   7
ATOM      7  C   UNL     1       1.709   4.860  18.157  0.00  0.00    +0.000 C 
BRANCH   7   8
ATOM      8  C   UNL     1       1.402   4.449  19.602  0.00  0.00    +0.000 C 
BRANCH   8   9
ATOM      9  C   UNL     1       0.762   3.076  19.714  0.00  0.00    +0.000 C 
BRANCH   9  10
ATOM     10  C   UNL     1       1.844   2.094  20.173  0.00  0.00    +0.000 C 
BRANCH  10  12
ATOM     11  C   UNL     1       4.323   2.310  20.034  0.00  0.00    +0.000 C 
ATOM     12  C   UNL     1       3.064   2.816  20.729  0.00  0.00    +0.000 C 
ENDBRANCH  10  12
ENDBRANCH   9  10
ENDBRANCH   8   9
ENDBRANCH   7   8
ENDBRANCH   6   7
ENDBRANCH   5   6
ENDBRANCH   4   5
ENDBRANCH   3   4
ENDBRANCH   2   3
ENDBRANCH   1   2
BRANCH   1  13
ATOM     13  C   UNL     1       7.588   6.975  17.922  0.00  0.00    +0.000 C 
BRANCH  13  14
ATOM     14  C   UNL     1       7.833   8.446  17.596  0.00  0.00    +0.000 C 
BRANCH  14  15
ATOM     15  C   UNL     1       8.678   9.100  18.694  0.00  0.00    +0.000 C 
BRANCH  15  16
ATOM     16  N   UNL     1       8.926  10.522  18.396  0.00  0.00    +0.000 NA
ATOM     17  H   UNL     1       8.156  11.105  18.768  0.00  0.00    +0.000 HD
BRANCH  16  18
ATOM     18  C   UNL     1      10.199  11.022  18.944  0.00  0.00    +0.000 C 
ATOM     19  C   UNL     1      10.010  11.995  20.138  0.00  0.00    +0.000 C 
ATOM     20  C   UNL     1       9.370  13.325  19.694  0.00  0.00    +0.000 C 
ATOM     21  N   UNL     1      10.164  13.968  18.637  0.00  0.00    +0.000 NA
ATOM     22  C   UNL     1      10.308  13.093  17.460  0.00  0.00    +0.000 C 
ATOM     23  C   UNL     1      10.984  11.758  17.842  0.00  0.00    +0.000 C 
ATOM     24  H   UNL     1      11.116  14.194  19.011  0.00  0.00    +0.000 HD
ENDBRANCH  16  18
ENDBRANCH  15  16
ENDBRANCH  14  15
ENDBRANCH  13  14
ENDBRANCH   1  13
TORSDOF 15
ENDMDL
