MODEL 1
REMARK VINA RESULT:      -8.5      0.000      0.000
REMARK  Name = 
REMARK  7 active torsions:
REMARK  status: ('A' for Active; 'I' for Inactive)
REMARK    1  A    between atoms: C_1  and  O_2
REMARK    2  A    between atoms: O_2  and  C_3
REMARK    3  A    between atoms: C_7  and  C_8
REMARK    4  A    between atoms: C_8  and  N_9
REMARK    5  A    between atoms: C_10  and  C_12
REMARK    6  A    between atoms: C_12  and  C_13
REMARK    7  A    between atoms: C_13  and  N_14
REMARK                            x       y       z     vdW  Elec       q    Type
REMARK                         _______ _______ _______ _____ _____    ______ ____
ROOT
ATOM      1  N   UNL     1       1.996   5.575  21.106  0.00  0.00    +0.000 N 
ATOM      2  C   UNL     1       2.431   6.498  20.212  0.00  0.00    +0.000 C 
ATOM      3  O   UNL     1       3.376   6.208  19.456  0.00  0.00    +0.000 OA
ATOM      4  N   UNL     1       1.778   7.695  20.002  0.00  0.00    +0.000 N 
ATOM      5  C   UNL     1       2.089   8.349  18.716  0.00  0.00    +0.000 C 
ATOM      6  C   UNL     1       1.158   9.534  18.632  0.00  0.00    +0.000 C 
ATOM      7  N   UNL     1       0.887   9.718  20.035  0.00  0.00    +0.000 N 
ATOM      8  C   UNL     1       1.050   8.585  20.795  0.00  0.00    +0.000 A 
ATOM      9  N   UNL     1       0.475   8.789  21.962  0.00  0.00    +0.000 NA
ATOM     10  C   UNL     1       0.041  10.157  21.922  0.00  0.00    +0.000 A 
ATOM     11  C   UNL     1      -0.718  10.967  22.790  0.00  0.00    +0.000 A 
ATOM     12  C   UNL     1      -0.919  12.339  22.474  0.00  0.00    +0.000 A 
ATOM     13  C   UNL     1      -0.335  12.921  21.348  0.00  0.00    +0.000 A 
ATOM     14  C   UNL     1       0.380  12.138  20.451  0.00  0.00    +0.000 A 
ATOM     15  C   UNL     1       0.478  10.772  20.744  0.00  0.00    +0.000 A 
ATOM     16  H   UNL     1       1.061   5.733  21.453  0.00  0.00    +0.000 HD
ENDROOT
BRANCH   1  17
ATOM     17  C   UNL     1       2.402   4.166  20.896  0.00  0.00    +0.000 C 
BRANCH  17  18
ATOM     18  C   UNL     1       1.462   3.240  20.092  0.00  0.00    +0.000 C 
BRANCH  18  20
ATOM     19  N   UNL     1       2.928   3.548  18.184  0.00  0.00    +0.000 N 
ATOM     20  C   UNL     1       1.616   3.367  18.599  0.00  0.00    +0.000 C 
ATOM     21  O   UNL     1       0.674   3.395  17.831  0.00  0.00    +0.000 OA
ATOM     22  H   UNL     1       3.665   3.547  18.874  0.00  0.00    +0.000 HD
BRANCH  19  23
ATOM     23  C   UNL     1       3.309   3.647  16.788  0.00  0.00    +0.000 C 
BRANCH  23  28
ATOM     24  C   UNL     1       6.974   4.538  17.483  0.00  0.00    +0.000 A 
ATOM     25  C   UNL     1       7.422   4.815  16.190  0.00  0.00    +0.000 A 
ATOM     26  C   UNL     1       6.564   4.689  15.101  0.00  0.00    +0.000 A 
ATOM     27  C   UNL     1       5.244   4.291  15.300  0.00  0.00    +0.000 A 
ATOM     28  C   UNL     1       4.765   4.003  16.588  0.00  0.00    +0.000 A 
ATOM     29  C   UNL     1       5.648   4.130  17.680  0.00  0.00    +0.000 A 
BRANCH  24  31
ATOM     30  C   UNL     1       7.775   5.835  19.315  0.00  0.00    +0.000 C 
ATOM     31  O   UNL     1       7.925   4.721  18.449  0.00  0.00    +0.000 OA
ENDBRANCH  24  31
ENDBRANCH  23  28
ENDBRANCH  19  23
ENDBRANCH  18  20
ENDBRANCH  17  18
ENDBRANCH   1  17
TORSDOF 6
ENDMDL
MODEL 2
REMARK VINA RESULT:      -8.1      1.025      1.717
REMARK  Name = 
REMARK  7 active torsions:
REMARK  status: ('A' for Active; 'I' for Inactive)
REMARK    1  A    between atoms: C_1  and  O_2
REMARK    2  A    between atoms: O_2  and  C_3
REMARK    3  A    between atoms: C_7  and  C_8
REMARK    4  A    between atoms: C_8  and  N_9
REMARK    5  A    between atoms: C_10  and  C_12
REMARK    6  A    between atoms: C_12  and  C_13
REMARK    7  A    between atoms: C_13  and  N_14
REMARK                            x       y       z     vdW  Elec       q    Type
REMARK                         _______ _______ _______ _____ _____    ______ ____
ROOT
ATOM      1  N   UNL     1       1.604   6.132  21.021  0.00  0.00    +0.000 N 
ATOM      2  C   UNL     1       2.122   6.930  20.053  0.00  0.00    +0.000 C 
ATOM      3  O   UNL     1       3.035   6.490  19.333  0.00  0.00    +0.000 OA
ATOM      4  N   UNL     1       1.581   8.160  19.736  0.00  0.00    +0.000 N 
ATOM      5  C   UNL     1       1.951   8.668  18.401  0.00  0.00    +0.000 C 
ATOM      6  C   UNL     1       1.133   9.922  18.208  0.00  0.00    +0.000 C 
ATOM      7  N   UNL     1       0.881  10.251  19.587  0.00  0.00    +0.000 N 
ATOM      8  C   UNL     1       0.939   9.178  20.444  0.00  0.00    +0.000 A 
ATOM      9  N   UNL     1       0.386   9.534  21.585  0.00  0.00    +0.000 NA
ATOM     10  C   UNL     1       0.080  10.927  21.424  0.00  0.00    +0.000 A 
ATOM     11  C   UNL     1      -0.600  11.876  22.212  0.00  0.00    +0.000 A 
ATOM     12  C   UNL     1      -0.675  13.227  21.777  0.00  0.00    +0.000 A 
ATOM     13  C   UNL     1      -0.041  13.654  20.610  0.00  0.00    +0.000 A 
ATOM     14  C   UNL     1       0.599  12.733  19.789  0.00  0.00    +0.000 A 
ATOM     15  C   UNL     1       0.571  11.396  20.200  0.00  0.00    +0.000 A 
ATOM     16  H   UNL     1       0.688   6.405  21.346  0.00  0.00    +0.000 HD
ENDROOT
BRANCH   1  17
ATOM     17  C   UNL     1       1.879   4.679  20.937  0.00  0.00    +0.000 C 
BRANCH  17  18
ATOM     18  C   UNL     1       0.950   3.803  20.066  0.00  0.00    +0.000 C 
BRANCH  18  20
ATOM     19  N   UNL     1       2.536   3.972  18.238  0.00  0.00    +0.000 N 
ATOM     20  C   UNL     1       1.651   3.139  18.909  0.00  0.00    +0.000 C 
ATOM     21  O   UNL     1       1.406   2.007  18.540  0.00  0.00    +0.000 OA
ATOM     22  H   UNL     1       2.674   4.914  18.573  0.00  0.00    +0.000 HD
BRANCH  19  23
ATOM     23  C   UNL     1       3.350   3.526  17.123  0.00  0.00    +0.000 C 
BRANCH  23  28
ATOM     24  C   UNL     1       6.891   4.573  16.086  0.00  0.00    +0.000 A 
ATOM     25  C   UNL     1       7.458   4.836  17.335  0.00  0.00    +0.000 A 
ATOM     26  C   UNL     1       6.703   4.708  18.497  0.00  0.00    +0.000 A 
ATOM     27  C   UNL     1       5.372   4.305  18.418  0.00  0.00    +0.000 A 
ATOM     28  C   UNL     1       4.773   4.036  17.177  0.00  0.00    +0.000 A 
ATOM     29  C   UNL     1       5.550   4.176  16.009  0.00  0.00    +0.000 A 
BRANCH  24  31
ATOM     30  C   UNL     1       7.206   5.001  13.762  0.00  0.00    +0.000 C 
ATOM     31  O   UNL     1       7.760   4.728  15.040  0.00  0.00    +0.000 OA
ENDBRANCH  24  31
ENDBRANCH  23  28
ENDBRANCH  19  23
ENDBRANCH  18  20
ENDBRANCH  17  18
ENDBRANCH   1  17
TORSDOF 6
ENDMDL
MODEL 3
REMARK VINA RESULT:      -7.8      3.163      9.057
REMARK  Name = 
REMARK  7 active torsions:
REMARK  status: ('A' for Active; 'I' for Inactive)
REMARK    1  A    between atoms: C_1  and  O_2
REMARK    2  A    between atoms: O_2  and  C_3
REMARK    3  A    between atoms: C_7  and  C_8
REMARK    4  A    between atoms: C_8  and  N_9
REMARK    5  A    between atoms: C_10  and  C_12
REMARK    6  A    between atoms: C_12  and  C_13
REMARK    7  A    between atoms: C_13  and  N_14
REMARK                            x       y       z     vdW  Elec       q    Type
REMARK                         _______ _______ _______ _____ _____    ______ ____
ROOT
ATOM      1  N   UNL     1       1.981   7.333  20.300  0.00  0.00    +0.000 N 
ATOM      2  C   UNL     1       1.993   5.983  20.157  0.00  0.00    +0.000 C 
ATOM      3  O   UNL     1       1.450   5.279  21.027  0.00  0.00    +0.000 OA
ATOM      4  N   UNL     1       2.455   5.361  19.015  0.00  0.00    +0.000 N 
ATOM      5  C   UNL     1       1.978   3.976  18.834  0.00  0.00    +0.000 C 
ATOM      6  C   UNL     1       2.466   3.559  17.467  0.00  0.00    +0.000 C 
ATOM      7  N   UNL     1       3.568   4.474  17.323  0.00  0.00    +0.000 N 
ATOM      8  C   UNL     1       3.452   5.621  18.072  0.00  0.00    +0.000 A 
ATOM      9  N   UNL     1       4.326   6.496  17.620  0.00  0.00    +0.000 NA
ATOM     10  C   UNL     1       5.069   5.786  16.617  0.00  0.00    +0.000 A 
ATOM     11  C   UNL     1       6.064   6.157  15.692  0.00  0.00    +0.000 A 
ATOM     12  C   UNL     1       6.653   5.168  14.859  0.00  0.00    +0.000 A 
ATOM     13  C   UNL     1       6.310   3.820  14.971  0.00  0.00    +0.000 A 
ATOM     14  C   UNL     1       5.299   3.430  15.841  0.00  0.00    +0.000 A 
ATOM     15  C   UNL     1       4.675   4.444  16.578  0.00  0.00    +0.000 A 
ATOM     16  H   UNL     1       2.140   7.848  19.445  0.00  0.00    +0.000 HD
ENDROOT
BRANCH   1  17
ATOM     17  C   UNL     1       1.022   7.916  21.265  0.00  0.00    +0.000 C 
BRANCH  17  18
ATOM     18  C   UNL     1       1.404   9.231  21.981  0.00  0.00    +0.000 C 
BRANCH  18  20
ATOM     19  N   UNL     1       0.883  10.589  20.040  0.00  0.00    +0.000 N 
ATOM     20  C   UNL     1       0.728  10.451  21.412  0.00  0.00    +0.000 C 
ATOM     21  O   UNL     1       0.170  11.285  22.097  0.00  0.00    +0.000 OA
ATOM     22  H   UNL     1       1.386   9.877  19.528  0.00  0.00    +0.000 HD
BRANCH  19  23
ATOM     23  C   UNL     1       0.277  11.665  19.279  0.00  0.00    +0.000 C 
BRANCH  23  28
ATOM     24  C   UNL     1      -3.479  11.560  18.507  0.00  0.00    +0.000 A 
ATOM     25  C   UNL     1      -3.532  10.470  17.635  0.00  0.00    +0.000 A 
ATOM     26  C   UNL     1      -2.370   9.793  17.275  0.00  0.00    +0.000 A 
ATOM     27  C   UNL     1      -1.143  10.199  17.794  0.00  0.00    +0.000 A 
ATOM     28  C   UNL     1      -1.056  11.292  18.670  0.00  0.00    +0.000 A 
ATOM     29  C   UNL     1      -2.242  11.971  19.020  0.00  0.00    +0.000 A 
BRANCH  24  31
ATOM     30  C   UNL     1      -4.914  12.624  20.084  0.00  0.00    +0.000 C 
ATOM     31  O   UNL     1      -4.701  12.111  18.779  0.00  0.00    +0.000 OA
ENDBRANCH  24  31
ENDBRANCH  23  28
ENDBRANCH  19  23
ENDBRANCH  18  20
ENDBRANCH  17  18
ENDBRANCH   1  17
TORSDOF 6
ENDMDL
MODEL 4
REMARK VINA RESULT:      -7.6      6.212      9.178
REMARK  Name = 
REMARK  7 active torsions:
REMARK  status: ('A' for Active; 'I' for Inactive)
REMARK    1  A    between atoms: C_1  and  O_2
REMARK    2  A    between atoms: O_2  and  C_3
REMARK    3  A    between atoms: C_7  and  C_8
REMARK    4  A    between atoms: C_8  and  N_9
REMARK    5  A    between atoms: C_10  and  C_12
REMARK    6  A    between atoms: C_12  and  C_13
REMARK    7  A    between atoms: C_13  and  N_14
REMARK                            x       y       z     vdW  Elec       q    Type
REMARK                         _______ _______ _______ _____ _____    ______ ____
ROOT
ATOM      1  N   UNL     1       6.908   7.134  18.305  0.00  0.00    +0.000 N 
ATOM      2  C   UNL     1       6.295   6.483  17.284  0.00  0.00    +0.000 C 
ATOM      3  O   UNL     1       6.615   6.757  16.114  0.00  0.00    +0.000 OA
ATOM      4  N   UNL     1       5.433   5.424  17.489  0.00  0.00    +0.000 N 
ATOM      5  C   UNL     1       5.233   4.557  16.310  0.00  0.00    +0.000 C 
ATOM      6  C   UNL     1       4.400   3.398  16.803  0.00  0.00    +0.000 C 
ATOM      7  N   UNL     1       3.791   4.019  17.950  0.00  0.00    +0.000 N 
ATOM      8  C   UNL     1       4.507   5.069  18.471  0.00  0.00    +0.000 A 
ATOM      9  N   UNL     1       4.032   5.333  19.671  0.00  0.00    +0.000 NA
ATOM     10  C   UNL     1       2.906   4.456  19.820  0.00  0.00    +0.000 A 
ATOM     11  C   UNL     1       2.032   4.160  20.885  0.00  0.00    +0.000 A 
ATOM     12  C   UNL     1       0.949   3.262  20.676  0.00  0.00    +0.000 A 
ATOM     13  C   UNL     1       0.694   2.706  19.422  0.00  0.00    +0.000 A 
ATOM     14  C   UNL     1       1.565   2.943  18.365  0.00  0.00    +0.000 A 
ATOM     15  C   UNL     1       2.674   3.755  18.632  0.00  0.00    +0.000 A 
ATOM     16  H   UNL     1       6.850   6.666  19.197  0.00  0.00    +0.000 HD
ENDROOT
BRANCH   1  17
ATOM     17  C   UNL     1       8.166   7.854  18.006  0.00  0.00    +0.000 C 
BRANCH  17  18
ATOM     18  C   UNL     1       8.094   9.368  17.699  0.00  0.00    +0.000 C 
BRANCH  18  20
ATOM     19  N   UNL     1       9.813  11.079  17.708  0.00  0.00    +0.000 N 
ATOM     20  C   UNL     1       9.079  10.194  18.484  0.00  0.00    +0.000 C 
ATOM     21  O   UNL     1       9.277  10.043  19.674  0.00  0.00    +0.000 OA
ATOM     22  H   UNL     1       9.625  11.136  16.717  0.00  0.00    +0.000 HD
BRANCH  19  23
ATOM     23  C   UNL     1      10.784  12.002  18.265  0.00  0.00    +0.000 C 
BRANCH  23  28
ATOM     24  C   UNL     1      10.861  15.837  18.273  0.00  0.00    +0.000 A 
ATOM     25  C   UNL     1       9.499  16.123  18.169  0.00  0.00    +0.000 A 
ATOM     26  C   UNL     1       8.565  15.096  18.067  0.00  0.00    +0.000 A 
ATOM     27  C   UNL     1       8.990  13.769  18.077  0.00  0.00    +0.000 A 
ATOM     28  C   UNL     1      10.353  13.450  18.178  0.00  0.00    +0.000 A 
ATOM     29  C   UNL     1      11.287  14.502  18.275  0.00  0.00    +0.000 A 
BRANCH  24  31
ATOM     30  C   UNL     1      11.386  18.032  17.506  0.00  0.00    +0.000 C 
ATOM     31  O   UNL     1      11.653  16.948  18.381  0.00  0.00    +0.000 OA
ENDBRANCH  24  31
ENDBRANCH  23  28
ENDBRANCH  19  23
ENDBRANCH  18  20
ENDBRANCH  17  18
ENDBRANCH   1  17
TORSDOF 6
ENDMDL
MODEL 5
REMARK VINA RESULT:      -7.6      4.034     10.754
REMARK  Name = 
REMARK  7 active torsions:
REMARK  status: ('A' for Active; 'I' for Inactive)
REMARK    1  A    between atoms: C_1  and  O_2
REMARK    2  A    between atoms: O_2  and  C_3
REMARK    3  A    between atoms: C_7  and  C_8
REMARK    4  A    between atoms: C_8  and  N_9
REMARK    5  A    between atoms: C_10  and  C_12
REMARK    6  A    between atoms: C_12  and  C_13
REMARK    7  A    between atoms: C_13  and  N_14
REMARK                            x       y       z     vdW  Elec       q    Type
REMARK                         _______ _______ _______ _____ _____    ______ ____
ROOT
ATOM      1  N   UNL     1       1.372   8.293  21.751  0.00  0.00    +0.000 N 
ATOM      2  C   UNL     1       1.484   8.356  20.400  0.00  0.00    +0.000 C 
ATOM      3  O   UNL     1       1.050   9.358  19.805  0.00  0.00    +0.000 OA
ATOM      4  N   UNL     1       2.190   7.423  19.669  0.00  0.00    +0.000 N 
ATOM      5  C   UNL     1       2.600   7.877  18.325  0.00  0.00    +0.000 C 
ATOM      6  C   UNL     1       3.479   6.777  17.781  0.00  0.00    +0.000 C 
ATOM      7  N   UNL     1       3.001   5.678  18.580  0.00  0.00    +0.000 N 
ATOM      8  C   UNL     1       2.437   6.053  19.776  0.00  0.00    +0.000 A 
ATOM      9  N   UNL     1       2.341   4.982  20.537  0.00  0.00    +0.000 NA
ATOM     10  C   UNL     1       2.776   3.899  19.700  0.00  0.00    +0.000 A 
ATOM     11  C   UNL     1       3.010   2.527  19.920  0.00  0.00    +0.000 A 
ATOM     12  C   UNL     1       3.388   1.696  18.831  0.00  0.00    +0.000 A 
ATOM     13  C   UNL     1       3.480   2.193  17.530  0.00  0.00    +0.000 A 
ATOM     14  C   UNL     1       3.299   3.550  17.290  0.00  0.00    +0.000 A 
ATOM     15  C   UNL     1       3.023   4.356  18.401  0.00  0.00    +0.000 A 
ATOM     16  H   UNL     1       2.002   7.641  22.195  0.00  0.00    +0.000 HD
ENDROOT
BRANCH   1  17
ATOM     17  C   UNL     1       1.086   9.550  22.479  0.00  0.00    +0.000 C 
BRANCH  17  18
ATOM     18  C   UNL     1      -0.353   9.797  22.986  0.00  0.00    +0.000 C 
BRANCH  18  20
ATOM     19  N   UNL     1      -2.100  11.450  23.305  0.00  0.00    +0.000 N 
ATOM     20  C   UNL     1      -0.818  11.221  22.824  0.00  0.00    +0.000 C 
ATOM     21  O   UNL     1      -0.169  12.073  22.250  0.00  0.00    +0.000 OA
ATOM     22  H   UNL     1      -2.602  10.692  23.744  0.00  0.00    +0.000 HD
BRANCH  19  23
ATOM     23  C   UNL     1      -2.727  12.758  23.291  0.00  0.00    +0.000 C 
BRANCH  23  28
ATOM     24  C   UNL     1      -6.203  12.706  21.672  0.00  0.00    +0.000 A 
ATOM     25  C   UNL     1      -7.017  12.754  22.805  0.00  0.00    +0.000 A 
ATOM     26  C   UNL     1      -6.456  12.773  24.079  0.00  0.00    +0.000 A 
ATOM     27  C   UNL     1      -5.071  12.753  24.228  0.00  0.00    +0.000 A 
ATOM     28  C   UNL     1      -4.227  12.702  23.107  0.00  0.00    +0.000 A 
ATOM     29  C   UNL     1      -4.811  12.677  21.824  0.00  0.00    +0.000 A 
BRANCH  24  31
ATOM     30  C   UNL     1      -7.598  13.893  20.146  0.00  0.00    +0.000 C 
ATOM     31  O   UNL     1      -6.897  12.709  20.493  0.00  0.00    +0.000 OA
ENDBRANCH  24  31
ENDBRANCH  23  28
ENDBRANCH  19  23
ENDBRANCH  18  20
ENDBRANCH  17  18
ENDBRANCH   1  17
TORSDOF 6
ENDMDL
MODEL 6
REMARK VINA RESULT:      -7.5      3.865      9.905
REMARK  Name = 
REMARK  7 active torsions:
REMARK  status: ('A' for Active; 'I' for Inactive)
REMARK    1  A    between atoms: C_1  and  O_2
REMARK    2  A    between atoms: O_2  and  C_3
REMARK    3  A    between atoms: C_7  and  C_8
REMARK    4  A    between atoms: C_8  and  N_9
REMARK    5  A    between atoms: C_10  and  C_12
REMARK    6  A    between atoms: C_12  and  C_13
REMARK    7  A    between atoms: C_13  and  N_14
REMARK                            x       y       z     vdW  Elec       q    Type
REMARK                         _______ _______ _______ _____ _____    ______ ____
ROOT
ATOM      1  N   UNL     1       1.438   8.253  21.850  0.00  0.00    +0.000 N 
ATOM      2  C   UNL     1       1.499   8.330  20.496  0.00  0.00    +0.000 C 
ATOM      3  O   UNL     1       1.049   9.340  19.928  0.00  0.00    +0.000 OA
ATOM      4  N   UNL     1       2.169   7.399  19.729  0.00  0.00    +0.000 N 
ATOM      5  C   UNL     1       2.531   7.864  18.375  0.00  0.00    +0.000 C 
ATOM      6  C   UNL     1       3.381   6.764  17.787  0.00  0.00    +0.000 C 
ATOM      7  N   UNL     1       2.927   5.661  18.592  0.00  0.00    +0.000 N 
ATOM      8  C   UNL     1       2.412   6.027  19.813  0.00  0.00    +0.000 A 
ATOM      9  N   UNL     1       2.337   4.949  20.566  0.00  0.00    +0.000 NA
ATOM     10  C   UNL     1       2.733   3.872  19.703  0.00  0.00    +0.000 A 
ATOM     11  C   UNL     1       2.965   2.496  19.900  0.00  0.00    +0.000 A 
ATOM     12  C   UNL     1       3.295   1.673  18.789  0.00  0.00    +0.000 A 
ATOM     13  C   UNL     1       3.341   2.183  17.491  0.00  0.00    +0.000 A 
ATOM     14  C   UNL     1       3.160   3.543  17.271  0.00  0.00    +0.000 A 
ATOM     15  C   UNL     1       2.933   4.340  18.400  0.00  0.00    +0.000 A 
ATOM     16  H   UNL     1       2.081   7.593  22.263  0.00  0.00    +0.000 HD
ENDROOT
BRANCH   1  17
ATOM     17  C   UNL     1       1.189   9.505  22.600  0.00  0.00    +0.000 C 
BRANCH  17  18
ATOM     18  C   UNL     1      -0.269   9.865  22.970  0.00  0.00    +0.000 C 
BRANCH  18  20
ATOM     19  N   UNL     1      -1.023  11.254  21.129  0.00  0.00    +0.000 N 
ATOM     20  C   UNL     1      -0.701  11.222  22.479  0.00  0.00    +0.000 C 
ATOM     21  O   UNL     1      -0.690  12.218  23.176  0.00  0.00    +0.000 OA
ATOM     22  H   UNL     1      -0.982  10.398  20.595  0.00  0.00    +0.000 HD
BRANCH  19  23
ATOM     23  C   UNL     1      -1.507  12.446  20.460  0.00  0.00    +0.000 C 
BRANCH  23  28
ATOM     24  C   UNL     1      -5.318  12.585  20.870  0.00  0.00    +0.000 A 
ATOM     25  C   UNL     1      -5.729  12.166  19.603  0.00  0.00    +0.000 A 
ATOM     26  C   UNL     1      -4.793  11.870  18.616  0.00  0.00    +0.000 A 
ATOM     27  C   UNL     1      -3.433  11.983  18.895  0.00  0.00    +0.000 A 
ATOM     28  C   UNL     1      -2.988  12.405  20.158  0.00  0.00    +0.000 A 
ATOM     29  C   UNL     1      -3.949  12.706  21.145  0.00  0.00    +0.000 A 
BRANCH  24  31
ATOM     30  C   UNL     1      -7.670  12.617  21.257  0.00  0.00    +0.000 C 
ATOM     31  O   UNL     1      -6.350  12.823  21.736  0.00  0.00    +0.000 OA
ENDBRANCH  24  31
ENDBRANCH  23  28
ENDBRANCH  19  23
ENDBRANCH  18  20
ENDBRANCH  17  18
ENDBRANCH   1  17
TORSDOF 6
ENDMDL
MODEL 7
REMARK VINA RESULT:      -7.5      3.079      9.283
REMARK  Name = 
REMARK  7 active torsions:
REMARK  status: ('A' for Active; 'I' for Inactive)
REMARK    1  A    between atoms: C_1  and  O_2
REMARK    2  A    between atoms: O_2  and  C_3
REMARK    3  A    between atoms: C_7  and  C_8
REMARK    4  A    between atoms: C_8  and  N_9
REMARK    5  A    between atoms: C_10  and  C_12
REMARK    6  A    between atoms: C_12  and  C_13
REMARK    7  A    between atoms: C_13  and  N_14
REMARK                            x       y       z     vdW  Elec       q    Type
REMARK                         _______ _______ _______ _____ _____    ______ ____
ROOT
ATOM      1  N   UNL     1       1.990   7.219  20.206  0.00  0.00    +0.000 N 
ATOM      2  C   UNL     1       2.173   5.875  20.175  0.00  0.00    +0.000 C 
ATOM      3  O   UNL     1       1.804   5.193  21.148  0.00  0.00    +0.000 OA
ATOM      4  N   UNL     1       2.618   5.211  19.050  0.00  0.00    +0.000 N 
ATOM      5  C   UNL     1       2.319   3.765  19.031  0.00  0.00    +0.000 C 
ATOM      6  C   UNL     1       2.744   3.286  17.664  0.00  0.00    +0.000 C 
ATOM      7  N   UNL     1       3.696   4.316  17.340  0.00  0.00    +0.000 N 
ATOM      8  C   UNL     1       3.488   5.505  17.999  0.00  0.00    +0.000 A 
ATOM      9  N   UNL     1       4.196   6.437  17.395  0.00  0.00    +0.000 NA
ATOM     10  C   UNL     1       4.942   5.736  16.389  0.00  0.00    +0.000 A 
ATOM     11  C   UNL     1       5.797   6.142  15.345  0.00  0.00    +0.000 A 
ATOM     12  C   UNL     1       6.444   5.161  14.545  0.00  0.00    +0.000 A 
ATOM     13  C   UNL     1       6.296   3.797  14.800  0.00  0.00    +0.000 A 
ATOM     14  C   UNL     1       5.424   3.366  15.793  0.00  0.00    +0.000 A 
ATOM     15  C   UNL     1       4.731   4.357  16.498  0.00  0.00    +0.000 A 
ATOM     16  H   UNL     1       2.006   7.666  19.300  0.00  0.00    +0.000 HD
ENDROOT
BRANCH   1  17
ATOM     17  C   UNL     1       1.044   7.764  21.206  0.00  0.00    +0.000 C 
BRANCH  17  18
ATOM     18  C   UNL     1       1.087   9.278  21.512  0.00  0.00    +0.000 C 
BRANCH  18  20
ATOM     19  N   UNL     1      -0.117  11.187  20.622  0.00  0.00    +0.000 N 
ATOM     20  C   UNL     1       0.752  10.147  20.327  0.00  0.00    +0.000 C 
ATOM     21  O   UNL     1       1.138   9.912  19.198  0.00  0.00    +0.000 OA
ATOM     22  H   UNL     1      -0.429  11.311  21.575  0.00  0.00    +0.000 HD
BRANCH  19  23
ATOM     23  C   UNL     1      -0.536  12.170  19.641  0.00  0.00    +0.000 C 
BRANCH  23  28
ATOM     24  C   UNL     1      -3.500  11.231  17.395  0.00  0.00    +0.000 A 
ATOM     25  C   UNL     1      -4.565  11.703  18.164  0.00  0.00    +0.000 A 
ATOM     26  C   UNL     1      -4.338  12.291  19.405  0.00  0.00    +0.000 A 
ATOM     27  C   UNL     1      -3.036  12.419  19.883  0.00  0.00    +0.000 A 
ATOM     28  C   UNL     1      -1.944  11.951  19.136  0.00  0.00    +0.000 A 
ATOM     29  C   UNL     1      -2.192  11.353  17.883  0.00  0.00    +0.000 A 
BRANCH  24  31
ATOM     30  C   UNL     1      -2.852  10.239  15.327  0.00  0.00    +0.000 C 
ATOM     31  O   UNL     1      -3.878  10.695  16.195  0.00  0.00    +0.000 OA
ENDBRANCH  24  31
ENDBRANCH  23  28
ENDBRANCH  19  23
ENDBRANCH  18  20
ENDBRANCH  17  18
ENDBRANCH   1  17
TORSDOF 6
ENDMDL
MODEL 8
REMARK VINA RESULT:      -7.5      2.959      8.635
REMARK  Name = 
REMARK  7 active torsions:
REMARK  status: ('A' for Active; 'I' for Inactive)
REMARK    1  A    between atoms: C_1  and  O_2
REMARK    2  A    between atoms: O_2  and  C_3
REMARK    3  A    between atoms: C_7  and  C_8
REMARK    4  A    between atoms: C_8  and  N_9
REMARK    5  A    between atoms: C_10  and  C_12
REMARK    6  A    between atoms: C_12  and  C_13
REMARK    7  A    between atoms: C_13  and  N_14
REMARK                            x       y       z     vdW  Elec       q    Type
REMARK                         _______ _______ _______ _____ _____    ______ ____
ROOT
ATOM      1  N   UNL     1       1.498   8.244  21.770  0.00  0.00    +0.000 N 
ATOM      2  C   UNL     1       1.538   8.291  20.414  0.00  0.00    +0.000 C 
ATOM      3  O   UNL     1       1.054   9.277  19.830  0.00  0.00    +0.000 OA
ATOM      4  N   UNL     1       2.223   7.362  19.658  0.00  0.00    +0.000 N 
ATOM      5  C   UNL     1       2.554   7.806  18.290  0.00  0.00    +0.000 C 
ATOM      6  C   UNL     1       3.425   6.715  17.714  0.00  0.00    +0.000 C 
ATOM      7  N   UNL     1       3.010   5.618  18.550  0.00  0.00    +0.000 N 
ATOM      8  C   UNL     1       2.502   5.998  19.769  0.00  0.00    +0.000 A 
ATOM      9  N   UNL     1       2.466   4.935  20.547  0.00  0.00    +0.000 NA
ATOM     10  C   UNL     1       2.879   3.850  19.703  0.00  0.00    +0.000 A 
ATOM     11  C   UNL     1       3.150   2.486  19.927  0.00  0.00    +0.000 A 
ATOM     12  C   UNL     1       3.487   1.647  18.829  0.00  0.00    +0.000 A 
ATOM     13  C   UNL     1       3.501   2.129  17.520  0.00  0.00    +0.000 A 
ATOM     14  C   UNL     1       3.282   3.479  17.273  0.00  0.00    +0.000 A 
ATOM     15  C   UNL     1       3.049   4.294  18.387  0.00  0.00    +0.000 A 
ATOM     16  H   UNL     1       2.163   7.610  22.189  0.00  0.00    +0.000 HD
ENDROOT
BRANCH   1  17
ATOM     17  C   UNL     1       1.226   9.505  22.496  0.00  0.00    +0.000 C 
BRANCH  17  18
ATOM     18  C   UNL     1      -0.201   9.749  23.040  0.00  0.00    +0.000 C 
BRANCH  18  20
ATOM     19  N   UNL     1      -0.939  11.105  21.169  0.00  0.00    +0.000 N 
ATOM     20  C   UNL     1      -0.826  11.029  22.550  0.00  0.00    +0.000 C 
ATOM     21  O   UNL     1      -1.127  11.949  23.285  0.00  0.00    +0.000 OA
ATOM     22  H   UNL     1      -0.642  10.319  20.608  0.00  0.00    +0.000 HD
BRANCH  19  23
ATOM     23  C   UNL     1      -1.553  12.228  20.486  0.00  0.00    +0.000 C 
BRANCH  23  28
ATOM     24  C   UNL     1       1.677  13.646  18.980  0.00  0.00    +0.000 A 
ATOM     25  C   UNL     1       1.340  14.997  18.874  0.00  0.00    +0.000 A 
ATOM     26  C   UNL     1       0.078  15.445  19.253  0.00  0.00    +0.000 A 
ATOM     27  C   UNL     1      -0.857  14.541  19.753  0.00  0.00    +0.000 A 
ATOM     28  C   UNL     1      -0.550  13.176  19.870  0.00  0.00    +0.000 A 
ATOM     29  C   UNL     1       0.732  12.737  19.475  0.00  0.00    +0.000 A 
BRANCH  24  31
ATOM     30  C   UNL     1       3.801  14.454  18.264  0.00  0.00    +0.000 C 
ATOM     31  O   UNL     1       2.955  13.361  18.584  0.00  0.00    +0.000 OA
ENDBRANCH  24  31
ENDBRANCH  23  28
ENDBRANCH  19  23
ENDBRANCH  18  20
ENDBRANCH  17  18
ENDBRANCH   1  17
TORSDOF 6
ENDMDL
MODEL 9
REMARK VINA RESULT:      -7.4      1.403      1.506
REMARK  Name = 
REMARK  7 active torsions:
REMARK  status: ('A' for Active; 'I' for Inactive)
REMARK    1  A    between atoms: C_1  and  O_2
REMARK    2  A    between atoms: O_2  and  C_3
REMARK    3  A    between atoms: C_7  and  C_8
REMARK    4  A    between atoms: C_8  and  N_9
REMARK    5  A    between atoms: C_10  and  C_12
REMARK    6  A    between atoms: C_12  and  C_13
REMARK    7  A    between atoms: C_13  and  N_14
REMARK                            x       y       z     vdW  Elec       q    Type
REMARK                         _______ _______ _______ _____ _____    ______ ____
ROOT
ATOM      1  N   UNL     1       1.427   5.975  20.707  0.00  0.00    +0.000 N 
ATOM      2  C   UNL     1       1.950   6.989  19.972  0.00  0.00    +0.000 C 
ATOM      3  O   UNL     1       2.908   6.753  19.213  0.00  0.00    +0.000 OA
ATOM      4  N   UNL     1       1.374   8.242  19.918  0.00  0.00    +0.000 N 
ATOM      5  C   UNL     1       1.775   9.053  18.752  0.00  0.00    +0.000 C 
ATOM      6  C   UNL     1       0.916  10.293  18.812  0.00  0.00    +0.000 C 
ATOM      7  N   UNL     1       0.598  10.290  20.217  0.00  0.00    +0.000 N 
ATOM      8  C   UNL     1       0.666   9.051  20.808  0.00  0.00    +0.000 A 
ATOM      9  N   UNL     1       0.055   9.120  21.973  0.00  0.00    +0.000 NA
ATOM     10  C   UNL     1      -0.299  10.503  22.119  0.00  0.00    +0.000 A 
ATOM     11  C   UNL     1      -1.046  11.226  23.071  0.00  0.00    +0.000 A 
ATOM     12  C   UNL     1      -1.157  12.638  22.952  0.00  0.00    +0.000 A 
ATOM     13  C   UNL     1      -0.496  13.340  21.943  0.00  0.00    +0.000 A 
ATOM     14  C   UNL     1       0.211  12.651  20.965  0.00  0.00    +0.000 A 
ATOM     15  C   UNL     1       0.219  11.254  21.059  0.00  0.00    +0.000 A 
ATOM     16  H   UNL     1       0.489   6.139  21.043  0.00  0.00    +0.000 HD
ENDROOT
BRANCH   1  17
ATOM     17  C   UNL     1       1.763   4.589  20.307  0.00  0.00    +0.000 C 
BRANCH  17  18
ATOM     18  C   UNL     1       3.081   3.971  20.825  0.00  0.00    +0.000 C 
BRANCH  18  20
ATOM     19  N   UNL     1       3.463   3.518  18.473  0.00  0.00    +0.000 N 
ATOM     20  C   UNL     1       3.858   3.226  19.771  0.00  0.00    +0.000 C 
ATOM     21  O   UNL     1       4.695   2.384  20.030  0.00  0.00    +0.000 OA
ATOM     22  H   UNL     1       2.738   4.205  18.323  0.00  0.00    +0.000 HD
BRANCH  19  23
ATOM     23  C   UNL     1       4.106   2.949  17.304  0.00  0.00    +0.000 C 
BRANCH  23  28
ATOM     24  C   UNL     1       6.237   6.042  16.526  0.00  0.00    +0.000 A 
ATOM     25  C   UNL     1       6.852   5.639  15.339  0.00  0.00    +0.000 A 
ATOM     26  C   UNL     1       6.609   4.376  14.808  0.00  0.00    +0.000 A 
ATOM     27  C   UNL     1       5.737   3.506  15.460  0.00  0.00    +0.000 A 
ATOM     28  C   UNL     1       5.106   3.880  16.656  0.00  0.00    +0.000 A 
ATOM     29  C   UNL     1       5.367   5.162  17.185  0.00  0.00    +0.000 A 
BRANCH  24  31
ATOM     30  C   UNL     1       7.663   7.470  17.795  0.00  0.00    +0.000 C 
ATOM     31  O   UNL     1       6.561   7.313  16.914  0.00  0.00    +0.000 OA
ENDBRANCH  24  31
ENDBRANCH  23  28
ENDBRANCH  19  23
ENDBRANCH  18  20
ENDBRANCH  17  18
ENDBRANCH   1  17
TORSDOF 6
ENDMDL
