MODEL 1
REMARK VINA RESULT:      -8.3      0.000      0.000
REMARK  Name = 
REMARK  13 active torsions:
REMARK  status: ('A' for Active; 'I' for Inactive)
REMARK    1  A    between atoms: C_1  and  O_2
REMARK    2  A    between atoms: O_2  and  C_3
REMARK    3  A    between atoms: C_6  and  C_7
REMARK    4  A    between atoms: C_7  and  C_8
REMARK    5  A    between atoms: C_8  and  N_9
REMARK    6  A    between atoms: C_10  and  C_11
REMARK    7  A    between atoms: N_13  and  C_14
REMARK    8  A    between atoms: C_14  and  C_15
REMARK    9  A    between atoms: C_15  and  C_16
REMARK   10  A    between atoms: C_16  and  N_17
REMARK   11  A    between atoms: C_31  and  C_32
REMARK   12  A    between atoms: C_34  and  O_35
REMARK   13  A    between atoms: O_35  and  C_36
REMARK                            x       y       z     vdW  Elec       q    Type
REMARK                         _______ _______ _______ _____ _____    ______ ____
ROOT
ATOM      1  N   UNL     1       0.781  11.998  21.266  0.00  0.00    +0.000 NA
ATOM      2  C   UNL     1       0.249  10.658  21.668  0.00  0.00    +0.000 C 
ATOM      3  C   UNL     1      -0.695  10.560  22.875  0.00  0.00    +0.000 C 
ATOM      4  C   UNL     1      -0.436   9.853  20.522  0.00  0.00    +0.000 C 
ATOM      5  N   UNL     1       0.352   9.732  19.281  0.00  0.00    +0.000 NA
ATOM      6  C   UNL     1       0.639  11.110  18.848  0.00  0.00    +0.000 C 
ATOM      7  C   UNL     1       1.392  11.982  19.902  0.00  0.00    +0.000 C 
ATOM      8  C   UNL     1       1.711  13.332  19.240  0.00  0.00    +0.000 C 
ENDROOT
BRANCH   1   9
ATOM      9  C   UNL     1       0.010  13.190  21.627  0.00  0.00    +0.000 C 
BRANCH   9  10
ATOM     10  C   UNL     1      -1.208  13.420  20.701  0.00  0.00    +0.000 C 
BRANCH  10  14
ATOM     11  C   UNL     1      -4.970  12.871  22.732  0.00  0.00    +0.000 A 
ATOM     12  C   UNL     1      -4.870  12.681  21.343  0.00  0.00    +0.000 A 
ATOM     13  C   UNL     1      -3.653  12.835  20.680  0.00  0.00    +0.000 A 
ATOM     14  C   UNL     1      -2.531  13.228  21.394  0.00  0.00    +0.000 A 
ATOM     15  C   UNL     1      -2.645  13.502  22.763  0.00  0.00    +0.000 A 
ATOM     16  C   UNL     1      -3.859  13.341  23.444  0.00  0.00    +0.000 A 
BRANCH  11  18
ATOM     17  C   UNL     1      -7.287  12.467  22.534  0.00  0.00    +0.000 C 
ATOM     18  O   UNL     1      -6.147  12.623  23.387  0.00  0.00    +0.000 OA
ENDBRANCH  11  18
BRANCH  16  19
ATOM     19  O   UNL     1      -3.750  13.677  24.767  0.00  0.00    +0.000 OA
ATOM     20  C   UNL     1      -3.139  14.907  25.115  0.00  0.00    +0.000 C 
ENDBRANCH  16  19
ENDBRANCH  10  14
ENDBRANCH   9  10
ENDBRANCH   1   9
BRANCH   5  21
ATOM     21  C   UNL     1       1.607   8.976  19.453  0.00  0.00    +0.000 C 
BRANCH  21  22
ATOM     22  C   UNL     1       2.286   8.550  18.160  0.00  0.00    +0.000 C 
BRANCH  22  23
ATOM     23  C   UNL     1       2.046   7.081  17.776  0.00  0.00    +0.000 C 
BRANCH  23  24
ATOM     24  N   UNL     1       3.125   6.268  18.354  0.00  0.00    +0.000 N 
ATOM     25  C   UNL     1       2.903   5.311  19.331  0.00  0.00    +0.000 A 
ATOM     26  C   UNL     1       2.119   5.342  20.491  0.00  0.00    +0.000 A 
ATOM     27  C   UNL     1       2.029   4.162  21.241  0.00  0.00    +0.000 A 
ATOM     28  C   UNL     1       2.663   2.996  20.820  0.00  0.00    +0.000 A 
ATOM     29  C   UNL     1       3.390   2.963  19.624  0.00  0.00    +0.000 A 
ATOM     30  C   UNL     1       3.529   4.151  18.871  0.00  0.00    +0.000 A 
ATOM     31  C   UNL     1       4.168   4.477  17.634  0.00  0.00    +0.000 A 
ATOM     32  C   UNL     1       4.750   3.750  16.576  0.00  0.00    +0.000 A 
ATOM     33  C   UNL     1       5.387   4.447  15.541  0.00  0.00    +0.000 A 
ATOM     34  C   UNL     1       5.532   5.834  15.592  0.00  0.00    +0.000 A 
ATOM     35  C   UNL     1       4.920   6.578  16.600  0.00  0.00    +0.000 A 
ATOM     36  C   UNL     1       4.175   5.866  17.546  0.00  0.00    +0.000 A 
ENDBRANCH  23  24
ENDBRANCH  22  23
ENDBRANCH  21  22
ENDBRANCH   5  21
TORSDOF 9
ENDMDL
MODEL 2
REMARK VINA RESULT:      -8.1      1.647      3.399
REMARK  Name = 
REMARK  13 active torsions:
REMARK  status: ('A' for Active; 'I' for Inactive)
REMARK    1  A    between atoms: C_1  and  O_2
REMARK    2  A    between atoms: O_2  and  C_3
REMARK    3  A    between atoms: C_6  and  C_7
REMARK    4  A    between atoms: C_7  and  C_8
REMARK    5  A    between atoms: C_8  and  N_9
REMARK    6  A    between atoms: C_10  and  C_11
REMARK    7  A    between atoms: N_13  and  C_14
REMARK    8  A    between atoms: C_14  and  C_15
REMARK    9  A    between atoms: C_15  and  C_16
REMARK   10  A    between atoms: C_16  and  N_17
REMARK   11  A    between atoms: C_31  and  C_32
REMARK   12  A    between atoms: C_34  and  O_35
REMARK   13  A    between atoms: O_35  and  C_36
REMARK                            x       y       z     vdW  Elec       q    Type
REMARK                         _______ _______ _______ _____ _____    ______ ____
ROOT
ATOM      1  N   UNL     1      -0.637  12.152  19.093  0.00  0.00    +0.000 NA
ATOM      2  C   UNL     1       0.769  12.197  19.604  0.00  0.00    +0.000 C 
ATOM      3  C   UNL     1       1.178  13.322  20.565  0.00  0.00    +0.000 C 
ATOM      4  C   UNL     1       1.274  10.873  20.253  0.00  0.00    +0.000 C 
ATOM      5  N   UNL     1       1.070   9.657  19.443  0.00  0.00    +0.000 NA
ATOM      6  C   UNL     1      -0.377   9.586  19.177  0.00  0.00    +0.000 C 
ATOM      7  C   UNL     1      -0.971  10.839  18.460  0.00  0.00    +0.000 C 
ATOM      8  C   UNL     1      -2.448  10.540  18.158  0.00  0.00    +0.000 C 
ENDROOT
BRANCH   1   9
ATOM      9  C   UNL     1      -1.690  12.781  19.894  0.00  0.00    +0.000 C 
BRANCH   9  10
ATOM     10  C   UNL     1      -1.784  12.201  21.325  0.00  0.00    +0.000 C 
BRANCH  10  14
ATOM     11  C   UNL     1      -5.539  13.095  23.242  0.00  0.00    +0.000 A 
ATOM     12  C   UNL     1      -4.382  12.862  24.004  0.00  0.00    +0.000 A 
ATOM     13  C   UNL     1      -3.157  12.593  23.393  0.00  0.00    +0.000 A 
ATOM     14  C   UNL     1      -3.088  12.508  22.011  0.00  0.00    +0.000 A 
ATOM     15  C   UNL     1      -4.256  12.654  21.251  0.00  0.00    +0.000 A 
ATOM     16  C   UNL     1      -5.491  12.935  21.851  0.00  0.00    +0.000 A 
BRANCH  11  18
ATOM     17  C   UNL     1      -6.981  14.861  23.856  0.00  0.00    +0.000 C 
ATOM     18  O   UNL     1      -6.714  13.453  23.848  0.00  0.00    +0.000 OA
ENDBRANCH  11  18
BRANCH  16  19
ATOM     19  O   UNL     1      -6.498  13.023  20.928  0.00  0.00    +0.000 OA
ATOM     20  C   UNL     1      -6.958  11.840  20.298  0.00  0.00    +0.000 C 
ENDBRANCH  16  19
ENDBRANCH  10  14
ENDBRANCH   9  10
ENDBRANCH   1   9
BRANCH   5  21
ATOM     21  C   UNL     1       1.825   9.662  18.176  0.00  0.00    +0.000 C 
BRANCH  21  22
ATOM     22  C   UNL     1       2.105   8.288  17.586  0.00  0.00    +0.000 C 
BRANCH  22  23
ATOM     23  C   UNL     1       2.696   7.281  18.585  0.00  0.00    +0.000 C 
BRANCH  23  24
ATOM     24  N   UNL     1       3.384   6.226  17.828  0.00  0.00    +0.000 N 
ATOM     25  C   UNL     1       4.760   6.188  17.673  0.00  0.00    +0.000 A 
ATOM     26  C   UNL     1       5.682   7.197  17.367  0.00  0.00    +0.000 A 
ATOM     27  C   UNL     1       7.039   6.853  17.370  0.00  0.00    +0.000 A 
ATOM     28  C   UNL     1       7.452   5.565  17.704  0.00  0.00    +0.000 A 
ATOM     29  C   UNL     1       6.522   4.585  18.070  0.00  0.00    +0.000 A 
ATOM     30  C   UNL     1       5.144   4.896  18.037  0.00  0.00    +0.000 A 
ATOM     31  C   UNL     1       3.952   4.171  18.348  0.00  0.00    +0.000 A 
ATOM     32  C   UNL     1       3.649   2.948  18.978  0.00  0.00    +0.000 A 
ATOM     33  C   UNL     1       2.319   2.510  19.012  0.00  0.00    +0.000 A 
ATOM     34  C   UNL     1       1.313   3.218  18.354  0.00  0.00    +0.000 A 
ATOM     35  C   UNL     1       1.578   4.456  17.770  0.00  0.00    +0.000 A 
ATOM     36  C   UNL     1       2.889   4.933  17.870  0.00  0.00    +0.000 A 
ENDBRANCH  23  24
ENDBRANCH  22  23
ENDBRANCH  21  22
ENDBRANCH   5  21
TORSDOF 9
ENDMDL
MODEL 3
REMARK VINA RESULT:      -8.0      1.623      3.466
REMARK  Name = 
REMARK  13 active torsions:
REMARK  status: ('A' for Active; 'I' for Inactive)
REMARK    1  A    between atoms: C_1  and  O_2
REMARK    2  A    between atoms: O_2  and  C_3
REMARK    3  A    between atoms: C_6  and  C_7
REMARK    4  A    between atoms: C_7  and  C_8
REMARK    5  A    between atoms: C_8  and  N_9
REMARK    6  A    between atoms: C_10  and  C_11
REMARK    7  A    between atoms: N_13  and  C_14
REMARK    8  A    between atoms: C_14  and  C_15
REMARK    9  A    between atoms: C_15  and  C_16
REMARK   10  A    between atoms: C_16  and  N_17
REMARK   11  A    between atoms: C_31  and  C_32
REMARK   12  A    between atoms: C_34  and  O_35
REMARK   13  A    between atoms: O_35  and  C_36
REMARK                            x       y       z     vdW  Elec       q    Type
REMARK                         _______ _______ _______ _____ _____    ______ ____
ROOT
ATOM      1  N   UNL     1      -1.411  11.052  19.650  0.00  0.00    +0.000 NA
ATOM      2  C   UNL     1      -1.114  10.139  18.501  0.00  0.00    +0.000 C 
ATOM      3  C   UNL     1      -1.954  10.253  17.220  0.00  0.00    +0.000 C 
ATOM      4  C   UNL     1       0.374  10.129  18.039  0.00  0.00    +0.000 C 
ATOM      5  N   UNL     1       1.365   9.927  19.113  0.00  0.00    +0.000 NA
ATOM      6  C   UNL     1       1.131  11.007  20.087  0.00  0.00    +0.000 C 
ATOM      7  C   UNL     1      -0.317  11.059  20.668  0.00  0.00    +0.000 C 
ATOM      8  C   UNL     1      -0.342  12.156  21.744  0.00  0.00    +0.000 C 
ENDROOT
BRANCH   1   9
ATOM      9  C   UNL     1      -2.057  12.337  19.370  0.00  0.00    +0.000 C 
BRANCH   9  10
ATOM     10  C   UNL     1      -3.551  12.357  19.768  0.00  0.00    +0.000 C 
BRANCH  10  14
ATOM     11  C   UNL     1      -4.435  14.896  23.137  0.00  0.00    +0.000 A 
ATOM     12  C   UNL     1      -3.559  15.326  22.125  0.00  0.00    +0.000 A 
ATOM     13  C   UNL     1      -3.283  14.521  21.020  0.00  0.00    +0.000 A 
ATOM     14  C   UNL     1      -3.845  13.255  20.940  0.00  0.00    +0.000 A 
ATOM     15  C   UNL     1      -4.650  12.790  21.988  0.00  0.00    +0.000 A 
ATOM     16  C   UNL     1      -4.944  13.592  23.098  0.00  0.00    +0.000 A 
BRANCH  11  18
ATOM     17  C   UNL     1      -3.681  16.128  25.004  0.00  0.00    +0.000 C 
ATOM     18  O   UNL     1      -4.774  15.733  24.167  0.00  0.00    +0.000 OA
ENDBRANCH  11  18
BRANCH  16  19
ATOM     19  O   UNL     1      -5.733  12.937  24.005  0.00  0.00    +0.000 OA
ATOM     20  C   UNL     1      -7.136  13.127  23.961  0.00  0.00    +0.000 C 
ENDBRANCH  16  19
ENDBRANCH  10  14
ENDBRANCH   9  10
ENDBRANCH   1   9
BRANCH   5  21
ATOM     21  C   UNL     1       1.260   8.611  19.770  0.00  0.00    +0.000 C 
BRANCH  21  22
ATOM     22  C   UNL     1       2.351   7.617  19.403  0.00  0.00    +0.000 C 
BRANCH  22  23
ATOM     23  C   UNL     1       2.515   7.390  17.891  0.00  0.00    +0.000 C 
BRANCH  23  24
ATOM     24  N   UNL     1       3.329   6.184  17.689  0.00  0.00    +0.000 N 
ATOM     25  C   UNL     1       4.712   6.190  17.761  0.00  0.00    +0.000 A 
ATOM     26  C   UNL     1       5.658   7.081  17.238  0.00  0.00    +0.000 A 
ATOM     27  C   UNL     1       7.002   6.860  17.565  0.00  0.00    +0.000 A 
ATOM     28  C   UNL     1       7.372   5.816  18.410  0.00  0.00    +0.000 A 
ATOM     29  C   UNL     1       6.408   4.973  18.976  0.00  0.00    +0.000 A 
ATOM     30  C   UNL     1       5.050   5.152  18.631  0.00  0.00    +0.000 A 
ATOM     31  C   UNL     1       3.832   4.507  19.014  0.00  0.00    +0.000 A 
ATOM     32  C   UNL     1       3.448   3.580  20.003  0.00  0.00    +0.000 A 
ATOM     33  C   UNL     1       2.135   3.091  20.005  0.00  0.00    +0.000 A 
ATOM     34  C   UNL     1       1.239   3.435  18.992  0.00  0.00    +0.000 A 
ATOM     35  C   UNL     1       1.579   4.390  18.034  0.00  0.00    +0.000 A 
ATOM     36  C   UNL     1       2.850   4.964  18.138  0.00  0.00    +0.000 A 
ENDBRANCH  23  24
ENDBRANCH  22  23
ENDBRANCH  21  22
ENDBRANCH   5  21
TORSDOF 9
ENDMDL
MODEL 4
REMARK VINA RESULT:      -8.0      1.286      2.651
REMARK  Name = 
REMARK  13 active torsions:
REMARK  status: ('A' for Active; 'I' for Inactive)
REMARK    1  A    between atoms: C_1  and  O_2
REMARK    2  A    between atoms: O_2  and  C_3
REMARK    3  A    between atoms: C_6  and  C_7
REMARK    4  A    between atoms: C_7  and  C_8
REMARK    5  A    between atoms: C_8  and  N_9
REMARK    6  A    between atoms: C_10  and  C_11
REMARK    7  A    between atoms: N_13  and  C_14
REMARK    8  A    between atoms: C_14  and  C_15
REMARK    9  A    between atoms: C_15  and  C_16
REMARK   10  A    between atoms: C_16  and  N_17
REMARK   11  A    between atoms: C_31  and  C_32
REMARK   12  A    between atoms: C_34  and  O_35
REMARK   13  A    between atoms: O_35  and  C_36
REMARK                            x       y       z     vdW  Elec       q    Type
REMARK                         _______ _______ _______ _____ _____    ______ ____
ROOT
ATOM      1  N   UNL     1       0.757  11.985  21.322  0.00  0.00    +0.000 NA
ATOM      2  C   UNL     1       0.258  10.590  21.539  0.00  0.00    +0.000 C 
ATOM      3  C   UNL     1      -0.746  10.324  22.670  0.00  0.00    +0.000 C 
ATOM      4  C   UNL     1      -0.329   9.898  20.272  0.00  0.00    +0.000 C 
ATOM      5  N   UNL     1       0.530   9.946  19.074  0.00  0.00    +0.000 NA
ATOM      6  C   UNL     1       0.784  11.374  18.815  0.00  0.00    +0.000 C 
ATOM      7  C   UNL     1       1.441  12.145  20.003  0.00  0.00    +0.000 C 
ATOM      8  C   UNL     1       1.741  13.572  19.516  0.00  0.00    +0.000 C 
ENDROOT
BRANCH   1   9
ATOM      9  C   UNL     1      -0.081  13.101  21.767  0.00  0.00    +0.000 C 
BRANCH   9  10
ATOM     10  C   UNL     1      -1.064  13.587  20.676  0.00  0.00    +0.000 C 
BRANCH  10  14
ATOM     11  C   UNL     1      -5.163  12.578  21.548  0.00  0.00    +0.000 A 
ATOM     12  C   UNL     1      -4.597  12.267  20.299  0.00  0.00    +0.000 A 
ATOM     13  C   UNL     1      -3.266  12.570  20.015  0.00  0.00    +0.000 A 
ATOM     14  C   UNL     1      -2.499  13.231  20.963  0.00  0.00    +0.000 A 
ATOM     15  C   UNL     1      -3.083  13.619  22.174  0.00  0.00    +0.000 A 
ATOM     16  C   UNL     1      -4.416  13.312  22.478  0.00  0.00    +0.000 A 
BRANCH  11  18
ATOM     17  C   UNL     1      -7.202  11.708  20.736  0.00  0.00    +0.000 C 
ATOM     18  O   UNL     1      -6.441  12.190  21.850  0.00  0.00    +0.000 OA
ENDBRANCH  11  18
BRANCH  16  19
ATOM     19  O   UNL     1      -4.785  13.797  23.704  0.00  0.00    +0.000 OA
ATOM     20  C   UNL     1      -5.547  14.990  23.771  0.00  0.00    +0.000 C 
ENDBRANCH  16  19
ENDBRANCH  10  14
ENDBRANCH   9  10
ENDBRANCH   1   9
BRANCH   5  21
ATOM     21  C   UNL     1       1.803   9.219  19.234  0.00  0.00    +0.000 C 
BRANCH  21  22
ATOM     22  C   UNL     1       1.958   7.987  18.356  0.00  0.00    +0.000 C 
BRANCH  22  23
ATOM     23  C   UNL     1       2.657   6.804  19.045  0.00  0.00    +0.000 C 
BRANCH  23  24
ATOM     24  N   UNL     1       3.189   5.911  18.007  0.00  0.00    +0.000 N 
ATOM     25  C   UNL     1       4.512   5.943  17.595  0.00  0.00    +0.000 A 
ATOM     26  C   UNL     1       5.360   7.017  17.298  0.00  0.00    +0.000 A 
ATOM     27  C   UNL     1       6.693   6.720  16.990  0.00  0.00    +0.000 A 
ATOM     28  C   UNL     1       7.161   5.408  17.019  0.00  0.00    +0.000 A 
ATOM     29  C   UNL     1       6.317   4.352  17.382  0.00  0.00    +0.000 A 
ATOM     30  C   UNL     1       4.958   4.621  17.658  0.00  0.00    +0.000 A 
ATOM     31  C   UNL     1       3.845   3.817  18.059  0.00  0.00    +0.000 A 
ATOM     32  C   UNL     1       3.666   2.498  18.520  0.00  0.00    +0.000 A 
ATOM     33  C   UNL     1       2.366   2.018  18.726  0.00  0.00    +0.000 A 
ATOM     34  C   UNL     1       1.254   2.793  18.395  0.00  0.00    +0.000 A 
ATOM     35  C   UNL     1       1.405   4.119  17.989  0.00  0.00    +0.000 A 
ATOM     36  C   UNL     1       2.711   4.614  17.923  0.00  0.00    +0.000 A 
ENDBRANCH  23  24
ENDBRANCH  22  23
ENDBRANCH  21  22
ENDBRANCH   5  21
TORSDOF 9
ENDMDL
MODEL 5
REMARK VINA RESULT:      -7.9      3.834     11.065
REMARK  Name = 
REMARK  13 active torsions:
REMARK  status: ('A' for Active; 'I' for Inactive)
REMARK    1  A    between atoms: C_1  and  O_2
REMARK    2  A    between atoms: O_2  and  C_3
REMARK    3  A    between atoms: C_6  and  C_7
REMARK    4  A    between atoms: C_7  and  C_8
REMARK    5  A    between atoms: C_8  and  N_9
REMARK    6  A    between atoms: C_10  and  C_11
REMARK    7  A    between atoms: N_13  and  C_14
REMARK    8  A    between atoms: C_14  and  C_15
REMARK    9  A    between atoms: C_15  and  C_16
REMARK   10  A    between atoms: C_16  and  N_17
REMARK   11  A    between atoms: C_31  and  C_32
REMARK   12  A    between atoms: C_34  and  O_35
REMARK   13  A    between atoms: O_35  and  C_36
REMARK                            x       y       z     vdW  Elec       q    Type
REMARK                         _______ _______ _______ _____ _____    ______ ____
ROOT
ATOM      1  N   UNL     1       0.706   9.681  19.501  0.00  0.00    +0.000 NA
ATOM      2  C   UNL     1      -0.234   9.734  20.665  0.00  0.00    +0.000 C 
ATOM      3  C   UNL     1      -0.400   8.489  21.548  0.00  0.00    +0.000 C 
ATOM      4  C   UNL     1       0.000  10.925  21.643  0.00  0.00    +0.000 C 
ATOM      5  N   UNL     1       0.091  12.253  21.007  0.00  0.00    +0.000 NA
ATOM      6  C   UNL     1       1.190  12.159  20.030  0.00  0.00    +0.000 C 
ATOM      7  C   UNL     1       1.016  11.039  18.957  0.00  0.00    +0.000 C 
ATOM      8  C   UNL     1       2.181  11.168  17.963  0.00  0.00    +0.000 C 
ENDROOT
BRANCH   1   9
ATOM      9  C   UNL     1       1.812   8.722  19.541  0.00  0.00    +0.000 C 
BRANCH   9  10
ATOM     10  C   UNL     1       1.893   7.845  18.271  0.00  0.00    +0.000 C 
BRANCH  10  14
ATOM     11  C   UNL     1       5.330   5.244  18.229  0.00  0.00    +0.000 A 
ATOM     12  C   UNL     1       5.279   6.379  17.403  0.00  0.00    +0.000 A 
ATOM     13  C   UNL     1       4.181   7.239  17.424  0.00  0.00    +0.000 A 
ATOM     14  C   UNL     1       3.099   6.944  18.241  0.00  0.00    +0.000 A 
ATOM     15  C   UNL     1       3.109   5.769  19.001  0.00  0.00    +0.000 A 
ATOM     16  C   UNL     1       4.210   4.902  18.998  0.00  0.00    +0.000 A 
BRANCH  11  18
ATOM     17  C   UNL     1       7.245   4.484  17.078  0.00  0.00    +0.000 C 
ATOM     18  O   UNL     1       6.453   4.461  18.271  0.00  0.00    +0.000 OA
ENDBRANCH  11  18
BRANCH  16  19
ATOM     19  O   UNL     1       4.002   3.811  19.798  0.00  0.00    +0.000 OA
ATOM     20  C   UNL     1       3.614   2.585  19.202  0.00  0.00    +0.000 C 
ENDBRANCH  16  19
ENDBRANCH  10  14
ENDBRANCH   9  10
ENDBRANCH   1   9
BRANCH   5  21
ATOM     21  C   UNL     1      -1.155  12.671  20.338  0.00  0.00    +0.000 C 
BRANCH  21  22
ATOM     22  C   UNL     1      -2.139  13.425  21.220  0.00  0.00    +0.000 C 
BRANCH  22  23
ATOM     23  C   UNL     1      -3.274  12.555  21.785  0.00  0.00    +0.000 C 
BRANCH  23  24
ATOM     24  N   UNL     1      -4.536  12.979  21.164  0.00  0.00    +0.000 N 
ATOM     25  C   UNL     1      -5.084  12.338  20.065  0.00  0.00    +0.000 A 
ATOM     26  C   UNL     1      -4.498  11.876  18.880  0.00  0.00    +0.000 A 
ATOM     27  C   UNL     1      -5.317  11.177  17.984  0.00  0.00    +0.000 A 
ATOM     28  C   UNL     1      -6.652  10.920  18.286  0.00  0.00    +0.000 A 
ATOM     29  C   UNL     1      -7.207  11.331  19.504  0.00  0.00    +0.000 A 
ATOM     30  C   UNL     1      -6.412  12.073  20.406  0.00  0.00    +0.000 A 
ATOM     31  C   UNL     1      -6.634  12.628  21.705  0.00  0.00    +0.000 A 
ATOM     32  C   UNL     1      -7.635  12.521  22.691  0.00  0.00    +0.000 A 
ATOM     33  C   UNL     1      -7.551  13.323  23.837  0.00  0.00    +0.000 A 
ATOM     34  C   UNL     1      -6.548  14.285  23.968  0.00  0.00    +0.000 A 
ATOM     35  C   UNL     1      -5.518  14.373  23.032  0.00  0.00    +0.000 A 
ATOM     36  C   UNL     1      -5.554  13.466  21.968  0.00  0.00    +0.000 A 
ENDBRANCH  23  24
ENDBRANCH  22  23
ENDBRANCH  21  22
ENDBRANCH   5  21
TORSDOF 9
ENDMDL
MODEL 6
REMARK VINA RESULT:      -7.9      1.496      2.085
REMARK  Name = 
REMARK  13 active torsions:
REMARK  status: ('A' for Active; 'I' for Inactive)
REMARK    1  A    between atoms: C_1  and  O_2
REMARK    2  A    between atoms: O_2  and  C_3
REMARK    3  A    between atoms: C_6  and  C_7
REMARK    4  A    between atoms: C_7  and  C_8
REMARK    5  A    between atoms: C_8  and  N_9
REMARK    6  A    between atoms: C_10  and  C_11
REMARK    7  A    between atoms: N_13  and  C_14
REMARK    8  A    between atoms: C_14  and  C_15
REMARK    9  A    between atoms: C_15  and  C_16
REMARK   10  A    between atoms: C_16  and  N_17
REMARK   11  A    between atoms: C_31  and  C_32
REMARK   12  A    between atoms: C_34  and  O_35
REMARK   13  A    between atoms: O_35  and  C_36
REMARK                            x       y       z     vdW  Elec       q    Type
REMARK                         _______ _______ _______ _____ _____    ______ ____
ROOT
ATOM      1  N   UNL     1       0.455  11.708  21.519  0.00  0.00    +0.000 NA
ATOM      2  C   UNL     1       0.419  10.223  21.704  0.00  0.00    +0.000 C 
ATOM      3  C   UNL     1      -0.175   9.645  22.997  0.00  0.00    +0.000 C 
ATOM      4  C   UNL     1      -0.244   9.433  20.536  0.00  0.00    +0.000 C 
ATOM      5  N   UNL     1       0.257   9.762  19.188  0.00  0.00    +0.000 NA
ATOM      6  C   UNL     1       0.046  11.211  19.021  0.00  0.00    +0.000 C 
ATOM      7  C   UNL     1       0.735  12.099  20.104  0.00  0.00    +0.000 C 
ATOM      8  C   UNL     1       0.513  13.567  19.705  0.00  0.00    +0.000 C 
ENDROOT
BRANCH   1   9
ATOM      9  C   UNL     1      -0.521  12.524  22.245  0.00  0.00    +0.000 C 
BRANCH   9  10
ATOM     10  C   UNL     1      -1.953  12.396  21.676  0.00  0.00    +0.000 C 
BRANCH  10  14
ATOM     11  C   UNL     1      -4.831  14.924  23.653  0.00  0.00    +0.000 A 
ATOM     12  C   UNL     1      -4.141  13.928  24.365  0.00  0.00    +0.000 A 
ATOM     13  C   UNL     1      -3.192  13.119  23.740  0.00  0.00    +0.000 A 
ATOM     14  C   UNL     1      -2.958  13.267  22.381  0.00  0.00    +0.000 A 
ATOM     15  C   UNL     1      -3.705  14.199  21.650  0.00  0.00    +0.000 A 
ATOM     16  C   UNL     1      -4.654  15.026  22.267  0.00  0.00    +0.000 A 
BRANCH  11  18
ATOM     17  C   UNL     1      -5.090  16.992  24.761  0.00  0.00    +0.000 C 
ATOM     18  O   UNL     1      -5.688  15.775  24.297  0.00  0.00    +0.000 OA
ENDBRANCH  11  18
BRANCH  16  19
ATOM     19  O   UNL     1      -5.276  15.848  21.367  0.00  0.00    +0.000 OA
ATOM     20  C   UNL     1      -5.745  15.301  20.146  0.00  0.00    +0.000 C 
ENDBRANCH  16  19
ENDBRANCH  10  14
ENDBRANCH   9  10
ENDBRANCH   1   9
BRANCH   5  21
ATOM     21  C   UNL     1       1.679   9.424  18.992  0.00  0.00    +0.000 C 
BRANCH  21  22
ATOM     22  C   UNL     1       2.055   7.990  19.333  0.00  0.00    +0.000 C 
BRANCH  22  23
ATOM     23  C   UNL     1       2.085   7.041  18.124  0.00  0.00    +0.000 C 
BRANCH  23  24
ATOM     24  N   UNL     1       2.923   5.883  18.464  0.00  0.00    +0.000 N 
ATOM     25  C   UNL     1       2.395   4.660  18.844  0.00  0.00    +0.000 A 
ATOM     26  C   UNL     1       1.355   4.338  19.725  0.00  0.00    +0.000 A 
ATOM     27  C   UNL     1       0.993   2.989  19.830  0.00  0.00    +0.000 A 
ATOM     28  C   UNL     1       1.621   2.016  19.056  0.00  0.00    +0.000 A 
ATOM     29  C   UNL     1       2.614   2.362  18.132  0.00  0.00    +0.000 A 
ATOM     30  C   UNL     1       3.025   3.711  18.036  0.00  0.00    +0.000 A 
ATOM     31  C   UNL     1       3.971   4.408  17.222  0.00  0.00    +0.000 A 
ATOM     32  C   UNL     1       4.738   4.105  16.079  0.00  0.00    +0.000 A 
ATOM     33  C   UNL     1       5.661   5.048  15.608  0.00  0.00    +0.000 A 
ATOM     34  C   UNL     1       5.895   6.234  16.305  0.00  0.00    +0.000 A 
ATOM     35  C   UNL     1       5.113   6.579  17.407  0.00  0.00    +0.000 A 
ATOM     36  C   UNL     1       4.106   5.680  17.772  0.00  0.00    +0.000 A 
ENDBRANCH  23  24
ENDBRANCH  22  23
ENDBRANCH  21  22
ENDBRANCH   5  21
TORSDOF 9
ENDMDL
MODEL 7
REMARK VINA RESULT:      -7.8      1.605      2.719
REMARK  Name = 
REMARK  13 active torsions:
REMARK  status: ('A' for Active; 'I' for Inactive)
REMARK    1  A    between atoms: C_1  and  O_2
REMARK    2  A    between atoms: O_2  and  C_3
REMARK    3  A    between atoms: C_6  and  C_7
REMARK    4  A    between atoms: C_7  and  C_8
REMARK    5  A    between atoms: C_8  and  N_9
REMARK    6  A    between atoms: C_10  and  C_11
REMARK    7  A    between atoms: N_13  and  C_14
REMARK    8  A    between atoms: C_14  and  C_15
REMARK    9  A    between atoms: C_15  and  C_16
REMARK   10  A    between atoms: C_16  and  N_17
REMARK   11  A    between atoms: C_31  and  C_32
REMARK   12  A    between atoms: C_34  and  O_35
REMARK   13  A    between atoms: O_35  and  C_36
REMARK                            x       y       z     vdW  Elec       q    Type
REMARK                         _______ _______ _______ _____ _____    ______ ____
ROOT
ATOM      1  N   UNL     1      -0.610  11.863  18.297  0.00  0.00    +0.000 NA
ATOM      2  C   UNL     1       0.845  11.970  18.633  0.00  0.00    +0.000 C 
ATOM      3  C   UNL     1       1.391  13.297  19.181  0.00  0.00    +0.000 C 
ATOM      4  C   UNL     1       1.381  10.859  19.586  0.00  0.00    +0.000 C 
ATOM      5  N   UNL     1       1.054   9.477  19.189  0.00  0.00    +0.000 NA
ATOM      6  C   UNL     1      -0.415   9.419  19.097  0.00  0.00    +0.000 C 
ATOM      7  C   UNL     1      -1.048  10.447  18.108  0.00  0.00    +0.000 C 
ATOM      8  C   UNL     1      -2.558  10.162  18.051  0.00  0.00    +0.000 C 
ENDROOT
BRANCH   1   9
ATOM      9  C   UNL     1      -1.549  12.757  18.979  0.00  0.00    +0.000 C 
BRANCH   9  10
ATOM     10  C   UNL     1      -1.632  12.492  20.500  0.00  0.00    +0.000 C 
BRANCH  10  14
ATOM     11  C   UNL     1      -5.623  12.972  22.057  0.00  0.00    +0.000 A 
ATOM     12  C   UNL     1      -4.525  12.844  22.924  0.00  0.00    +0.000 A 
ATOM     13  C   UNL     1      -3.227  12.709  22.431  0.00  0.00    +0.000 A 
ATOM     14  C   UNL     1      -3.020  12.655  21.061  0.00  0.00    +0.000 A 
ATOM     15  C   UNL     1      -4.120  12.696  20.195  0.00  0.00    +0.000 A 
ATOM     16  C   UNL     1      -5.428  12.842  20.676  0.00  0.00    +0.000 A 
BRANCH  11  18
ATOM     17  C   UNL     1      -7.055  12.849  23.930  0.00  0.00    +0.000 C 
ATOM     18  O   UNL     1      -6.879  13.200  22.552  0.00  0.00    +0.000 OA
ENDBRANCH  11  18
BRANCH  16  19
ATOM     19  O   UNL     1      -6.347  12.843  19.662  0.00  0.00    +0.000 OA
ATOM     20  C   UNL     1      -7.102  11.669  19.416  0.00  0.00    +0.000 C 
ENDBRANCH  16  19
ENDBRANCH  10  14
ENDBRANCH   9  10
ENDBRANCH   1   9
BRANCH   5  21
ATOM     21  C   UNL     1       1.665   9.074  17.907  0.00  0.00    +0.000 C 
BRANCH  21  22
ATOM     22  C   UNL     1       2.589   7.868  17.983  0.00  0.00    +0.000 C 
BRANCH  22  23
ATOM     23  C   UNL     1       2.676   7.227  19.378  0.00  0.00    +0.000 C 
BRANCH  23  24
ATOM     24  N   UNL     1       3.231   5.875  19.232  0.00  0.00    +0.000 N 
ATOM     25  C   UNL     1       2.451   4.732  19.303  0.00  0.00    +0.000 A 
ATOM     26  C   UNL     1       1.429   4.365  20.188  0.00  0.00    +0.000 A 
ATOM     27  C   UNL     1       0.760   3.160  19.938  0.00  0.00    +0.000 A 
ATOM     28  C   UNL     1       1.077   2.382  18.826  0.00  0.00    +0.000 A 
ATOM     29  C   UNL     1       2.056   2.795  17.915  0.00  0.00    +0.000 A 
ATOM     30  C   UNL     1       2.773   3.986  18.167  0.00  0.00    +0.000 A 
ATOM     31  C   UNL     1       3.799   4.697  17.470  0.00  0.00    +0.000 A 
ATOM     32  C   UNL     1       4.386   4.627  16.191  0.00  0.00    +0.000 A 
ATOM     33  C   UNL     1       5.473   5.459  15.894  0.00  0.00    +0.000 A 
ATOM     34  C   UNL     1       6.037   6.280  16.871  0.00  0.00    +0.000 A 
ATOM     35  C   UNL     1       5.443   6.406  18.126  0.00  0.00    +0.000 A 
ATOM     36  C   UNL     1       4.277   5.666  18.349  0.00  0.00    +0.000 A 
ENDBRANCH  23  24
ENDBRANCH  22  23
ENDBRANCH  21  22
ENDBRANCH   5  21
TORSDOF 9
ENDMDL
MODEL 8
REMARK VINA RESULT:      -7.8      1.309      2.631
REMARK  Name = 
REMARK  13 active torsions:
REMARK  status: ('A' for Active; 'I' for Inactive)
REMARK    1  A    between atoms: C_1  and  O_2
REMARK    2  A    between atoms: O_2  and  C_3
REMARK    3  A    between atoms: C_6  and  C_7
REMARK    4  A    between atoms: C_7  and  C_8
REMARK    5  A    between atoms: C_8  and  N_9
REMARK    6  A    between atoms: C_10  and  C_11
REMARK    7  A    between atoms: N_13  and  C_14
REMARK    8  A    between atoms: C_14  and  C_15
REMARK    9  A    between atoms: C_15  and  C_16
REMARK   10  A    between atoms: C_16  and  N_17
REMARK   11  A    between atoms: C_31  and  C_32
REMARK   12  A    between atoms: C_34  and  O_35
REMARK   13  A    between atoms: O_35  and  C_36
REMARK                            x       y       z     vdW  Elec       q    Type
REMARK                         _______ _______ _______ _____ _____    ______ ____
ROOT
ATOM      1  N   UNL     1       0.840  11.408  21.147  0.00  0.00    +0.000 NA
ATOM      2  C   UNL     1       0.458   9.993  20.843  0.00  0.00    +0.000 C 
ATOM      3  C   UNL     1      -0.539   9.274  21.765  0.00  0.00    +0.000 C 
ATOM      4  C   UNL     1      -0.047   9.747  19.390  0.00  0.00    +0.000 C 
ATOM      5  N   UNL     1       0.824  10.274  18.323  0.00  0.00    +0.000 NA
ATOM      6  C   UNL     1       0.961  11.717  18.588  0.00  0.00    +0.000 C 
ATOM      7  C   UNL     1       1.531  12.070  19.998  0.00  0.00    +0.000 C 
ATOM      8  C   UNL     1       1.716  13.595  20.051  0.00  0.00    +0.000 C 
ENDROOT
BRANCH   1   9
ATOM      9  C   UNL     1      -0.097  12.233  21.913  0.00  0.00    +0.000 C 
BRANCH   9  10
ATOM     10  C   UNL     1      -1.292  12.729  21.067  0.00  0.00    +0.000 C 
BRANCH  10  14
ATOM     11  C   UNL     1      -4.835  13.415  23.425  0.00  0.00    +0.000 A 
ATOM     12  C   UNL     1      -4.926  12.855  22.139  0.00  0.00    +0.000 A 
ATOM     13  C   UNL     1      -3.784  12.609  21.377  0.00  0.00    +0.000 A 
ATOM     14  C   UNL     1      -2.540  12.966  21.876  0.00  0.00    +0.000 A 
ATOM     15  C   UNL     1      -2.453  13.603  23.120  0.00  0.00    +0.000 A 
ATOM     16  C   UNL     1      -3.590  13.846  23.901  0.00  0.00    +0.000 A 
BRANCH  11  18
ATOM     17  C   UNL     1      -7.148  13.887  23.480  0.00  0.00    +0.000 C 
ATOM     18  O   UNL     1      -5.953  13.562  24.202  0.00  0.00    +0.000 OA
ENDBRANCH  11  18
BRANCH  16  19
ATOM     19  O   UNL     1      -3.279  14.490  25.068  0.00  0.00    +0.000 OA
ATOM     20  C   UNL     1      -3.248  15.906  25.085  0.00  0.00    +0.000 C 
ENDBRANCH  16  19
ENDBRANCH  10  14
ENDBRANCH   9  10
ENDBRANCH   1   9
BRANCH   5  21
ATOM     21  C   UNL     1       2.152   9.633  18.278  0.00  0.00    +0.000 C 
BRANCH  21  22
ATOM     22  C   UNL     1       2.169   8.225  17.701  0.00  0.00    +0.000 C 
BRANCH  22  23
ATOM     23  C   UNL     1       2.759   7.164  18.644  0.00  0.00    +0.000 C 
BRANCH  23  24
ATOM     24  N   UNL     1       3.394   6.120  17.828  0.00  0.00    +0.000 N 
ATOM     25  C   UNL     1       4.761   6.062  17.614  0.00  0.00    +0.000 A 
ATOM     26  C   UNL     1       5.689   7.063  17.299  0.00  0.00    +0.000 A 
ATOM     27  C   UNL     1       7.038   6.695  17.233  0.00  0.00    +0.000 A 
ATOM     28  C   UNL     1       7.440   5.391  17.512  0.00  0.00    +0.000 A 
ATOM     29  C   UNL     1       6.508   4.416  17.889  0.00  0.00    +0.000 A 
ATOM     30  C   UNL     1       5.136   4.753  17.923  0.00  0.00    +0.000 A 
ATOM     31  C   UNL     1       3.944   4.040  18.264  0.00  0.00    +0.000 A 
ATOM     32  C   UNL     1       3.645   2.805  18.871  0.00  0.00    +0.000 A 
ATOM     33  C   UNL     1       2.309   2.389  18.949  0.00  0.00    +0.000 A 
ATOM     34  C   UNL     1       1.290   3.135  18.355  0.00  0.00    +0.000 A 
ATOM     35  C   UNL     1       1.554   4.385  17.796  0.00  0.00    +0.000 A 
ATOM     36  C   UNL     1       2.877   4.835  17.855  0.00  0.00    +0.000 A 
ENDBRANCH  23  24
ENDBRANCH  22  23
ENDBRANCH  21  22
ENDBRANCH   5  21
TORSDOF 9
ENDMDL
MODEL 9
REMARK VINA RESULT:      -7.8      3.367      5.357
REMARK  Name = 
REMARK  13 active torsions:
REMARK  status: ('A' for Active; 'I' for Inactive)
REMARK    1  A    between atoms: C_1  and  O_2
REMARK    2  A    between atoms: O_2  and  C_3
REMARK    3  A    between atoms: C_6  and  C_7
REMARK    4  A    between atoms: C_7  and  C_8
REMARK    5  A    between atoms: C_8  and  N_9
REMARK    6  A    between atoms: C_10  and  C_11
REMARK    7  A    between atoms: N_13  and  C_14
REMARK    8  A    between atoms: C_14  and  C_15
REMARK    9  A    between atoms: C_15  and  C_16
REMARK   10  A    between atoms: C_16  and  N_17
REMARK   11  A    between atoms: C_31  and  C_32
REMARK   12  A    between atoms: C_34  and  O_35
REMARK   13  A    between atoms: O_35  and  C_36
REMARK                            x       y       z     vdW  Elec       q    Type
REMARK                         _______ _______ _______ _____ _____    ______ ____
ROOT
ATOM      1  N   UNL     1       0.798  12.454  20.540  0.00  0.00    +0.000 NA
ATOM      2  C   UNL     1       0.142  11.476  21.465  0.00  0.00    +0.000 C 
ATOM      3  C   UNL     1      -0.933  11.976  22.441  0.00  0.00    +0.000 C 
ATOM      4  C   UNL     1      -0.461  10.218  20.770  0.00  0.00    +0.000 C 
ATOM      5  N   UNL     1       0.449   9.510  19.849  0.00  0.00    +0.000 NA
ATOM      6  C   UNL     1       0.867  10.507  18.848  0.00  0.00    +0.000 C 
ATOM      7  C   UNL     1       1.552  11.779  19.440  0.00  0.00    +0.000 C 
ATOM      8  C   UNL     1       2.025  12.639  18.258  0.00  0.00    +0.000 C 
ENDROOT
BRANCH   1   9
ATOM      9  C   UNL     1       0.067  13.673  20.184  0.00  0.00    +0.000 C 
BRANCH   9  10
ATOM     10  C   UNL     1       0.563  14.917  20.956  0.00  0.00    +0.000 C 
BRANCH  10  14
ATOM     11  C   UNL     1       4.057  16.717  19.186  0.00  0.00    +0.000 A 
ATOM     12  C   UNL     1       4.135  16.074  20.433  0.00  0.00    +0.000 A 
ATOM     13  C   UNL     1       3.015  15.469  21.005  0.00  0.00    +0.000 A 
ATOM     14  C   UNL     1       1.793  15.544  20.354  0.00  0.00    +0.000 A 
ATOM     15  C   UNL     1       1.693  16.258  19.154  0.00  0.00    +0.000 A 
ATOM     16  C   UNL     1       2.811  16.860  18.563  0.00  0.00    +0.000 A 
BRANCH  11  18
ATOM     17  C   UNL     1       6.415  16.671  19.071  0.00  0.00    +0.000 C 
ATOM     18  O   UNL     1       5.182  17.221  18.590  0.00  0.00    +0.000 OA
ENDBRANCH  11  18
BRANCH  16  19
ATOM     19  O   UNL     1       2.486  17.516  17.406  0.00  0.00    +0.000 OA
ATOM     20  C   UNL     1       1.194  18.084  17.278  0.00  0.00    +0.000 C 
ENDBRANCH  16  19
ENDBRANCH  10  14
ENDBRANCH   9  10
ENDBRANCH   1   9
BRANCH   5  21
ATOM     21  C   UNL     1       1.628   8.930  20.520  0.00  0.00    +0.000 C 
BRANCH  21  22
ATOM     22  C   UNL     1       1.865   7.453  20.243  0.00  0.00    +0.000 C 
BRANCH  22  23
ATOM     23  C   UNL     1       2.456   7.158  18.856  0.00  0.00    +0.000 C 
BRANCH  23  24
ATOM     24  N   UNL     1       3.137   5.857  18.909  0.00  0.00    +0.000 N 
ATOM     25  C   UNL     1       2.461   4.664  19.102  0.00  0.00    +0.000 A 
ATOM     26  C   UNL     1       1.437   4.317  19.992  0.00  0.00    +0.000 A 
ATOM     27  C   UNL     1       0.892   3.032  19.880  0.00  0.00    +0.000 A 
ATOM     28  C   UNL     1       1.328   2.152  18.892  0.00  0.00    +0.000 A 
ATOM     29  C   UNL     1       2.307   2.536  17.968  0.00  0.00    +0.000 A 
ATOM     30  C   UNL     1       2.901   3.813  18.086  0.00  0.00    +0.000 A 
ATOM     31  C   UNL     1       3.891   4.524  17.336  0.00  0.00    +0.000 A 
ATOM     32  C   UNL     1       4.539   4.347  16.099  0.00  0.00    +0.000 A 
ATOM     33  C   UNL     1       5.560   5.234  15.732  0.00  0.00    +0.000 A 
ATOM     34  C   UNL     1       6.001   6.224  16.611  0.00  0.00    +0.000 A 
ATOM     35  C   UNL     1       5.341   6.451  17.818  0.00  0.00    +0.000 A 
ATOM     36  C   UNL     1       4.237   5.638  18.096  0.00  0.00    +0.000 A 
ENDBRANCH  23  24
ENDBRANCH  22  23
ENDBRANCH  21  22
ENDBRANCH   5  21
TORSDOF 9
ENDMDL
