MODEL 1
REMARK VINA RESULT:      -7.5      0.000      0.000
REMARK  Name = 
REMARK  3 active torsions:
REMARK  status: ('A' for Active; 'I' for Inactive)
REMARK    1  A    between atoms: C_2  and  C_11
REMARK    2  A    between atoms: N_3  and  C_4
REMARK    3  A    between atoms: C_4  and  C_5
REMARK                            x       y       z     vdW  Elec       q    Type
REMARK                         _______ _______ _______ _____ _____    ______ ____
ROOT
ATOM      1  C   UNL     1       1.284   9.777  18.613  0.00  0.00    +0.000 C 
ATOM      2  N   UNL     1       1.706  11.000  18.684  0.00  0.00    +0.000 NA
ATOM      3  O   UNL     1       0.583  11.793  19.035  0.00  0.00    +0.000 OA
ATOM      4  C   UNL     1      -0.486  10.916  19.448  0.00  0.00    +0.000 C 
ATOM      5  C   UNL     1      -1.810  11.456  18.927  0.00  0.00    +0.000 C 
ATOM      6  C   UNL     1      -2.201  12.486  19.968  0.00  0.00    +0.000 C 
ATOM      7  N   UNL     1      -1.701  11.968  21.226  0.00  0.00    +0.000 N 
ATOM      8  C   UNL     1      -1.836  12.474  22.498  0.00  0.00    +0.000 C 
ATOM      9  O   UNL     1      -1.165  11.997  23.419  0.00  0.00    +0.000 OA
ATOM     10  N   UNL     1      -2.700  13.514  22.737  0.00  0.00    +0.000 N 
ATOM     11  C   UNL     1      -2.696  14.179  24.031  0.00  0.00    +0.000 C 
ATOM     12  C   UNL     1      -4.112  14.701  24.199  0.00  0.00    +0.000 C 
ATOM     13  C   UNL     1      -4.534  15.038  22.780  0.00  0.00    +0.000 C 
ATOM     14  C   UNL     1      -3.786  14.029  21.918  0.00  0.00    +0.000 C 
ATOM     15  C   UNL     1      -0.648  10.978  20.975  0.00  0.00    +0.000 C 
ATOM     16  C   UNL     1      -0.152   9.559  18.877  0.00  0.00    +0.000 C 
ENDROOT
BRANCH   1  18
ATOM     17  O   UNL     1       2.617   8.605  17.074  0.00  0.00    +0.000 OA
ATOM     18  C   UNL     1       2.152   8.620  18.203  0.00  0.00    +0.000 C 
ATOM     19  N   UNL     1       2.335   7.654  19.162  0.00  0.00    +0.000 N 
ATOM     20  H   UNL     1       1.790   7.731  20.016  0.00  0.00    +0.000 HD
BRANCH  19  21
ATOM     21  C   UNL     1       3.045   6.437  18.853  0.00  0.00    +0.000 C 
BRANCH  21  22
ATOM     22  C   UNL     1       2.203   5.215  19.058  0.00  0.00    +0.000 A 
ATOM     23  C   UNL     1       1.815   4.797  20.334  0.00  0.00    +0.000 A 
ATOM     24  C   UNL     1       1.082   3.623  20.485  0.00  0.00    +0.000 A 
ATOM     25  C   UNL     1       0.760   2.901  19.348  0.00  0.00    +0.000 A 
ATOM     26  N   UNL     1       1.116   3.270  18.101  0.00  0.00    +0.000 NA
ATOM     27  C   UNL     1       1.831   4.412  17.984  0.00  0.00    +0.000 A 
ENDBRANCH  21  22
ENDBRANCH  19  21
ENDBRANCH   1  18
TORSDOF 3
ENDMDL
MODEL 2
REMARK VINA RESULT:      -7.5      3.209      3.859
REMARK  Name = 
REMARK  3 active torsions:
REMARK  status: ('A' for Active; 'I' for Inactive)
REMARK    1  A    between atoms: C_2  and  C_11
REMARK    2  A    between atoms: N_3  and  C_4
REMARK    3  A    between atoms: C_4  and  C_5
REMARK                            x       y       z     vdW  Elec       q    Type
REMARK                         _______ _______ _______ _____ _____    ______ ____
ROOT
ATOM      1  C   UNL     1       1.029   9.441  19.647  0.00  0.00    +0.000 C 
ATOM      2  N   UNL     1       0.808   9.703  18.397  0.00  0.00    +0.000 NA
ATOM      3  O   UNL     1       0.216  10.992  18.356  0.00  0.00    +0.000 OA
ATOM      4  C   UNL     1       0.360  11.604  19.655  0.00  0.00    +0.000 C 
ATOM      5  C   UNL     1      -0.906  12.378  19.991  0.00  0.00    +0.000 C 
ATOM      6  C   UNL     1      -0.696  13.710  19.297  0.00  0.00    +0.000 C 
ATOM      7  N   UNL     1       0.732  13.954  19.362  0.00  0.00    +0.000 N 
ATOM      8  C   UNL     1       1.454  15.046  18.941  0.00  0.00    +0.000 C 
ATOM      9  O   UNL     1       2.687  14.983  18.898  0.00  0.00    +0.000 OA
ATOM     10  N   UNL     1       0.805  16.194  18.558  0.00  0.00    +0.000 N 
ATOM     11  C   UNL     1       1.550  17.273  17.926  0.00  0.00    +0.000 C 
ATOM     12  C   UNL     1       0.781  18.532  18.284  0.00  0.00    +0.000 C 
ATOM     13  C   UNL     1      -0.662  18.061  18.335  0.00  0.00    +0.000 C 
ATOM     14  C   UNL     1      -0.566  16.613  18.798  0.00  0.00    +0.000 C 
ATOM     15  C   UNL     1       1.443  12.694  19.599  0.00  0.00    +0.000 C 
ATOM     16  C   UNL     1       0.617  10.472  20.620  0.00  0.00    +0.000 C 
ENDROOT
BRANCH   1  18
ATOM     17  O   UNL     1       1.400   7.810  21.297  0.00  0.00    +0.000 OA
ATOM     18  C   UNL     1       1.592   8.135  20.137  0.00  0.00    +0.000 C 
ATOM     19  N   UNL     1       2.300   7.416  19.205  0.00  0.00    +0.000 N 
ATOM     20  H   UNL     1       2.488   7.860  18.311  0.00  0.00    +0.000 HD
BRANCH  19  21
ATOM     21  C   UNL     1       2.992   6.208  19.582  0.00  0.00    +0.000 C 
BRANCH  21  22
ATOM     22  C   UNL     1       2.183   4.977  19.315  0.00  0.00    +0.000 A 
ATOM     23  C   UNL     1       1.513   4.302  20.341  0.00  0.00    +0.000 A 
ATOM     24  C   UNL     1       0.819   3.128  20.060  0.00  0.00    +0.000 A 
ATOM     25  C   UNL     1       0.818   2.663  18.756  0.00  0.00    +0.000 A 
ATOM     26  N   UNL     1       1.451   3.283  17.739  0.00  0.00    +0.000 NA
ATOM     27  C   UNL     1       2.121   4.420  18.041  0.00  0.00    +0.000 A 
ENDBRANCH  21  22
ENDBRANCH  19  21
ENDBRANCH   1  18
TORSDOF 3
ENDMDL
MODEL 3
REMARK VINA RESULT:      -7.3      2.500      9.083
REMARK  Name = 
REMARK  3 active torsions:
REMARK  status: ('A' for Active; 'I' for Inactive)
REMARK    1  A    between atoms: C_2  and  C_11
REMARK    2  A    between atoms: N_3  and  C_4
REMARK    3  A    between atoms: C_4  and  C_5
REMARK                            x       y       z     vdW  Elec       q    Type
REMARK                         _______ _______ _______ _____ _____    ______ ____
ROOT
ATOM      1  C   UNL     1      -1.124  11.279  19.620  0.00  0.00    +0.000 C 
ATOM      2  N   UNL     1      -1.593  10.448  18.742  0.00  0.00    +0.000 NA
ATOM      3  O   UNL     1      -0.470   9.804  18.161  0.00  0.00    +0.000 OA
ATOM      4  C   UNL     1       0.694  10.106  18.957  0.00  0.00    +0.000 C 
ATOM      5  C   UNL     1       1.889  10.324  18.040  0.00  0.00    +0.000 C 
ATOM      6  C   UNL     1       2.388   8.918  17.774  0.00  0.00    +0.000 C 
ATOM      7  N   UNL     1       2.122   8.180  18.993  0.00  0.00    +0.000 N 
ATOM      8  C   UNL     1       2.431   6.879  19.316  0.00  0.00    +0.000 C 
ATOM      9  O   UNL     1       1.942   6.368  20.328  0.00  0.00    +0.000 OA
ATOM     10  N   UNL     1       3.268   6.150  18.507  0.00  0.00    +0.000 N 
ATOM     11  C   UNL     1       3.436   4.723  18.735  0.00  0.00    +0.000 C 
ATOM     12  C   UNL     1       4.831   4.414  18.223  0.00  0.00    +0.000 C 
ATOM     13  C   UNL     1       5.004   5.380  17.064  0.00  0.00    +0.000 C 
ATOM     14  C   UNL     1       4.181   6.597  17.468  0.00  0.00    +0.000 C 
ATOM     15  C   UNL     1       1.095   8.870  19.781  0.00  0.00    +0.000 C 
ATOM     16  C   UNL     1       0.345  11.340  19.753  0.00  0.00    +0.000 C 
ENDROOT
BRANCH   1  18
ATOM     17  O   UNL     1      -1.652  12.487  21.565  0.00  0.00    +0.000 OA
ATOM     18  C   UNL     1      -1.985  12.215  20.423  0.00  0.00    +0.000 C 
ATOM     19  N   UNL     1      -3.105  12.681  19.777  0.00  0.00    +0.000 N 
ATOM     20  H   UNL     1      -3.327  12.278  18.872  0.00  0.00    +0.000 HD
BRANCH  19  21
ATOM     21  C   UNL     1      -4.074  13.487  20.478  0.00  0.00    +0.000 C 
BRANCH  21  22
ATOM     22  C   UNL     1      -5.329  12.732  20.790  0.00  0.00    +0.000 A 
ATOM     23  C   UNL     1      -6.039  12.048  19.799  0.00  0.00    +0.000 A 
ATOM     24  C   UNL     1      -7.233  11.406  20.120  0.00  0.00    +0.000 A 
ATOM     25  C   UNL     1      -7.682  11.472  21.428  0.00  0.00    +0.000 A 
ATOM     26  N   UNL     1      -7.027  12.123  22.412  0.00  0.00    +0.000 NA
ATOM     27  C   UNL     1      -5.872  12.740  22.072  0.00  0.00    +0.000 A 
ENDBRANCH  21  22
ENDBRANCH  19  21
ENDBRANCH   1  18
TORSDOF 3
ENDMDL
MODEL 4
REMARK VINA RESULT:      -7.3      2.043      9.105
REMARK  Name = 
REMARK  3 active torsions:
REMARK  status: ('A' for Active; 'I' for Inactive)
REMARK    1  A    between atoms: C_2  and  C_11
REMARK    2  A    between atoms: N_3  and  C_4
REMARK    3  A    between atoms: C_4  and  C_5
REMARK                            x       y       z     vdW  Elec       q    Type
REMARK                         _______ _______ _______ _____ _____    ______ ____
ROOT
ATOM      1  C   UNL     1      -0.593  11.405  19.853  0.00  0.00    +0.000 C 
ATOM      2  N   UNL     1      -1.262  10.586  19.104  0.00  0.00    +0.000 NA
ATOM      3  O   UNL     1      -0.304   9.769  18.449  0.00  0.00    +0.000 OA
ATOM      4  C   UNL     1       0.978   9.971  19.079  0.00  0.00    +0.000 C 
ATOM      5  C   UNL     1       2.066   9.978  18.016  0.00  0.00    +0.000 C 
ATOM      6  C   UNL     1       2.359   8.506  17.805  0.00  0.00    +0.000 C 
ATOM      7  N   UNL     1       2.162   7.887  19.102  0.00  0.00    +0.000 N 
ATOM      8  C   UNL     1       2.354   6.581  19.487  0.00  0.00    +0.000 C 
ATOM      9  O   UNL     1       1.938   6.201  20.587  0.00  0.00    +0.000 OA
ATOM     10  N   UNL     1       2.993   5.702  18.648  0.00  0.00    +0.000 N 
ATOM     11  C   UNL     1       3.019   4.282  18.966  0.00  0.00    +0.000 C 
ATOM     12  C   UNL     1       4.293   3.767  18.322  0.00  0.00    +0.000 C 
ATOM     13  C   UNL     1       4.432   4.628  17.079  0.00  0.00    +0.000 C 
ATOM     14  C   UNL     1       3.815   5.963  17.478  0.00  0.00    +0.000 C 
ATOM     15  C   UNL     1       1.330   8.751  19.946  0.00  0.00    +0.000 C 
ATOM     16  C   UNL     1       0.878  11.288  19.810  0.00  0.00    +0.000 C 
ENDROOT
BRANCH   1  18
ATOM     17  O   UNL     1      -1.340  13.607  20.190  0.00  0.00    +0.000 OA
ATOM     18  C   UNL     1      -1.232  12.492  20.674  0.00  0.00    +0.000 C 
ATOM     19  N   UNL     1      -1.634  12.117  21.932  0.00  0.00    +0.000 N 
ATOM     20  H   UNL     1      -1.372  11.190  22.253  0.00  0.00    +0.000 HD
BRANCH  19  21
ATOM     21  C   UNL     1      -2.149  13.094  22.860  0.00  0.00    +0.000 C 
BRANCH  21  22
ATOM     22  C   UNL     1      -3.608  12.905  23.141  0.00  0.00    +0.000 A 
ATOM     23  C   UNL     1      -4.589  13.326  22.237  0.00  0.00    +0.000 A 
ATOM     24  C   UNL     1      -5.936  13.185  22.561  0.00  0.00    +0.000 A 
ATOM     25  C   UNL     1      -6.260  12.626  23.786  0.00  0.00    +0.000 A 
ATOM     26  N   UNL     1      -5.344  12.210  24.685  0.00  0.00    +0.000 NA
ATOM     27  C   UNL     1      -4.043  12.362  24.345  0.00  0.00    +0.000 A 
ENDBRANCH  21  22
ENDBRANCH  19  21
ENDBRANCH   1  18
TORSDOF 3
ENDMDL
MODEL 5
REMARK VINA RESULT:      -7.2      2.767      8.922
REMARK  Name = 
REMARK  3 active torsions:
REMARK  status: ('A' for Active; 'I' for Inactive)
REMARK    1  A    between atoms: C_2  and  C_11
REMARK    2  A    between atoms: N_3  and  C_4
REMARK    3  A    between atoms: C_4  and  C_5
REMARK                            x       y       z     vdW  Elec       q    Type
REMARK                         _______ _______ _______ _____ _____    ______ ____
ROOT
ATOM      1  C   UNL     1      -1.185  11.253  19.173  0.00  0.00    +0.000 C 
ATOM      2  N   UNL     1      -1.600  10.332  18.361  0.00  0.00    +0.000 NA
ATOM      3  O   UNL     1      -0.446   9.631  17.926  0.00  0.00    +0.000 OA
ATOM      4  C   UNL     1       0.667  10.020  18.758  0.00  0.00    +0.000 C 
ATOM      5  C   UNL     1       1.919  10.142  17.901  0.00  0.00    +0.000 C 
ATOM      6  C   UNL     1       2.428   8.716  17.820  0.00  0.00    +0.000 C 
ATOM      7  N   UNL     1       2.081   8.113  19.093  0.00  0.00    +0.000 N 
ATOM      8  C   UNL     1       2.364   6.856  19.572  0.00  0.00    +0.000 C 
ATOM      9  O   UNL     1       1.809   6.455  20.600  0.00  0.00    +0.000 OA
ATOM     10  N   UNL     1       3.248   6.046  18.902  0.00  0.00    +0.000 N 
ATOM     11  C   UNL     1       3.395   4.652  19.292  0.00  0.00    +0.000 C 
ATOM     12  C   UNL     1       4.819   4.294  18.907  0.00  0.00    +0.000 C 
ATOM     13  C   UNL     1       5.069   5.131  17.665  0.00  0.00    +0.000 C 
ATOM     14  C   UNL     1       4.227   6.381  17.882  0.00  0.00    +0.000 C 
ATOM     15  C   UNL     1       1.009   8.882  19.734  0.00  0.00    +0.000 C 
ATOM     16  C   UNL     1       0.272  11.332  19.392  0.00  0.00    +0.000 C 
ENDROOT
BRANCH   1  18
ATOM     17  O   UNL     1      -1.639  12.998  20.679  0.00  0.00    +0.000 OA
ATOM     18  C   UNL     1      -2.092  12.268  19.813  0.00  0.00    +0.000 C 
ATOM     19  N   UNL     1      -3.387  12.268  19.356  0.00  0.00    +0.000 N 
ATOM     20  H   UNL     1      -3.662  11.525  18.721  0.00  0.00    +0.000 HD
BRANCH  19  21
ATOM     21  C   UNL     1      -4.384  13.108  19.974  0.00  0.00    +0.000 C 
BRANCH  21  22
ATOM     22  C   UNL     1      -5.637  12.360  20.310  0.00  0.00    +0.000 A 
ATOM     23  C   UNL     1      -6.383  12.655  21.455  0.00  0.00    +0.000 A 
ATOM     24  C   UNL     1      -7.510  11.897  21.762  0.00  0.00    +0.000 A 
ATOM     25  C   UNL     1      -7.855  10.861  20.910  0.00  0.00    +0.000 A 
ATOM     26  N   UNL     1      -7.161  10.543  19.798  0.00  0.00    +0.000 NA
ATOM     27  C   UNL     1      -6.069  11.294  19.526  0.00  0.00    +0.000 A 
ENDBRANCH  21  22
ENDBRANCH  19  21
ENDBRANCH   1  18
TORSDOF 3
ENDMDL
MODEL 6
REMARK VINA RESULT:      -7.2      1.756      2.229
REMARK  Name = 
REMARK  3 active torsions:
REMARK  status: ('A' for Active; 'I' for Inactive)
REMARK    1  A    between atoms: C_2  and  C_11
REMARK    2  A    between atoms: N_3  and  C_4
REMARK    3  A    between atoms: C_4  and  C_5
REMARK                            x       y       z     vdW  Elec       q    Type
REMARK                         _______ _______ _______ _____ _____    ______ ____
ROOT
ATOM      1  C   UNL     1       1.044   9.286  19.834  0.00  0.00    +0.000 C 
ATOM      2  N   UNL     1       0.392   9.060  20.931  0.00  0.00    +0.000 NA
ATOM      3  O   UNL     1      -0.244  10.280  21.278  0.00  0.00    +0.000 OA
ATOM      4  C   UNL     1      -0.156  11.178  20.152  0.00  0.00    +0.000 C 
ATOM      5  C   UNL     1       0.103  12.591  20.654  0.00  0.00    +0.000 C 
ATOM      6  C   UNL     1      -1.283  13.099  21.000  0.00  0.00    +0.000 C 
ATOM      7  N   UNL     1      -2.171  12.472  20.040  0.00  0.00    +0.000 N 
ATOM      8  C   UNL     1      -3.525  12.634  19.864  0.00  0.00    +0.000 C 
ATOM      9  O   UNL     1      -4.142  11.860  19.124  0.00  0.00    +0.000 OA
ATOM     10  N   UNL     1      -4.189  13.643  20.518  0.00  0.00    +0.000 N 
ATOM     11  C   UNL     1      -5.642  13.692  20.491  0.00  0.00    +0.000 C 
ATOM     12  C   UNL     1      -5.980  15.165  20.641  0.00  0.00    +0.000 C 
ATOM     13  C   UNL     1      -4.868  15.692  21.531  0.00  0.00    +0.000 C 
ATOM     14  C   UNL     1      -3.665  14.829  21.176  0.00  0.00    +0.000 C 
ATOM     15  C   UNL     1      -1.527  11.287  19.465  0.00  0.00    +0.000 C 
ATOM     16  C   UNL     1       0.970  10.656  19.292  0.00  0.00    +0.000 C 
ENDROOT
BRANCH   1  18
ATOM     17  O   UNL     1       2.163   8.394  17.970  0.00  0.00    +0.000 OA
ATOM     18  C   UNL     1       1.914   8.262  19.158  0.00  0.00    +0.000 C 
ATOM     19  N   UNL     1       2.351   7.239  19.964  0.00  0.00    +0.000 N 
ATOM     20  H   UNL     1       1.969   7.184  20.903  0.00  0.00    +0.000 HD
BRANCH  19  21
ATOM     21  C   UNL     1       3.090   6.132  19.409  0.00  0.00    +0.000 C 
BRANCH  21  22
ATOM     22  C   UNL     1       2.247   4.905  19.243  0.00  0.00    +0.000 A 
ATOM     23  C   UNL     1       1.612   4.299  20.331  0.00  0.00    +0.000 A 
ATOM     24  C   UNL     1       0.884   3.127  20.144  0.00  0.00    +0.000 A 
ATOM     25  C   UNL     1       0.817   2.594  18.868  0.00  0.00    +0.000 A 
ATOM     26  N   UNL     1       1.416   3.147  17.793  0.00  0.00    +0.000 NA
ATOM     27  C   UNL     1       2.119   4.283  18.005  0.00  0.00    +0.000 A 
ENDBRANCH  21  22
ENDBRANCH  19  21
ENDBRANCH   1  18
TORSDOF 3
ENDMDL
MODEL 7
REMARK VINA RESULT:      -7.2      2.051      8.879
REMARK  Name = 
REMARK  3 active torsions:
REMARK  status: ('A' for Active; 'I' for Inactive)
REMARK    1  A    between atoms: C_2  and  C_11
REMARK    2  A    between atoms: N_3  and  C_4
REMARK    3  A    between atoms: C_4  and  C_5
REMARK                            x       y       z     vdW  Elec       q    Type
REMARK                         _______ _______ _______ _____ _____    ______ ____
ROOT
ATOM      1  C   UNL     1      -0.896  11.680  19.186  0.00  0.00    +0.000 C 
ATOM      2  N   UNL     1      -1.437  10.759  18.453  0.00  0.00    +0.000 NA
ATOM      3  O   UNL     1      -0.383   9.907  18.035  0.00  0.00    +0.000 OA
ATOM      4  C   UNL     1       0.795  10.223  18.807  0.00  0.00    +0.000 C 
ATOM      5  C   UNL     1       2.021  10.148  17.910  0.00  0.00    +0.000 C 
ATOM      6  C   UNL     1       2.368   8.672  17.914  0.00  0.00    +0.000 C 
ATOM      7  N   UNL     1       2.002   8.196  19.234  0.00  0.00    +0.000 N 
ATOM      8  C   UNL     1       2.162   6.949  19.791  0.00  0.00    +0.000 C 
ATOM      9  O   UNL     1       1.602   6.681  20.859  0.00  0.00    +0.000 OA
ATOM     10  N   UNL     1       2.928   6.003  19.155  0.00  0.00    +0.000 N 
ATOM     11  C   UNL     1       2.935   4.631  19.635  0.00  0.00    +0.000 C 
ATOM     12  C   UNL     1       4.296   4.091  19.237  0.00  0.00    +0.000 C 
ATOM     13  C   UNL     1       4.593   4.811  17.934  0.00  0.00    +0.000 C 
ATOM     14  C   UNL     1       3.902   6.160  18.087  0.00  0.00    +0.000 C 
ATOM     15  C   UNL     1       1.044   9.120  19.849  0.00  0.00    +0.000 C 
ATOM     16  C   UNL     1       0.568  11.609  19.360  0.00  0.00    +0.000 C 
ENDROOT
BRANCH   1  18
ATOM     17  O   UNL     1      -1.051  13.821  20.142  0.00  0.00    +0.000 OA
ATOM     18  C   UNL     1      -1.663  12.829  19.780  0.00  0.00    +0.000 C 
ATOM     19  N   UNL     1      -3.021  12.643  19.870  0.00  0.00    +0.000 N 
ATOM     20  H   UNL     1      -3.386  11.723  19.646  0.00  0.00    +0.000 HD
BRANCH  19  21
ATOM     21  C   UNL     1      -3.853  13.619  20.531  0.00  0.00    +0.000 C 
BRANCH  21  22
ATOM     22  C   UNL     1      -4.235  13.202  21.918  0.00  0.00    +0.000 A 
ATOM     23  C   UNL     1      -3.276  13.027  22.921  0.00  0.00    +0.000 A 
ATOM     24  C   UNL     1      -3.667  12.582  24.182  0.00  0.00    +0.000 A 
ATOM     25  C   UNL     1      -5.010  12.324  24.399  0.00  0.00    +0.000 A 
ATOM     26  N   UNL     1      -5.964  12.479  23.458  0.00  0.00    +0.000 NA
ATOM     27  C   UNL     1      -5.556  12.909  22.241  0.00  0.00    +0.000 A 
ENDBRANCH  21  22
ENDBRANCH  19  21
ENDBRANCH   1  18
TORSDOF 3
ENDMDL
MODEL 8
REMARK VINA RESULT:      -7.2      2.456      3.617
REMARK  Name = 
REMARK  3 active torsions:
REMARK  status: ('A' for Active; 'I' for Inactive)
REMARK    1  A    between atoms: C_2  and  C_11
REMARK    2  A    between atoms: N_3  and  C_4
REMARK    3  A    between atoms: C_4  and  C_5
REMARK                            x       y       z     vdW  Elec       q    Type
REMARK                         _______ _______ _______ _____ _____    ______ ____
ROOT
ATOM      1  C   UNL     1       1.632   8.921  18.885  0.00  0.00    +0.000 C 
ATOM      2  N   UNL     1       1.016   8.553  19.964  0.00  0.00    +0.000 NA
ATOM      3  O   UNL     1       0.336   9.700  20.449  0.00  0.00    +0.000 OA
ATOM      4  C   UNL     1       0.359  10.713  19.422  0.00  0.00    +0.000 C 
ATOM      5  C   UNL     1       0.568  12.077  20.065  0.00  0.00    +0.000 C 
ATOM      6  C   UNL     1      -0.830  12.482  20.488  0.00  0.00    +0.000 C 
ATOM      7  N   UNL     1      -1.712  11.919  19.484  0.00  0.00    +0.000 N 
ATOM      8  C   UNL     1      -3.076  12.037  19.351  0.00  0.00    +0.000 C 
ATOM      9  O   UNL     1      -3.675  11.317  18.546  0.00  0.00    +0.000 OA
ATOM     10  N   UNL     1      -3.767  12.941  20.120  0.00  0.00    +0.000 N 
ATOM     11  C   UNL     1      -5.222  12.927  20.126  0.00  0.00    +0.000 C 
ATOM     12  C   UNL     1      -5.619  14.359  20.435  0.00  0.00    +0.000 C 
ATOM     13  C   UNL     1      -4.510  14.840  21.355  0.00  0.00    +0.000 C 
ATOM     14  C   UNL     1      -3.279  14.074  20.889  0.00  0.00    +0.000 C 
ATOM     15  C   UNL     1      -1.031  10.830  18.776  0.00  0.00    +0.000 C 
ATOM     16  C   UNL     1       1.486  10.336  18.492  0.00  0.00    +0.000 C 
ENDROOT
BRANCH   1  18
ATOM     17  O   UNL     1       2.937   8.394  17.003  0.00  0.00    +0.000 OA
ATOM     18  C   UNL     1       2.530   8.014  18.089  0.00  0.00    +0.000 C 
ATOM     19  N   UNL     1       2.806   6.802  18.673  0.00  0.00    +0.000 N 
ATOM     20  H   UNL     1       2.303   6.564  19.522  0.00  0.00    +0.000 HD
BRANCH  19  21
ATOM     21  C   UNL     1       3.554   5.796  17.959  0.00  0.00    +0.000 C 
BRANCH  21  22
ATOM     22  C   UNL     1       5.024   5.872  18.235  0.00  0.00    +0.000 A 
ATOM     23  C   UNL     1       5.898   6.547  17.376  0.00  0.00    +0.000 A 
ATOM     24  C   UNL     1       7.265   6.545  17.638  0.00  0.00    +0.000 A 
ATOM     25  C   UNL     1       7.718   5.862  18.755  0.00  0.00    +0.000 A 
ATOM     26  N   UNL     1       6.908   5.199  19.606  0.00  0.00    +0.000 NA
ATOM     27  C   UNL     1       5.585   5.214  19.326  0.00  0.00    +0.000 A 
ENDBRANCH  21  22
ENDBRANCH  19  21
ENDBRANCH   1  18
TORSDOF 3
ENDMDL
MODEL 9
REMARK VINA RESULT:      -7.2      2.302      9.050
REMARK  Name = 
REMARK  3 active torsions:
REMARK  status: ('A' for Active; 'I' for Inactive)
REMARK    1  A    between atoms: C_2  and  C_11
REMARK    2  A    between atoms: N_3  and  C_4
REMARK    3  A    between atoms: C_4  and  C_5
REMARK                            x       y       z     vdW  Elec       q    Type
REMARK                         _______ _______ _______ _____ _____    ______ ____
ROOT
ATOM      1  C   UNL     1      -0.566  11.879  21.316  0.00  0.00    +0.000 C 
ATOM      2  N   UNL     1       0.688  12.056  21.586  0.00  0.00    +0.000 NA
ATOM      3  O   UNL     1       1.312  10.790  21.443  0.00  0.00    +0.000 OA
ATOM      4  C   UNL     1       0.388   9.896  20.787  0.00  0.00    +0.000 C 
ATOM      5  C   UNL     1       0.500   8.512  21.410  0.00  0.00    +0.000 C 
ATOM      6  C   UNL     1       1.676   7.894  20.679  0.00  0.00    +0.000 C 
ATOM      7  N   UNL     1       1.623   8.441  19.337  0.00  0.00    +0.000 N 
ATOM      8  C   UNL     1       2.416   8.167  18.248  0.00  0.00    +0.000 C 
ATOM      9  O   UNL     1       2.345   8.884  17.245  0.00  0.00    +0.000 OA
ATOM     10  N   UNL     1       3.294   7.111  18.283  0.00  0.00    +0.000 N 
ATOM     11  C   UNL     1       4.270   6.942  17.218  0.00  0.00    +0.000 C 
ATOM     12  C   UNL     1       4.533   5.448  17.170  0.00  0.00    +0.000 C 
ATOM     13  C   UNL     1       4.386   5.018  18.619  0.00  0.00    +0.000 C 
ATOM     14  C   UNL     1       3.348   5.976  19.189  0.00  0.00    +0.000 C 
ATOM     15  C   UNL     1       0.826   9.672  19.331  0.00  0.00    +0.000 C 
ATOM     16  C   UNL     1      -0.980  10.504  20.975  0.00  0.00    +0.000 C 
ENDROOT
BRANCH   1  18
ATOM     17  O   UNL     1      -1.370  13.936  22.120  0.00  0.00    +0.000 OA
ATOM     18  C   UNL     1      -1.600  12.967  21.414  0.00  0.00    +0.000 C 
ATOM     19  N   UNL     1      -2.745  12.756  20.686  0.00  0.00    +0.000 N 
ATOM     20  H   UNL     1      -2.858  11.851  20.240  0.00  0.00    +0.000 HD
BRANCH  19  21
ATOM     21  C   UNL     1      -3.861  13.665  20.791  0.00  0.00    +0.000 C 
BRANCH  21  22
ATOM     22  C   UNL     1      -5.156  12.956  21.042  0.00  0.00    +0.000 A 
ATOM     23  C   UNL     1      -5.904  12.403  19.998  0.00  0.00    +0.000 A 
ATOM     24  C   UNL     1      -7.131  11.802  20.268  0.00  0.00    +0.000 A 
ATOM     25  C   UNL     1      -7.574  11.776  21.579  0.00  0.00    +0.000 A 
ATOM     26  N   UNL     1      -6.884  12.299  22.614  0.00  0.00    +0.000 NA
ATOM     27  C   UNL     1      -5.696  12.879  22.323  0.00  0.00    +0.000 A 
ENDBRANCH  21  22
ENDBRANCH  19  21
ENDBRANCH   1  18
TORSDOF 3
ENDMDL
