MODEL 1
REMARK VINA RESULT:      -5.8      0.000      0.000
REMARK  Name = 
REMARK  16 active torsions:
REMARK  status: ('A' for Active; 'I' for Inactive)
REMARK    1  A    between atoms: C_1  and  C_2
REMARK    2  A    between atoms: C_2  and  C_3
REMARK    3  A    between atoms: C_6  and  C_7
REMARK    4  A    between atoms: C_7  and  C_8
REMARK    5  A    between atoms: C_8  and  C_9
REMARK    6  A    between atoms: C_9  and  C_10
REMARK    7  A    between atoms: C_10  and  C_11
REMARK    8  A    between atoms: C_11  and  C_12
REMARK    9  A    between atoms: C_12  and  C_13
REMARK   10  A    between atoms: C_13  and  C_14
REMARK   11  A    between atoms: C_14  and  C_15
REMARK   12  A    between atoms: C_15  and  N_16
REMARK   13  A    between atoms: C_15  and  C_17
REMARK   14  A    between atoms: C_15  and  C_19
REMARK   15  A    between atoms: C_17  and  O_18
REMARK   16  A    between atoms: C_19  and  O_20
REMARK                            x       y       z     vdW  Elec       q    Type
REMARK                         _______ _______ _______ _____ _____    ______ ____
ROOT
ATOM      1  C   UNL     1       3.718   1.982  18.907  0.00  0.00    +0.000 C 
ENDROOT
BRANCH   1   2
ATOM      2  C   UNL     1       2.823   1.499  20.035  0.00  0.00    +0.000 C 
BRANCH   2   3
ATOM      3  C   UNL     1       2.963   2.392  21.268  0.00  0.00    +0.000 C 
BRANCH   3   4
ATOM      4  C   UNL     1       1.631   3.019  21.676  0.00  0.00    +0.000 C 
BRANCH   4   5
ATOM      5  C   UNL     1       0.783   3.419  20.467  0.00  0.00    +0.000 C 
BRANCH   5   9
ATOM      6  C   UNL     1       2.417   6.867  18.462  0.00  0.00    +0.000 A 
ATOM      7  C   UNL     1       2.337   6.832  19.859  0.00  0.00    +0.000 A 
ATOM      8  C   UNL     1       1.803   5.718  20.507  0.00  0.00    +0.000 A 
ATOM      9  C   UNL     1       1.352   4.621  19.762  0.00  0.00    +0.000 A 
ATOM     10  C   UNL     1       1.425   4.656  18.368  0.00  0.00    +0.000 A 
ATOM     11  C   UNL     1       1.958   5.769  17.722  0.00  0.00    +0.000 A 
BRANCH   6  13
ATOM     12  C   UNL     1       2.075   9.250  17.780  0.00  0.00    +0.000 C 
ATOM     13  C   UNL     1       3.022   8.058  17.770  0.00  0.00    +0.000 C 
ENDBRANCH   6  13
ENDBRANCH   5   9
ENDBRANCH   4   5
ENDBRANCH   3   4
ENDBRANCH   2   3
ENDBRANCH   1   2
BRANCH   1  14
ATOM     14  C   UNL     1       4.736   3.001  19.418  0.00  0.00    +0.000 C 
BRANCH  14  15
ATOM     15  C   UNL     1       4.961   4.052  18.340  0.00  0.00    +0.000 C 
BRANCH  15  16
ATOM     16  C   UNL     1       5.929   5.150  18.775  0.00  0.00    +0.000 C 
BRANCH  16  17
ATOM     17  C   UNL     1       7.048   5.495  17.754  0.00  0.00    +0.000 C 
BRANCH  17  18
ATOM     18  N   UNL     1       8.076   4.415  17.711  0.00  0.00    +0.000 NA
ATOM     19  H   UNL     1       7.619   3.513  17.847  0.00  0.00    +0.000 HD
ATOM     20  H   UNL     1       8.686   4.514  18.525  0.00  0.00    +0.000 HD
ENDBRANCH  17  18
BRANCH  17  21
ATOM     21  C   UNL     1       6.501   5.737  16.318  0.00  0.00    +0.000 C 
BRANCH  21  22
ATOM     22  O   UNL     1       7.486   5.526  15.309  0.00  0.00    +0.000 OA
ATOM     23  H   UNL     1       7.085   4.925  14.659  0.00  0.00    +0.000 HD
ENDBRANCH  21  22
ENDBRANCH  17  21
BRANCH  17  24
ATOM     24  C   UNL     1       7.761   6.790  18.230  0.00  0.00    +0.000 C 
BRANCH  24  25
ATOM     25  O   UNL     1       7.774   7.764  17.188  0.00  0.00    +0.000 OA
ATOM     26  H   UNL     1       7.467   8.591  17.614  0.00  0.00    +0.000 HD
ENDBRANCH  24  25
ENDBRANCH  17  24
ENDBRANCH  16  17
ENDBRANCH  15  16
ENDBRANCH  14  15
ENDBRANCH   1  14
TORSDOF 15
ENDMDL
MODEL 2
REMARK VINA RESULT:      -5.7      1.667      2.307
REMARK  Name = 
REMARK  16 active torsions:
REMARK  status: ('A' for Active; 'I' for Inactive)
REMARK    1  A    between atoms: C_1  and  C_2
REMARK    2  A    between atoms: C_2  and  C_3
REMARK    3  A    between atoms: C_6  and  C_7
REMARK    4  A    between atoms: C_7  and  C_8
REMARK    5  A    between atoms: C_8  and  C_9
REMARK    6  A    between atoms: C_9  and  C_10
REMARK    7  A    between atoms: C_10  and  C_11
REMARK    8  A    between atoms: C_11  and  C_12
REMARK    9  A    between atoms: C_12  and  C_13
REMARK   10  A    between atoms: C_13  and  C_14
REMARK   11  A    between atoms: C_14  and  C_15
REMARK   12  A    between atoms: C_15  and  N_16
REMARK   13  A    between atoms: C_15  and  C_17
REMARK   14  A    between atoms: C_15  and  C_19
REMARK   15  A    between atoms: C_17  and  O_18
REMARK   16  A    between atoms: C_19  and  O_20
REMARK                            x       y       z     vdW  Elec       q    Type
REMARK                         _______ _______ _______ _____ _____    ______ ____
ROOT
ATOM      1  C   UNL     1       2.418   2.263  17.868  0.00  0.00    +0.000 C 
ENDROOT
BRANCH   1   2
ATOM      2  C   UNL     1       2.888   2.373  19.308  0.00  0.00    +0.000 C 
BRANCH   2   3
ATOM      3  C   UNL     1       1.704   2.481  20.267  0.00  0.00    +0.000 C 
BRANCH   3   4
ATOM      4  C   UNL     1       1.103   3.885  20.281  0.00  0.00    +0.000 C 
BRANCH   4   5
ATOM      5  C   UNL     1       2.054   4.918  20.888  0.00  0.00    +0.000 C 
BRANCH   5   9
ATOM      6  C   UNL     1       1.929   8.648  18.733  0.00  0.00    +0.000 A 
ATOM      7  C   UNL     1       2.456   7.499  18.130  0.00  0.00    +0.000 A 
ATOM      8  C   UNL     1       2.501   6.294  18.830  0.00  0.00    +0.000 A 
ATOM      9  C   UNL     1       2.009   6.223  20.140  0.00  0.00    +0.000 A 
ATOM     10  C   UNL     1       1.490   7.369  20.745  0.00  0.00    +0.000 A 
ATOM     11  C   UNL     1       1.446   8.572  20.045  0.00  0.00    +0.000 A 
BRANCH   6  13
ATOM     12  C   UNL     1       1.272  11.061  18.806  0.00  0.00    +0.000 C 
ATOM     13  C   UNL     1       1.856   9.938  17.962  0.00  0.00    +0.000 C 
ENDBRANCH   6  13
ENDBRANCH   5   9
ENDBRANCH   4   5
ENDBRANCH   3   4
ENDBRANCH   2   3
ENDBRANCH   1   2
BRANCH   1  14
ATOM     14  C   UNL     1       3.026   3.373  17.011  0.00  0.00    +0.000 C 
BRANCH  14  15
ATOM     15  C   UNL     1       4.460   3.611  17.462  0.00  0.00    +0.000 C 
BRANCH  15  16
ATOM     16  C   UNL     1       5.425   3.806  16.294  0.00  0.00    +0.000 C 
BRANCH  16  17
ATOM     17  C   UNL     1       6.457   4.954  16.466  0.00  0.00    +0.000 C 
BRANCH  17  18
ATOM     18  N   UNL     1       7.208   5.184  15.199  0.00  0.00    +0.000 NA
ATOM     19  H   UNL     1       6.858   4.550  14.481  0.00  0.00    +0.000 HD
ATOM     20  H   UNL     1       8.179   4.897  15.339  0.00  0.00    +0.000 HD
ENDBRANCH  17  18
BRANCH  17  21
ATOM     21  C   UNL     1       5.802   6.289  16.922  0.00  0.00    +0.000 C 
BRANCH  21  22
ATOM     22  O   UNL     1       5.271   7.044  15.835  0.00  0.00    +0.000 OA
ATOM     23  H   UNL     1       4.547   7.578  16.204  0.00  0.00    +0.000 HD
ENDBRANCH  21  22
ENDBRANCH  17  21
BRANCH  17  24
ATOM     24  C   UNL     1       7.490   4.523  17.543  0.00  0.00    +0.000 C 
BRANCH  24  25
ATOM     25  O   UNL     1       7.111   5.019  18.825  0.00  0.00    +0.000 OA
ATOM     26  H   UNL     1       6.474   4.360  19.170  0.00  0.00    +0.000 HD
ENDBRANCH  24  25
ENDBRANCH  17  24
ENDBRANCH  16  17
ENDBRANCH  15  16
ENDBRANCH  14  15
ENDBRANCH   1  14
TORSDOF 15
ENDMDL
MODEL 3
REMARK VINA RESULT:      -5.7      1.593      2.899
REMARK  Name = 
REMARK  16 active torsions:
REMARK  status: ('A' for Active; 'I' for Inactive)
REMARK    1  A    between atoms: C_1  and  C_2
REMARK    2  A    between atoms: C_2  and  C_3
REMARK    3  A    between atoms: C_6  and  C_7
REMARK    4  A    between atoms: C_7  and  C_8
REMARK    5  A    between atoms: C_8  and  C_9
REMARK    6  A    between atoms: C_9  and  C_10
REMARK    7  A    between atoms: C_10  and  C_11
REMARK    8  A    between atoms: C_11  and  C_12
REMARK    9  A    between atoms: C_12  and  C_13
REMARK   10  A    between atoms: C_13  and  C_14
REMARK   11  A    between atoms: C_14  and  C_15
REMARK   12  A    between atoms: C_15  and  N_16
REMARK   13  A    between atoms: C_15  and  C_17
REMARK   14  A    between atoms: C_15  and  C_19
REMARK   15  A    between atoms: C_17  and  O_18
REMARK   16  A    between atoms: C_19  and  O_20
REMARK                            x       y       z     vdW  Elec       q    Type
REMARK                         _______ _______ _______ _____ _____    ______ ____
ROOT
ATOM      1  C   UNL     1       2.389   2.554  17.737  0.00  0.00    +0.000 C 
ENDROOT
BRANCH   1   2
ATOM      2  C   UNL     1       1.840   3.967  17.824  0.00  0.00    +0.000 C 
BRANCH   2   3
ATOM      3  C   UNL     1       1.141   4.204  19.162  0.00  0.00    +0.000 C 
BRANCH   3   4
ATOM      4  C   UNL     1       2.124   4.614  20.258  0.00  0.00    +0.000 C 
BRANCH   4   5
ATOM      5  C   UNL     1       3.132   5.657  19.774  0.00  0.00    +0.000 C 
BRANCH   5   9
ATOM      6  C   UNL     1       1.233   9.426  18.897  0.00  0.00    +0.000 A 
ATOM      7  C   UNL     1       1.947   8.744  17.904  0.00  0.00    +0.000 A 
ATOM      8  C   UNL     1       2.565   7.528  18.190  0.00  0.00    +0.000 A 
ATOM      9  C   UNL     1       2.468   6.974  19.473  0.00  0.00    +0.000 A 
ATOM     10  C   UNL     1       1.763   7.655  20.466  0.00  0.00    +0.000 A 
ATOM     11  C   UNL     1       1.146   8.870  20.180  0.00  0.00    +0.000 A 
BRANCH   6  13
ATOM     12  C   UNL     1       1.475  11.913  18.758  0.00  0.00    +0.000 C 
ATOM     13  C   UNL     1       0.543  10.724  18.574  0.00  0.00    +0.000 C 
ENDBRANCH   6  13
ENDBRANCH   5   9
ENDBRANCH   4   5
ENDBRANCH   3   4
ENDBRANCH   2   3
ENDBRANCH   1   2
BRANCH   1  14
ATOM     14  C   UNL     1       3.916   2.567  17.669  0.00  0.00    +0.000 C 
BRANCH  14  15
ATOM     15  C   UNL     1       4.361   3.766  16.844  0.00  0.00    +0.000 C 
BRANCH  15  16
ATOM     16  C   UNL     1       5.405   4.623  17.557  0.00  0.00    +0.000 C 
BRANCH  16  17
ATOM     17  C   UNL     1       6.244   5.554  16.638  0.00  0.00    +0.000 C 
BRANCH  17  18
ATOM     18  N   UNL     1       5.367   6.543  15.948  0.00  0.00    +0.000 NA
ATOM     19  H   UNL     1       4.811   6.063  15.241  0.00  0.00    +0.000 HD
ATOM     20  H   UNL     1       5.958   7.183  15.413  0.00  0.00    +0.000 HD
ENDBRANCH  17  18
BRANCH  17  21
ATOM     21  C   UNL     1       7.363   6.312  17.408  0.00  0.00    +0.000 C 
BRANCH  21  22
ATOM     22  O   UNL     1       7.647   7.593  16.849  0.00  0.00    +0.000 OA
ATOM     23  H   UNL     1       6.787   8.013  16.681  0.00  0.00    +0.000 HD
ENDBRANCH  21  22
ENDBRANCH  17  21
BRANCH  17  24
ATOM     24  C   UNL     1       6.910   4.682  15.539  0.00  0.00    +0.000 C 
BRANCH  24  25
ATOM     25  O   UNL     1       7.604   5.505  14.603  0.00  0.00    +0.000 OA
ATOM     26  H   UNL     1       8.477   5.669  15.012  0.00  0.00    +0.000 HD
ENDBRANCH  24  25
ENDBRANCH  17  24
ENDBRANCH  16  17
ENDBRANCH  15  16
ENDBRANCH  14  15
ENDBRANCH   1  14
TORSDOF 15
ENDMDL
MODEL 4
REMARK VINA RESULT:      -5.7      1.352      1.564
REMARK  Name = 
REMARK  16 active torsions:
REMARK  status: ('A' for Active; 'I' for Inactive)
REMARK    1  A    between atoms: C_1  and  C_2
REMARK    2  A    between atoms: C_2  and  C_3
REMARK    3  A    between atoms: C_6  and  C_7
REMARK    4  A    between atoms: C_7  and  C_8
REMARK    5  A    between atoms: C_8  and  C_9
REMARK    6  A    between atoms: C_9  and  C_10
REMARK    7  A    between atoms: C_10  and  C_11
REMARK    8  A    between atoms: C_11  and  C_12
REMARK    9  A    between atoms: C_12  and  C_13
REMARK   10  A    between atoms: C_13  and  C_14
REMARK   11  A    between atoms: C_14  and  C_15
REMARK   12  A    between atoms: C_15  and  N_16
REMARK   13  A    between atoms: C_15  and  C_17
REMARK   14  A    between atoms: C_15  and  C_19
REMARK   15  A    between atoms: C_17  and  O_18
REMARK   16  A    between atoms: C_19  and  O_20
REMARK                            x       y       z     vdW  Elec       q    Type
REMARK                         _______ _______ _______ _____ _____    ______ ____
ROOT
ATOM      1  C   UNL     1       3.567   1.629  18.535  0.00  0.00    +0.000 C 
ENDROOT
BRANCH   1   2
ATOM      2  C   UNL     1       4.323   2.355  19.633  0.00  0.00    +0.000 C 
BRANCH   2   3
ATOM      3  C   UNL     1       3.413   2.652  20.825  0.00  0.00    +0.000 C 
BRANCH   3   4
ATOM      4  C   UNL     1       1.953   2.310  20.531  0.00  0.00    +0.000 C 
BRANCH   4   5
ATOM      5  C   UNL     1       1.023   3.506  20.744  0.00  0.00    +0.000 C 
BRANCH   5   9
ATOM      6  C   UNL     1       2.351   6.974  18.557  0.00  0.00    +0.000 A 
ATOM      7  C   UNL     1       2.235   7.017  19.952  0.00  0.00    +0.000 A 
ATOM      8  C   UNL     1       1.800   5.896  20.658  0.00  0.00    +0.000 A 
ATOM      9  C   UNL     1       1.485   4.714  19.976  0.00  0.00    +0.000 A 
ATOM     10  C   UNL     1       1.593   4.671  18.585  0.00  0.00    +0.000 A 
ATOM     11  C   UNL     1       2.027   5.791  17.880  0.00  0.00    +0.000 A 
BRANCH   6  13
ATOM     12  C   UNL     1       1.861   9.332  17.880  0.00  0.00    +0.000 C 
ATOM     13  C   UNL     1       2.849   8.177  17.804  0.00  0.00    +0.000 C 
ENDBRANCH   6  13
ENDBRANCH   5   9
ENDBRANCH   4   5
ENDBRANCH   3   4
ENDBRANCH   2   3
ENDBRANCH   1   2
BRANCH   1  14
ATOM     14  C   UNL     1       3.811   2.288  17.178  0.00  0.00    +0.000 C 
BRANCH  14  15
ATOM     15  C   UNL     1       4.703   3.506  17.378  0.00  0.00    +0.000 C 
BRANCH  15  16
ATOM     16  C   UNL     1       5.543   3.835  16.145  0.00  0.00    +0.000 C 
BRANCH  16  17
ATOM     17  C   UNL     1       6.585   4.970  16.333  0.00  0.00    +0.000 C 
BRANCH  17  18
ATOM     18  N   UNL     1       7.435   5.114  15.116  0.00  0.00    +0.000 NA
ATOM     19  H   UNL     1       7.073   5.876  14.542  0.00  0.00    +0.000 HD
ATOM     20  H   UNL     1       7.315   4.282  14.535  0.00  0.00    +0.000 HD
ENDBRANCH  17  18
BRANCH  17  21
ATOM     21  C   UNL     1       5.930   6.342  16.663  0.00  0.00    +0.000 C 
BRANCH  21  22
ATOM     22  O   UNL     1       5.189   6.878  15.569  0.00  0.00    +0.000 OA
ATOM     23  H   UNL     1       4.272   6.579  15.690  0.00  0.00    +0.000 HD
ENDBRANCH  21  22
ENDBRANCH  17  21
BRANCH  17  24
ATOM     24  C   UNL     1       7.524   4.582  17.507  0.00  0.00    +0.000 C 
BRANCH  24  25
ATOM     25  O   UNL     1       7.349   5.477  18.604  0.00  0.00    +0.000 OA
ATOM     26  H   UNL     1       8.011   5.193  19.267  0.00  0.00    +0.000 HD
ENDBRANCH  24  25
ENDBRANCH  17  24
ENDBRANCH  16  17
ENDBRANCH  15  16
ENDBRANCH  14  15
ENDBRANCH   1  14
TORSDOF 15
ENDMDL
MODEL 5
REMARK VINA RESULT:      -5.6      1.573      2.136
REMARK  Name = 
REMARK  16 active torsions:
REMARK  status: ('A' for Active; 'I' for Inactive)
REMARK    1  A    between atoms: C_1  and  C_2
REMARK    2  A    between atoms: C_2  and  C_3
REMARK    3  A    between atoms: C_6  and  C_7
REMARK    4  A    between atoms: C_7  and  C_8
REMARK    5  A    between atoms: C_8  and  C_9
REMARK    6  A    between atoms: C_9  and  C_10
REMARK    7  A    between atoms: C_10  and  C_11
REMARK    8  A    between atoms: C_11  and  C_12
REMARK    9  A    between atoms: C_12  and  C_13
REMARK   10  A    between atoms: C_13  and  C_14
REMARK   11  A    between atoms: C_14  and  C_15
REMARK   12  A    between atoms: C_15  and  N_16
REMARK   13  A    between atoms: C_15  and  C_17
REMARK   14  A    between atoms: C_15  and  C_19
REMARK   15  A    between atoms: C_17  and  O_18
REMARK   16  A    between atoms: C_19  and  O_20
REMARK                            x       y       z     vdW  Elec       q    Type
REMARK                         _______ _______ _______ _____ _____    ______ ____
ROOT
ATOM      1  C   UNL     1       2.476   3.276  17.144  0.00  0.00    +0.000 C 
ENDROOT
BRANCH   1   2
ATOM      2  C   UNL     1       1.351   3.421  18.153  0.00  0.00    +0.000 C 
BRANCH   2   3
ATOM      3  C   UNL     1       1.857   3.197  19.578  0.00  0.00    +0.000 C 
BRANCH   3   4
ATOM      4  C   UNL     1       1.298   4.231  20.554  0.00  0.00    +0.000 C 
BRANCH   4   5
ATOM      5  C   UNL     1       2.333   5.294  20.929  0.00  0.00    +0.000 C 
BRANCH   5   9
ATOM      6  C   UNL     1       1.839   8.893  18.609  0.00  0.00    +0.000 A 
ATOM      7  C   UNL     1       1.311   8.806  19.903  0.00  0.00    +0.000 A 
ATOM      8  C   UNL     1       1.467   7.639  20.651  0.00  0.00    +0.000 A 
ATOM      9  C   UNL     1       2.162   6.548  20.114  0.00  0.00    +0.000 A 
ATOM     10  C   UNL     1       2.683   6.630  18.822  0.00  0.00    +0.000 A 
ATOM     11  C   UNL     1       2.527   7.795  18.076  0.00  0.00    +0.000 A 
BRANCH   6  13
ATOM     12  C   UNL     1       1.623  11.383  18.728  0.00  0.00    +0.000 C 
ATOM     13  C   UNL     1       1.694  10.165  17.819  0.00  0.00    +0.000 C 
ENDBRANCH   6  13
ENDBRANCH   5   9
ENDBRANCH   4   5
ENDBRANCH   3   4
ENDBRANCH   2   3
ENDBRANCH   1   2
BRANCH   1  14
ATOM     14  C   UNL     1       3.774   2.855  17.833  0.00  0.00    +0.000 C 
BRANCH  14  15
ATOM     15  C   UNL     1       4.923   3.666  17.251  0.00  0.00    +0.000 C 
BRANCH  15  16
ATOM     16  C   UNL     1       5.499   4.676  18.243  0.00  0.00    +0.000 C 
BRANCH  16  17
ATOM     17  C   UNL     1       6.610   5.603  17.680  0.00  0.00    +0.000 C 
BRANCH  17  18
ATOM     18  N   UNL     1       7.404   4.901  16.630  0.00  0.00    +0.000 NA
ATOM     19  H   UNL     1       7.056   5.171  15.710  0.00  0.00    +0.000 HD
ATOM     20  H   UNL     1       7.207   3.900  16.690  0.00  0.00    +0.000 HD
ENDBRANCH  17  18
BRANCH  17  21
ATOM     21  C   UNL     1       6.048   6.930  17.092  0.00  0.00    +0.000 C 
BRANCH  21  22
ATOM     22  O   UNL     1       5.556   6.780  15.763  0.00  0.00    +0.000 OA
ATOM     23  H   UNL     1       4.850   6.113  15.807  0.00  0.00    +0.000 HD
ENDBRANCH  21  22
ENDBRANCH  17  21
BRANCH  17  24
ATOM     24  C   UNL     1       7.585   5.955  18.836  0.00  0.00    +0.000 C 
BRANCH  24  25
ATOM     25  O   UNL     1       7.262   5.205  20.006  0.00  0.00    +0.000 OA
ATOM     26  H   UNL     1       8.075   5.228  20.551  0.00  0.00    +0.000 HD
ENDBRANCH  24  25
ENDBRANCH  17  24
ENDBRANCH  16  17
ENDBRANCH  15  16
ENDBRANCH  14  15
ENDBRANCH   1  14
TORSDOF 15
ENDMDL
MODEL 6
REMARK VINA RESULT:      -5.5      1.761      2.485
REMARK  Name = 
REMARK  16 active torsions:
REMARK  status: ('A' for Active; 'I' for Inactive)
REMARK    1  A    between atoms: C_1  and  C_2
REMARK    2  A    between atoms: C_2  and  C_3
REMARK    3  A    between atoms: C_6  and  C_7
REMARK    4  A    between atoms: C_7  and  C_8
REMARK    5  A    between atoms: C_8  and  C_9
REMARK    6  A    between atoms: C_9  and  C_10
REMARK    7  A    between atoms: C_10  and  C_11
REMARK    8  A    between atoms: C_11  and  C_12
REMARK    9  A    between atoms: C_12  and  C_13
REMARK   10  A    between atoms: C_13  and  C_14
REMARK   11  A    between atoms: C_14  and  C_15
REMARK   12  A    between atoms: C_15  and  N_16
REMARK   13  A    between atoms: C_15  and  C_17
REMARK   14  A    between atoms: C_15  and  C_19
REMARK   15  A    between atoms: C_17  and  O_18
REMARK   16  A    between atoms: C_19  and  O_20
REMARK                            x       y       z     vdW  Elec       q    Type
REMARK                         _______ _______ _______ _____ _____    ______ ____
ROOT
ATOM      1  C   UNL     1       1.623   3.061  18.311  0.00  0.00    +0.000 C 
ENDROOT
BRANCH   1   2
ATOM      2  C   UNL     1       1.851   2.267  19.585  0.00  0.00    +0.000 C 
BRANCH   2   3
ATOM      3  C   UNL     1       1.533   3.108  20.821  0.00  0.00    +0.000 C 
BRANCH   3   4
ATOM      4  C   UNL     1       1.151   4.542  20.458  0.00  0.00    +0.000 C 
BRANCH   4   5
ATOM      5  C   UNL     1       2.348   5.492  20.510  0.00  0.00    +0.000 C 
BRANCH   5   9
ATOM      6  C   UNL     1       1.254   9.497  19.351  0.00  0.00    +0.000 A 
ATOM      7  C   UNL     1       0.901   9.003  20.613  0.00  0.00    +0.000 A 
ATOM      8  C   UNL     1       1.251   7.705  20.985  0.00  0.00    +0.000 A 
ATOM      9  C   UNL     1       1.968   6.889  20.100  0.00  0.00    +0.000 A 
ATOM     10  C   UNL     1       2.315   7.377  18.839  0.00  0.00    +0.000 A 
ATOM     11  C   UNL     1       1.965   8.673  18.468  0.00  0.00    +0.000 A 
BRANCH   6  13
ATOM     12  C   UNL     1      -0.462  10.978  18.293  0.00  0.00    +0.000 C 
ATOM     13  C   UNL     1       0.900  10.908  18.967  0.00  0.00    +0.000 C 
ENDBRANCH   6  13
ENDBRANCH   5   9
ENDBRANCH   4   5
ENDBRANCH   3   4
ENDBRANCH   2   3
ENDBRANCH   1   2
BRANCH   1  14
ATOM     14  C   UNL     1       2.806   2.907  17.355  0.00  0.00    +0.000 C 
BRANCH  14  15
ATOM     15  C   UNL     1       3.574   4.221  17.310  0.00  0.00    +0.000 C 
BRANCH  15  16
ATOM     16  C   UNL     1       5.024   4.045  16.862  0.00  0.00    +0.000 C 
BRANCH  16  17
ATOM     17  C   UNL     1       6.057   4.962  17.574  0.00  0.00    +0.000 C 
BRANCH  17  18
ATOM     18  N   UNL     1       7.376   4.276  17.696  0.00  0.00    +0.000 NA
ATOM     19  H   UNL     1       7.610   3.838  16.805  0.00  0.00    +0.000 HD
ATOM     20  H   UNL     1       7.276   3.493  18.345  0.00  0.00    +0.000 HD
ENDBRANCH  17  18
BRANCH  17  21
ATOM     21  C   UNL     1       6.254   6.324  16.849  0.00  0.00    +0.000 C 
BRANCH  21  22
ATOM     22  O   UNL     1       5.665   6.349  15.551  0.00  0.00    +0.000 OA
ATOM     23  H   UNL     1       4.721   6.154  15.677  0.00  0.00    +0.000 HD
ENDBRANCH  21  22
ENDBRANCH  17  21
BRANCH  17  24
ATOM     24  C   UNL     1       5.548   5.244  19.014  0.00  0.00    +0.000 C 
BRANCH  24  25
ATOM     25  O   UNL     1       6.620   5.146  19.950  0.00  0.00    +0.000 OA
ATOM     26  H   UNL     1       7.418   4.996  19.403  0.00  0.00    +0.000 HD
ENDBRANCH  24  25
ENDBRANCH  17  24
ENDBRANCH  16  17
ENDBRANCH  15  16
ENDBRANCH  14  15
ENDBRANCH   1  14
TORSDOF 15
ENDMDL
MODEL 7
REMARK VINA RESULT:      -5.5      2.041      3.677
REMARK  Name = 
REMARK  16 active torsions:
REMARK  status: ('A' for Active; 'I' for Inactive)
REMARK    1  A    between atoms: C_1  and  C_2
REMARK    2  A    between atoms: C_2  and  C_3
REMARK    3  A    between atoms: C_6  and  C_7
REMARK    4  A    between atoms: C_7  and  C_8
REMARK    5  A    between atoms: C_8  and  C_9
REMARK    6  A    between atoms: C_9  and  C_10
REMARK    7  A    between atoms: C_10  and  C_11
REMARK    8  A    between atoms: C_11  and  C_12
REMARK    9  A    between atoms: C_12  and  C_13
REMARK   10  A    between atoms: C_13  and  C_14
REMARK   11  A    between atoms: C_14  and  C_15
REMARK   12  A    between atoms: C_15  and  N_16
REMARK   13  A    between atoms: C_15  and  C_17
REMARK   14  A    between atoms: C_15  and  C_19
REMARK   15  A    between atoms: C_17  and  O_18
REMARK   16  A    between atoms: C_19  and  O_20
REMARK                            x       y       z     vdW  Elec       q    Type
REMARK                         _______ _______ _______ _____ _____    ______ ____
ROOT
ATOM      1  C   UNL     1       5.922   5.426  15.231  0.00  0.00    +0.000 C 
ENDROOT
BRANCH   1   2
ATOM      2  C   UNL     1       5.000   4.238  15.022  0.00  0.00    +0.000 C 
BRANCH   2   3
ATOM      3  C   UNL     1       4.618   3.596  16.355  0.00  0.00    +0.000 C 
BRANCH   3   4
ATOM      4  C   UNL     1       3.106   3.573  16.569  0.00  0.00    +0.000 C 
BRANCH   4   5
ATOM      5  C   UNL     1       2.730   3.290  18.024  0.00  0.00    +0.000 C 
BRANCH   5   9
ATOM      6  C   UNL     1       1.831   6.926  20.157  0.00  0.00    +0.000 A 
ATOM      7  C   UNL     1       2.218   6.971  18.813  0.00  0.00    +0.000 A 
ATOM      8  C   UNL     1       2.513   5.794  18.125  0.00  0.00    +0.000 A 
ATOM      9  C   UNL     1       2.416   4.557  18.774  0.00  0.00    +0.000 A 
ATOM     10  C   UNL     1       2.037   4.510  20.116  0.00  0.00    +0.000 A 
ATOM     11  C   UNL     1       1.742   5.686  20.803  0.00  0.00    +0.000 A 
BRANCH   6  13
ATOM     12  C   UNL     1       1.041   9.289  19.924  0.00  0.00    +0.000 C 
ATOM     13  C   UNL     1       1.484   8.196  20.886  0.00  0.00    +0.000 C 
ENDBRANCH   6  13
ENDBRANCH   5   9
ENDBRANCH   4   5
ENDBRANCH   3   4
ENDBRANCH   2   3
ENDBRANCH   1   2
BRANCH   1  14
ATOM     14  C   UNL     1       5.153   6.619  15.797  0.00  0.00    +0.000 C 
BRANCH  14  15
ATOM     15  C   UNL     1       5.668   6.914  17.199  0.00  0.00    +0.000 C 
BRANCH  15  16
ATOM     16  C   UNL     1       7.119   6.481  17.401  0.00  0.00    +0.000 C 
BRANCH  16  17
ATOM     17  C   UNL     1       7.344   5.394  18.488  0.00  0.00    +0.000 C 
BRANCH  17  18
ATOM     18  N   UNL     1       7.788   4.112  17.869  0.00  0.00    +0.000 NA
ATOM     19  H   UNL     1       7.343   3.333  18.354  0.00  0.00    +0.000 HD
ATOM     20  H   UNL     1       8.786   3.989  18.055  0.00  0.00    +0.000 HD
ENDBRANCH  17  18
BRANCH  17  21
ATOM     21  C   UNL     1       8.378   5.825  19.567  0.00  0.00    +0.000 C 
BRANCH  21  22
ATOM     22  O   UNL     1       8.005   5.420  20.882  0.00  0.00    +0.000 OA
ATOM     23  H   UNL     1       7.034   5.452  20.912  0.00  0.00    +0.000 HD
ENDBRANCH  21  22
ENDBRANCH  17  21
BRANCH  17  24
ATOM     24  C   UNL     1       5.987   5.120  19.192  0.00  0.00    +0.000 C 
BRANCH  24  25
ATOM     25  O   UNL     1       5.828   3.725  19.443  0.00  0.00    +0.000 OA
ATOM     26  H   UNL     1       6.657   3.453  19.886  0.00  0.00    +0.000 HD
ENDBRANCH  24  25
ENDBRANCH  17  24
ENDBRANCH  16  17
ENDBRANCH  15  16
ENDBRANCH  14  15
ENDBRANCH   1  14
TORSDOF 15
ENDMDL
MODEL 8
REMARK VINA RESULT:      -5.5      3.815      6.872
REMARK  Name = 
REMARK  16 active torsions:
REMARK  status: ('A' for Active; 'I' for Inactive)
REMARK    1  A    between atoms: C_1  and  C_2
REMARK    2  A    between atoms: C_2  and  C_3
REMARK    3  A    between atoms: C_6  and  C_7
REMARK    4  A    between atoms: C_7  and  C_8
REMARK    5  A    between atoms: C_8  and  C_9
REMARK    6  A    between atoms: C_9  and  C_10
REMARK    7  A    between atoms: C_10  and  C_11
REMARK    8  A    between atoms: C_11  and  C_12
REMARK    9  A    between atoms: C_12  and  C_13
REMARK   10  A    between atoms: C_13  and  C_14
REMARK   11  A    between atoms: C_14  and  C_15
REMARK   12  A    between atoms: C_15  and  N_16
REMARK   13  A    between atoms: C_15  and  C_17
REMARK   14  A    between atoms: C_15  and  C_19
REMARK   15  A    between atoms: C_17  and  O_18
REMARK   16  A    between atoms: C_19  and  O_20
REMARK                            x       y       z     vdW  Elec       q    Type
REMARK                         _______ _______ _______ _____ _____    ______ ____
ROOT
ATOM      1  C   UNL     1       4.795   6.195  18.497  0.00  0.00    +0.000 C 
ENDROOT
BRANCH   1   2
ATOM      2  C   UNL     1       6.161   6.458  17.890  0.00  0.00    +0.000 C 
BRANCH   2   3
ATOM      3  C   UNL     1       7.120   5.301  18.170  0.00  0.00    +0.000 C 
BRANCH   3   4
ATOM      4  C   UNL     1       7.515   4.560  16.893  0.00  0.00    +0.000 C 
BRANCH   4   5
ATOM      5  C   UNL     1       7.430   5.453  15.654  0.00  0.00    +0.000 C 
BRANCH   5   9
ATOM      6  C   UNL     1       5.544   3.417  12.357  0.00  0.00    +0.000 A 
ATOM      7  C   UNL     1       4.891   3.523  13.591  0.00  0.00    +0.000 A 
ATOM      8  C   UNL     1       5.504   4.178  14.659  0.00  0.00    +0.000 A 
ATOM      9  C   UNL     1       6.776   4.742  14.500  0.00  0.00    +0.000 A 
ATOM     10  C   UNL     1       7.432   4.632  13.273  0.00  0.00    +0.000 A 
ATOM     11  C   UNL     1       6.819   3.978  12.207  0.00  0.00    +0.000 A 
BRANCH   6  13
ATOM     12  C   UNL     1       3.603   3.476  10.779  0.00  0.00    +0.000 C 
ATOM     13  C   UNL     1       4.865   2.736  11.200  0.00  0.00    +0.000 C 
ENDBRANCH   6  13
ENDBRANCH   5   9
ENDBRANCH   4   5
ENDBRANCH   3   4
ENDBRANCH   2   3
ENDBRANCH   1   2
BRANCH   1  14
ATOM     14  C   UNL     1       3.774   5.852  17.413  0.00  0.00    +0.000 C 
BRANCH  14  15
ATOM     15  C   UNL     1       2.597   5.134  18.059  0.00  0.00    +0.000 C 
BRANCH  15  16
ATOM     16  C   UNL     1       2.467   3.681  17.603  0.00  0.00    +0.000 C 
BRANCH  16  17
ATOM     17  C   UNL     1       2.675   2.614  18.712  0.00  0.00    +0.000 C 
BRANCH  17  18
ATOM     18  N   UNL     1       3.183   1.338  18.129  0.00  0.00    +0.000 NA
ATOM     19  H   UNL     1       3.191   0.619  18.853  0.00  0.00    +0.000 HD
ATOM     20  H   UNL     1       4.168   1.462  17.885  0.00  0.00    +0.000 HD
ENDBRANCH  17  18
BRANCH  17  21
ATOM     21  C   UNL     1       3.648   3.088  19.830  0.00  0.00    +0.000 C 
BRANCH  21  22
ATOM     22  O   UNL     1       5.002   2.717  19.578  0.00  0.00    +0.000 OA
ATOM     23  H   UNL     1       5.158   2.887  18.633  0.00  0.00    +0.000 HD
ENDBRANCH  21  22
ENDBRANCH  17  21
BRANCH  17  24
ATOM     24  C   UNL     1       1.298   2.308  19.360  0.00  0.00    +0.000 C 
BRANCH  24  25
ATOM     25  O   UNL     1       0.354   1.916  18.365  0.00  0.00    +0.000 OA
ATOM     26  H   UNL     1       0.680   1.055  18.036  0.00  0.00    +0.000 HD
ENDBRANCH  24  25
ENDBRANCH  17  24
ENDBRANCH  16  17
ENDBRANCH  15  16
ENDBRANCH  14  15
ENDBRANCH   1  14
TORSDOF 15
ENDMDL
MODEL 9
REMARK VINA RESULT:      -5.5      1.922      3.010
REMARK  Name = 
REMARK  16 active torsions:
REMARK  status: ('A' for Active; 'I' for Inactive)
REMARK    1  A    between atoms: C_1  and  C_2
REMARK    2  A    between atoms: C_2  and  C_3
REMARK    3  A    between atoms: C_6  and  C_7
REMARK    4  A    between atoms: C_7  and  C_8
REMARK    5  A    between atoms: C_8  and  C_9
REMARK    6  A    between atoms: C_9  and  C_10
REMARK    7  A    between atoms: C_10  and  C_11
REMARK    8  A    between atoms: C_11  and  C_12
REMARK    9  A    between atoms: C_12  and  C_13
REMARK   10  A    between atoms: C_13  and  C_14
REMARK   11  A    between atoms: C_14  and  C_15
REMARK   12  A    between atoms: C_15  and  N_16
REMARK   13  A    between atoms: C_15  and  C_17
REMARK   14  A    between atoms: C_15  and  C_19
REMARK   15  A    between atoms: C_17  and  O_18
REMARK   16  A    between atoms: C_19  and  O_20
REMARK                            x       y       z     vdW  Elec       q    Type
REMARK                         _______ _______ _______ _____ _____    ______ ____
ROOT
ATOM      1  C   UNL     1       2.572   3.114  17.573  0.00  0.00    +0.000 C 
ENDROOT
BRANCH   1   2
ATOM      2  C   UNL     1       1.541   3.849  18.409  0.00  0.00    +0.000 C 
BRANCH   2   3
ATOM      3  C   UNL     1       2.014   4.006  19.854  0.00  0.00    +0.000 C 
BRANCH   3   4
ATOM      4  C   UNL     1       1.812   5.428  20.373  0.00  0.00    +0.000 C 
BRANCH   4   5
ATOM      5  C   UNL     1       2.565   6.464  19.537  0.00  0.00    +0.000 C 
BRANCH   5   9
ATOM      6  C   UNL     1       0.697  10.344  19.727  0.00  0.00    +0.000 A 
ATOM      7  C   UNL     1       1.289   9.900  18.538  0.00  0.00    +0.000 A 
ATOM      8  C   UNL     1       1.898   8.647  18.479  0.00  0.00    +0.000 A 
ATOM      9  C   UNL     1       1.912   7.819  19.609  0.00  0.00    +0.000 A 
ATOM     10  C   UNL     1       1.329   8.262  20.797  0.00  0.00    +0.000 A 
ATOM     11  C   UNL     1       0.722   9.514  20.855  0.00  0.00    +0.000 A 
BRANCH   6  13
ATOM     12  C   UNL     1       0.252  12.478  18.500  0.00  0.00    +0.000 C 
ATOM     13  C   UNL     1       0.016  11.685  19.776  0.00  0.00    +0.000 C 
ENDBRANCH   6  13
ENDBRANCH   5   9
ENDBRANCH   4   5
ENDBRANCH   3   4
ENDBRANCH   2   3
ENDBRANCH   1   2
BRANCH   1  14
ATOM     14  C   UNL     1       3.895   2.986  18.328  0.00  0.00    +0.000 C 
BRANCH  14  15
ATOM     15  C   UNL     1       4.933   3.871  17.652  0.00  0.00    +0.000 C 
BRANCH  15  16
ATOM     16  C   UNL     1       5.880   4.540  18.647  0.00  0.00    +0.000 C 
BRANCH  16  17
ATOM     17  C   UNL     1       7.171   5.148  18.032  0.00  0.00    +0.000 C 
BRANCH  17  18
ATOM     18  N   UNL     1       8.047   4.076  17.478  0.00  0.00    +0.000 NA
ATOM     19  H   UNL     1       8.859   3.960  18.084  0.00  0.00    +0.000 HD
ATOM     20  H   UNL     1       8.438   4.402  16.591  0.00  0.00    +0.000 HD
ENDBRANCH  17  18
BRANCH  17  21
ATOM     21  C   UNL     1       6.874   6.192  16.917  0.00  0.00    +0.000 C 
BRANCH  21  22
ATOM     22  O   UNL     1       7.195   5.714  15.613  0.00  0.00    +0.000 OA
ATOM     23  H   UNL     1       8.165   5.673  15.569  0.00  0.00    +0.000 HD
ENDBRANCH  21  22
ENDBRANCH  17  21
BRANCH  17  24
ATOM     24  C   UNL     1       7.965   5.853  19.164  0.00  0.00    +0.000 C 
BRANCH  24  25
ATOM     25  O   UNL     1       7.457   5.474  20.442  0.00  0.00    +0.000 OA
ATOM     26  H   UNL     1       7.156   6.311  20.850  0.00  0.00    +0.000 HD
ENDBRANCH  24  25
ENDBRANCH  17  24
ENDBRANCH  16  17
ENDBRANCH  15  16
ENDBRANCH  14  15
ENDBRANCH   1  14
TORSDOF 15
ENDMDL
