MODEL 1
REMARK VINA RESULT:      -6.2      0.000      0.000
REMARK  Name = 
REMARK  12 active torsions:
REMARK  status: ('A' for Active; 'I' for Inactive)
REMARK    1  A    between atoms: C_1  and  C_2
REMARK    2  A    between atoms: C_2  and  C_3
REMARK    3  A    between atoms: C_4  and  C_5
REMARK    4  A    between atoms: C_5  and  C_6
REMARK    5  A    between atoms: C_6  and  C_7
REMARK    6  A    between atoms: C_7  and  C_8
REMARK    7  A    between atoms: C_9  and  C_10
REMARK    8  A    between atoms: C_10  and  C_11
REMARK    9  A    between atoms: C_11  and  S_12
REMARK   10  A    between atoms: S_12  and  C_13
REMARK   11  A    between atoms: C_13  and  C_14
REMARK   12  A    between atoms: C_14  and  C_16
REMARK                            x       y       z     vdW  Elec       q    Type
REMARK                         _______ _______ _______ _____ _____    ______ ____
ROOT
ATOM      1  C   UNL     1       4.799   5.006  19.177  0.00  0.00    +0.000 C 
ENDROOT
BRANCH   1   4
ATOM      2  C   UNL     1       3.713   3.013  18.034  0.00  0.00    +0.000 C 
ATOM      3  C   UNL     1       3.701   1.515  17.843  0.00  0.00    +0.000 C 
ATOM      4  C   UNL     1       4.668   3.546  18.830  0.00  0.00    +0.000 C 
BRANCH   2   5
ATOM      5  C   UNL     1       2.650   3.888  17.382  0.00  0.00    +0.000 C 
BRANCH   5   6
ATOM      6  C   UNL     1       1.268   3.929  18.046  0.00  0.00    +0.000 C 
BRANCH   6  10
ATOM      7  C   UNL     1       1.221   2.810  21.792  0.00  0.00    +0.000 C 
ATOM      8  C   UNL     1       1.333   3.686  20.577  0.00  0.00    +0.000 C 
ATOM      9  C   UNL     1       1.551   5.156  20.813  0.00  0.00    +0.000 C 
ATOM     10  C   UNL     1       1.227   3.156  19.340  0.00  0.00    +0.000 C 
ENDBRANCH   6  10
ENDBRANCH   5   6
ENDBRANCH   2   5
ENDBRANCH   1   4
BRANCH   1  11
ATOM     11  C   UNL     1       6.141   5.616  18.757  0.00  0.00    +0.000 C 
BRANCH  11  12
ATOM     12  S   UNL     1       5.968   6.242  17.041  0.00  0.00    +0.000 S 
BRANCH  12  13
ATOM     13  C   UNL     1       7.400   5.454  16.260  0.00  0.00    +0.000 C 
BRANCH  13  14
ATOM     14  C   UNL     1       7.094   5.036  14.846  0.00  0.00    +0.000 C 
ATOM     15  O   UNL     1       7.699   5.556  13.899  0.00  0.00    +0.000 OA
BRANCH  14  16
ATOM     16  C   UNL     1       6.008   3.995  14.666  0.00  0.00    +0.000 C 
ATOM     17  F   UNL     1       5.935   3.109  15.698  0.00  0.00    +0.000 F 
ATOM     18  F   UNL     1       4.770   4.546  14.545  0.00  0.00    +0.000 F 
ATOM     19  F   UNL     1       6.208   3.244  13.547  0.00  0.00    +0.000 F 
ENDBRANCH  14  16
ENDBRANCH  13  14
ENDBRANCH  12  13
ENDBRANCH  11  12
ENDBRANCH   1  11
TORSDOF 9
ENDMDL
MODEL 2
REMARK VINA RESULT:      -6.0      1.528      2.184
REMARK  Name = 
REMARK  12 active torsions:
REMARK  status: ('A' for Active; 'I' for Inactive)
REMARK    1  A    between atoms: C_1  and  C_2
REMARK    2  A    between atoms: C_2  and  C_3
REMARK    3  A    between atoms: C_4  and  C_5
REMARK    4  A    between atoms: C_5  and  C_6
REMARK    5  A    between atoms: C_6  and  C_7
REMARK    6  A    between atoms: C_7  and  C_8
REMARK    7  A    between atoms: C_9  and  C_10
REMARK    8  A    between atoms: C_10  and  C_11
REMARK    9  A    between atoms: C_11  and  S_12
REMARK   10  A    between atoms: S_12  and  C_13
REMARK   11  A    between atoms: C_13  and  C_14
REMARK   12  A    between atoms: C_14  and  C_16
REMARK                            x       y       z     vdW  Elec       q    Type
REMARK                         _______ _______ _______ _____ _____    ______ ____
ROOT
ATOM      1  C   UNL     1       5.385   4.990  19.533  0.00  0.00    +0.000 C 
ENDROOT
BRANCH   1   4
ATOM      2  C   UNL     1       3.873   3.108  18.738  0.00  0.00    +0.000 C 
ATOM      3  C   UNL     1       3.765   1.801  17.990  0.00  0.00    +0.000 C 
ATOM      4  C   UNL     1       5.081   3.716  18.789  0.00  0.00    +0.000 C 
BRANCH   2   5
ATOM      5  C   UNL     1       2.662   3.698  19.450  0.00  0.00    +0.000 C 
BRANCH   5   6
ATOM      6  C   UNL     1       1.607   4.396  18.583  0.00  0.00    +0.000 C 
BRANCH   6  10
ATOM      7  C   UNL     1       2.965   7.969  17.762  0.00  0.00    +0.000 C 
ATOM      8  C   UNL     1       2.381   6.818  18.531  0.00  0.00    +0.000 C 
ATOM      9  C   UNL     1       2.101   7.044  19.992  0.00  0.00    +0.000 C 
ATOM     10  C   UNL     1       2.138   5.640  17.918  0.00  0.00    +0.000 C 
ENDBRANCH   6  10
ENDBRANCH   5   6
ENDBRANCH   2   5
ENDBRANCH   1   4
BRANCH   1  11
ATOM     11  C   UNL     1       6.756   5.584  19.192  0.00  0.00    +0.000 C 
BRANCH  11  12
ATOM     12  S   UNL     1       7.432   4.666  17.754  0.00  0.00    +0.000 S 
BRANCH  12  13
ATOM     13  C   UNL     1       7.097   5.849  16.423  0.00  0.00    +0.000 C 
BRANCH  13  14
ATOM     14  C   UNL     1       6.886   5.150  15.107  0.00  0.00    +0.000 C 
ATOM     15  O   UNL     1       7.676   5.335  14.171  0.00  0.00    +0.000 OA
BRANCH  14  16
ATOM     16  C   UNL     1       5.666   4.259  14.999  0.00  0.00    +0.000 C 
ATOM     17  F   UNL     1       5.889   2.985  15.426  0.00  0.00    +0.000 F 
ATOM     18  F   UNL     1       4.612   4.727  15.721  0.00  0.00    +0.000 F 
ATOM     19  F   UNL     1       5.233   4.147  13.712  0.00  0.00    +0.000 F 
ENDBRANCH  14  16
ENDBRANCH  13  14
ENDBRANCH  12  13
ENDBRANCH  11  12
ENDBRANCH   1  11
TORSDOF 9
ENDMDL
MODEL 3
REMARK VINA RESULT:      -5.9      4.008      7.042
REMARK  Name = 
REMARK  12 active torsions:
REMARK  status: ('A' for Active; 'I' for Inactive)
REMARK    1  A    between atoms: C_1  and  C_2
REMARK    2  A    between atoms: C_2  and  C_3
REMARK    3  A    between atoms: C_4  and  C_5
REMARK    4  A    between atoms: C_5  and  C_6
REMARK    5  A    between atoms: C_6  and  C_7
REMARK    6  A    between atoms: C_7  and  C_8
REMARK    7  A    between atoms: C_9  and  C_10
REMARK    8  A    between atoms: C_10  and  C_11
REMARK    9  A    between atoms: C_11  and  S_12
REMARK   10  A    between atoms: S_12  and  C_13
REMARK   11  A    between atoms: C_13  and  C_14
REMARK   12  A    between atoms: C_14  and  C_16
REMARK                            x       y       z     vdW  Elec       q    Type
REMARK                         _______ _______ _______ _____ _____    ______ ____
ROOT
ATOM      1  C   UNL     1       4.227   6.761  17.360  0.00  0.00    +0.000 C 
ENDROOT
BRANCH   1   4
ATOM      2  C   UNL     1       6.252   5.433  16.589  0.00  0.00    +0.000 C 
ATOM      3  C   UNL     1       7.457   4.614  16.989  0.00  0.00    +0.000 C 
ATOM      4  C   UNL     1       5.490   5.966  17.571  0.00  0.00    +0.000 C 
BRANCH   2   5
ATOM      5  C   UNL     1       5.889   5.613  15.121  0.00  0.00    +0.000 C 
BRANCH   5   6
ATOM      6  C   UNL     1       5.224   4.427  14.410  0.00  0.00    +0.000 C 
BRANCH   6  10
ATOM      7  C   UNL     1       6.943   2.559  11.436  0.00  0.00    +0.000 C 
ATOM      8  C   UNL     1       5.884   3.224  12.268  0.00  0.00    +0.000 C 
ATOM      9  C   UNL     1       4.513   3.345  11.659  0.00  0.00    +0.000 C 
ATOM     10  C   UNL     1       6.177   3.695  13.498  0.00  0.00    +0.000 C 
ENDBRANCH   6  10
ENDBRANCH   5   6
ENDBRANCH   2   5
ENDBRANCH   1   4
BRANCH   1  11
ATOM     11  C   UNL     1       3.007   6.171  18.073  0.00  0.00    +0.000 C 
BRANCH  11  12
ATOM     12  S   UNL     1       2.979   4.365  17.753  0.00  0.00    +0.000 S 
BRANCH  12  13
ATOM     13  C   UNL     1       1.259   3.983  18.176  0.00  0.00    +0.000 C 
BRANCH  13  14
ATOM     14  C   UNL     1       1.179   2.972  19.289  0.00  0.00    +0.000 C 
ATOM     15  O   UNL     1       0.843   1.805  19.047  0.00  0.00    +0.000 OA
BRANCH  14  16
ATOM     16  C   UNL     1       1.496   3.471  20.684  0.00  0.00    +0.000 C 
ATOM     17  F   UNL     1       2.828   3.471  20.967  0.00  0.00    +0.000 F 
ATOM     18  F   UNL     1       1.060   4.743  20.896  0.00  0.00    +0.000 F 
ATOM     19  F   UNL     1       0.915   2.698  21.643  0.00  0.00    +0.000 F 
ENDBRANCH  14  16
ENDBRANCH  13  14
ENDBRANCH  12  13
ENDBRANCH  11  12
ENDBRANCH   1  11
TORSDOF 9
ENDMDL
MODEL 4
REMARK VINA RESULT:      -5.9      1.067      2.160
REMARK  Name = 
REMARK  12 active torsions:
REMARK  status: ('A' for Active; 'I' for Inactive)
REMARK    1  A    between atoms: C_1  and  C_2
REMARK    2  A    between atoms: C_2  and  C_3
REMARK    3  A    between atoms: C_4  and  C_5
REMARK    4  A    between atoms: C_5  and  C_6
REMARK    5  A    between atoms: C_6  and  C_7
REMARK    6  A    between atoms: C_7  and  C_8
REMARK    7  A    between atoms: C_9  and  C_10
REMARK    8  A    between atoms: C_10  and  C_11
REMARK    9  A    between atoms: C_11  and  S_12
REMARK   10  A    between atoms: S_12  and  C_13
REMARK   11  A    between atoms: C_13  and  C_14
REMARK   12  A    between atoms: C_14  and  C_16
REMARK                            x       y       z     vdW  Elec       q    Type
REMARK                         _______ _______ _______ _____ _____    ______ ____
ROOT
ATOM      1  C   UNL     1       5.007   4.600  19.190  0.00  0.00    +0.000 C 
ENDROOT
BRANCH   1   4
ATOM      2  C   UNL     1       2.919   6.042  19.057  0.00  0.00    +0.000 C 
ATOM      3  C   UNL     1       2.144   7.204  19.632  0.00  0.00    +0.000 C 
ATOM      4  C   UNL     1       4.080   5.692  19.656  0.00  0.00    +0.000 C 
BRANCH   2   5
ATOM      5  C   UNL     1       2.422   5.317  17.813  0.00  0.00    +0.000 C 
BRANCH   5   6
ATOM      6  C   UNL     1       1.410   4.183  18.016  0.00  0.00    +0.000 C 
BRANCH   6  10
ATOM      7  C   UNL     1       1.562   2.614  21.593  0.00  0.00    +0.000 C 
ATOM      8  C   UNL     1       1.799   2.815  20.124  0.00  0.00    +0.000 C 
ATOM      9  C   UNL     1       2.718   1.838  19.441  0.00  0.00    +0.000 C 
ATOM     10  C   UNL     1       1.213   3.840  19.471  0.00  0.00    +0.000 C 
ENDBRANCH   6  10
ENDBRANCH   5   6
ENDBRANCH   2   5
ENDBRANCH   1   4
BRANCH   1  11
ATOM     11  C   UNL     1       6.444   5.076  18.956  0.00  0.00    +0.000 C 
BRANCH  11  12
ATOM     12  S   UNL     1       6.499   5.943  17.340  0.00  0.00    +0.000 S 
BRANCH  12  13
ATOM     13  C   UNL     1       7.576   4.825  16.405  0.00  0.00    +0.000 C 
BRANCH  13  14
ATOM     14  C   UNL     1       7.252   4.853  14.935  0.00  0.00    +0.000 C 
ATOM     15  O   UNL     1       7.905   5.574  14.167  0.00  0.00    +0.000 OA
BRANCH  14  16
ATOM     16  C   UNL     1       6.092   3.993  14.478  0.00  0.00    +0.000 C 
ATOM     17  F   UNL     1       4.920   4.678  14.377  0.00  0.00    +0.000 F 
ATOM     18  F   UNL     1       6.310   3.425  13.260  0.00  0.00    +0.000 F 
ATOM     19  F   UNL     1       5.849   2.969  15.344  0.00  0.00    +0.000 F 
ENDBRANCH  14  16
ENDBRANCH  13  14
ENDBRANCH  12  13
ENDBRANCH  11  12
ENDBRANCH   1  11
TORSDOF 9
ENDMDL
MODEL 5
REMARK VINA RESULT:      -5.9      2.678      3.262
REMARK  Name = 
REMARK  12 active torsions:
REMARK  status: ('A' for Active; 'I' for Inactive)
REMARK    1  A    between atoms: C_1  and  C_2
REMARK    2  A    between atoms: C_2  and  C_3
REMARK    3  A    between atoms: C_4  and  C_5
REMARK    4  A    between atoms: C_5  and  C_6
REMARK    5  A    between atoms: C_6  and  C_7
REMARK    6  A    between atoms: C_7  and  C_8
REMARK    7  A    between atoms: C_9  and  C_10
REMARK    8  A    between atoms: C_10  and  C_11
REMARK    9  A    between atoms: C_11  and  S_12
REMARK   10  A    between atoms: S_12  and  C_13
REMARK   11  A    between atoms: C_13  and  C_14
REMARK   12  A    between atoms: C_14  and  C_16
REMARK                            x       y       z     vdW  Elec       q    Type
REMARK                         _______ _______ _______ _____ _____    ______ ____
ROOT
ATOM      1  C   UNL     1       4.218   4.094  16.861  0.00  0.00    +0.000 C 
ENDROOT
BRANCH   1   4
ATOM      2  C   UNL     1       3.916   2.422  18.752  0.00  0.00    +0.000 C 
ATOM      3  C   UNL     1       4.465   1.854  20.039  0.00  0.00    +0.000 C 
ATOM      4  C   UNL     1       4.635   3.379  18.120  0.00  0.00    +0.000 C 
BRANCH   2   5
ATOM      5  C   UNL     1       2.571   1.958  18.209  0.00  0.00    +0.000 C 
BRANCH   5   6
ATOM      6  C   UNL     1       1.320   2.337  19.011  0.00  0.00    +0.000 C 
BRANCH   6  10
ATOM      7  C   UNL     1       1.528   5.873  20.666  0.00  0.00    +0.000 C 
ATOM      8  C   UNL     1       1.577   4.380  20.503  0.00  0.00    +0.000 C 
ATOM      9  C   UNL     1       2.006   3.577  21.701  0.00  0.00    +0.000 C 
ATOM     10  C   UNL     1       1.259   3.811  19.322  0.00  0.00    +0.000 C 
ENDBRANCH   6  10
ENDBRANCH   5   6
ENDBRANCH   2   5
ENDBRANCH   1   4
BRANCH   1  11
ATOM     11  C   UNL     1       5.156   3.842  15.676  0.00  0.00    +0.000 C 
BRANCH  11  12
ATOM     12  S   UNL     1       5.840   5.458  15.140  0.00  0.00    +0.000 S 
BRANCH  12  13
ATOM     13  C   UNL     1       6.262   6.184  16.746  0.00  0.00    +0.000 C 
BRANCH  13  14
ATOM     14  C   UNL     1       7.390   5.439  17.406  0.00  0.00    +0.000 C 
ATOM     15  O   UNL     1       7.987   4.542  16.793  0.00  0.00    +0.000 OA
BRANCH  14  16
ATOM     16  C   UNL     1       7.716   5.825  18.834  0.00  0.00    +0.000 C 
ATOM     17  F   UNL     1       8.214   7.087  18.951  0.00  0.00    +0.000 F 
ATOM     18  F   UNL     1       6.631   5.764  19.653  0.00  0.00    +0.000 F 
ATOM     19  F   UNL     1       8.657   5.004  19.379  0.00  0.00    +0.000 F 
ENDBRANCH  14  16
ENDBRANCH  13  14
ENDBRANCH  12  13
ENDBRANCH  11  12
ENDBRANCH   1  11
TORSDOF 9
ENDMDL
MODEL 6
REMARK VINA RESULT:      -5.9      4.118      7.149
REMARK  Name = 
REMARK  12 active torsions:
REMARK  status: ('A' for Active; 'I' for Inactive)
REMARK    1  A    between atoms: C_1  and  C_2
REMARK    2  A    between atoms: C_2  and  C_3
REMARK    3  A    between atoms: C_4  and  C_5
REMARK    4  A    between atoms: C_5  and  C_6
REMARK    5  A    between atoms: C_6  and  C_7
REMARK    6  A    between atoms: C_7  and  C_8
REMARK    7  A    between atoms: C_9  and  C_10
REMARK    8  A    between atoms: C_10  and  C_11
REMARK    9  A    between atoms: C_11  and  S_12
REMARK   10  A    between atoms: S_12  and  C_13
REMARK   11  A    between atoms: C_13  and  C_14
REMARK   12  A    between atoms: C_14  and  C_16
REMARK                            x       y       z     vdW  Elec       q    Type
REMARK                         _______ _______ _______ _____ _____    ______ ____
ROOT
ATOM      1  C   UNL     1       3.694   3.925  16.740  0.00  0.00    +0.000 C 
ENDROOT
BRANCH   1   4
ATOM      2  C   UNL     1       5.998   4.751  16.056  0.00  0.00    +0.000 C 
ATOM      3  C   UNL     1       7.115   5.736  16.305  0.00  0.00    +0.000 C 
ATOM      4  C   UNL     1       4.880   4.851  16.812  0.00  0.00    +0.000 C 
BRANCH   2   5
ATOM      5  C   UNL     1       6.150   3.651  15.014  0.00  0.00    +0.000 C 
BRANCH   5   6
ATOM      6  C   UNL     1       6.442   4.084  13.571  0.00  0.00    +0.000 C 
BRANCH   6  10
ATOM      7  C   UNL     1       3.703   3.056  10.978  0.00  0.00    +0.000 C 
ATOM      8  C   UNL     1       4.987   3.055  11.756  0.00  0.00    +0.000 C 
ATOM      9  C   UNL     1       5.969   1.956  11.453  0.00  0.00    +0.000 C 
ATOM     10  C   UNL     1       5.222   4.002  12.688  0.00  0.00    +0.000 C 
ENDBRANCH   6  10
ENDBRANCH   5   6
ENDBRANCH   2   5
ENDBRANCH   1   4
BRANCH   1  11
ATOM     11  C   UNL     1       3.831   2.685  17.629  0.00  0.00    +0.000 C 
BRANCH  11  12
ATOM     12  S   UNL     1       4.350   3.239  19.300  0.00  0.00    +0.000 S 
BRANCH  12  13
ATOM     13  C   UNL     1       3.175   2.321  20.329  0.00  0.00    +0.000 C 
BRANCH  13  14
ATOM     14  C   UNL     1       2.176   3.242  20.977  0.00  0.00    +0.000 C 
ATOM     15  O   UNL     1       2.241   3.476  22.192  0.00  0.00    +0.000 OA
BRANCH  14  16
ATOM     16  C   UNL     1       1.103   3.821  20.077  0.00  0.00    +0.000 C 
ATOM     17  F   UNL     1       0.326   2.872  19.486  0.00  0.00    +0.000 F 
ATOM     18  F   UNL     1       0.254   4.650  20.744  0.00  0.00    +0.000 F 
ATOM     19  F   UNL     1       1.635   4.551  19.058  0.00  0.00    +0.000 F 
ENDBRANCH  14  16
ENDBRANCH  13  14
ENDBRANCH  12  13
ENDBRANCH  11  12
ENDBRANCH   1  11
TORSDOF 9
ENDMDL
MODEL 7
REMARK VINA RESULT:      -5.9      3.986      7.092
REMARK  Name = 
REMARK  12 active torsions:
REMARK  status: ('A' for Active; 'I' for Inactive)
REMARK    1  A    between atoms: C_1  and  C_2
REMARK    2  A    between atoms: C_2  and  C_3
REMARK    3  A    between atoms: C_4  and  C_5
REMARK    4  A    between atoms: C_5  and  C_6
REMARK    5  A    between atoms: C_6  and  C_7
REMARK    6  A    between atoms: C_7  and  C_8
REMARK    7  A    between atoms: C_9  and  C_10
REMARK    8  A    between atoms: C_10  and  C_11
REMARK    9  A    between atoms: C_11  and  S_12
REMARK   10  A    between atoms: S_12  and  C_13
REMARK   11  A    between atoms: C_13  and  C_14
REMARK   12  A    between atoms: C_14  and  C_16
REMARK                            x       y       z     vdW  Elec       q    Type
REMARK                         _______ _______ _______ _____ _____    ______ ____
ROOT
ATOM      1  C   UNL     1       5.324   4.225  18.488  0.00  0.00    +0.000 C 
ENDROOT
BRANCH   1   4
ATOM      2  C   UNL     1       6.534   6.171  17.389  0.00  0.00    +0.000 C 
ATOM      3  C   UNL     1       7.519   7.303  17.552  0.00  0.00    +0.000 C 
ATOM      4  C   UNL     1       6.239   5.422  18.476  0.00  0.00    +0.000 C 
BRANCH   2   5
ATOM      5  C   UNL     1       5.927   5.859  16.027  0.00  0.00    +0.000 C 
BRANCH   5   6
ATOM      6  C   UNL     1       6.771   5.026  15.055  0.00  0.00    +0.000 C 
BRANCH   6  10
ATOM      7  C   UNL     1       5.295   3.008  12.049  0.00  0.00    +0.000 C 
ATOM      8  C   UNL     1       6.194   3.914  12.841  0.00  0.00    +0.000 C 
ATOM      9  C   UNL     1       7.390   4.484  12.127  0.00  0.00    +0.000 C 
ATOM     10  C   UNL     1       5.925   4.180  14.137  0.00  0.00    +0.000 C 
ENDBRANCH   6  10
ENDBRANCH   5   6
ENDBRANCH   2   5
ENDBRANCH   1   4
BRANCH   1  11
ATOM     11  C   UNL     1       3.864   4.573  18.796  0.00  0.00    +0.000 C 
BRANCH  11  12
ATOM     12  S   UNL     1       2.823   3.904  17.441  0.00  0.00    +0.000 S 
BRANCH  12  13
ATOM     13  C   UNL     1       1.311   3.505  18.356  0.00  0.00    +0.000 C 
BRANCH  13  14
ATOM     14  C   UNL     1       1.617   2.727  19.609  0.00  0.00    +0.000 C 
ATOM     15  O   UNL     1       2.075   1.579  19.533  0.00  0.00    +0.000 OA
BRANCH  14  16
ATOM     16  C   UNL     1       1.306   3.411  20.925  0.00  0.00    +0.000 C 
ATOM     17  F   UNL     1       2.417   3.849  21.580  0.00  0.00    +0.000 F 
ATOM     18  F   UNL     1       0.498   4.495  20.773  0.00  0.00    +0.000 F 
ATOM     19  F   UNL     1       0.672   2.574  21.793  0.00  0.00    +0.000 F 
ENDBRANCH  14  16
ENDBRANCH  13  14
ENDBRANCH  12  13
ENDBRANCH  11  12
ENDBRANCH   1  11
TORSDOF 9
ENDMDL
MODEL 8
REMARK VINA RESULT:      -5.8      3.100      6.339
REMARK  Name = 
REMARK  12 active torsions:
REMARK  status: ('A' for Active; 'I' for Inactive)
REMARK    1  A    between atoms: C_1  and  C_2
REMARK    2  A    between atoms: C_2  and  C_3
REMARK    3  A    between atoms: C_4  and  C_5
REMARK    4  A    between atoms: C_5  and  C_6
REMARK    5  A    between atoms: C_6  and  C_7
REMARK    6  A    between atoms: C_7  and  C_8
REMARK    7  A    between atoms: C_9  and  C_10
REMARK    8  A    between atoms: C_10  and  C_11
REMARK    9  A    between atoms: C_11  and  S_12
REMARK   10  A    between atoms: S_12  and  C_13
REMARK   11  A    between atoms: C_13  and  C_14
REMARK   12  A    between atoms: C_14  and  C_16
REMARK                            x       y       z     vdW  Elec       q    Type
REMARK                         _______ _______ _______ _____ _____    ______ ____
ROOT
ATOM      1  C   UNL     1       4.005   5.793  17.963  0.00  0.00    +0.000 C 
ENDROOT
BRANCH   1   4
ATOM      2  C   UNL     1       6.367   6.182  17.111  0.00  0.00    +0.000 C 
ATOM      3  C   UNL     1       7.539   7.130  17.018  0.00  0.00    +0.000 C 
ATOM      4  C   UNL     1       5.245   6.616  17.730  0.00  0.00    +0.000 C 
BRANCH   2   5
ATOM      5  C   UNL     1       6.469   4.766  16.560  0.00  0.00    +0.000 C 
BRANCH   5   6
ATOM      6  C   UNL     1       6.966   4.605  15.118  0.00  0.00    +0.000 C 
BRANCH   6  10
ATOM      7  C   UNL     1       4.930   3.210  12.087  0.00  0.00    +0.000 C 
ATOM      8  C   UNL     1       6.040   3.844  12.875  0.00  0.00    +0.000 C 
ATOM      9  C   UNL     1       7.279   4.236  12.117  0.00  0.00    +0.000 C 
ATOM     10  C   UNL     1       5.912   4.032  14.205  0.00  0.00    +0.000 C 
ENDBRANCH   6  10
ENDBRANCH   5   6
ENDBRANCH   2   5
ENDBRANCH   1   4
BRANCH   1  11
ATOM     11  C   UNL     1       3.604   5.694  19.438  0.00  0.00    +0.000 C 
BRANCH  11  12
ATOM     12  S   UNL     1       1.887   5.054  19.519  0.00  0.00    +0.000 S 
BRANCH  12  13
ATOM     13  C   UNL     1       1.869   3.980  18.059  0.00  0.00    +0.000 C 
BRANCH  13  14
ATOM     14  C   UNL     1       2.135   2.546  18.430  0.00  0.00    +0.000 C 
ATOM     15  O   UNL     1       1.203   1.812  18.788  0.00  0.00    +0.000 OA
BRANCH  14  16
ATOM     16  C   UNL     1       3.577   2.084  18.366  0.00  0.00    +0.000 C 
ATOM     17  F   UNL     1       4.333   2.536  19.404  0.00  0.00    +0.000 F 
ATOM     18  F   UNL     1       3.692   0.728  18.370  0.00  0.00    +0.000 F 
ATOM     19  F   UNL     1       4.199   2.521  17.236  0.00  0.00    +0.000 F 
ENDBRANCH  14  16
ENDBRANCH  13  14
ENDBRANCH  12  13
ENDBRANCH  11  12
ENDBRANCH   1  11
TORSDOF 9
ENDMDL
MODEL 9
REMARK VINA RESULT:      -5.8      3.395      5.894
REMARK  Name = 
REMARK  12 active torsions:
REMARK  status: ('A' for Active; 'I' for Inactive)
REMARK    1  A    between atoms: C_1  and  C_2
REMARK    2  A    between atoms: C_2  and  C_3
REMARK    3  A    between atoms: C_4  and  C_5
REMARK    4  A    between atoms: C_5  and  C_6
REMARK    5  A    between atoms: C_6  and  C_7
REMARK    6  A    between atoms: C_7  and  C_8
REMARK    7  A    between atoms: C_9  and  C_10
REMARK    8  A    between atoms: C_10  and  C_11
REMARK    9  A    between atoms: C_11  and  S_12
REMARK   10  A    between atoms: S_12  and  C_13
REMARK   11  A    between atoms: C_13  and  C_14
REMARK   12  A    between atoms: C_14  and  C_16
REMARK                            x       y       z     vdW  Elec       q    Type
REMARK                         _______ _______ _______ _____ _____    ______ ____
ROOT
ATOM      1  C   UNL     1       2.398   5.875  20.455  0.00  0.00    +0.000 C 
ENDROOT
BRANCH   1   4
ATOM      2  C   UNL     1       2.719   7.337  18.401  0.00  0.00    +0.000 C 
ATOM      3  C   UNL     1       2.456   8.670  17.742  0.00  0.00    +0.000 C 
ATOM      4  C   UNL     1       2.194   7.118  19.628  0.00  0.00    +0.000 C 
BRANCH   2   5
ATOM      5  C   UNL     1       3.589   6.291  17.716  0.00  0.00    +0.000 C 
BRANCH   5   6
ATOM      6  C   UNL     1       4.833   6.789  16.970  0.00  0.00    +0.000 C 
BRANCH   6  10
ATOM      7  C   UNL     1       6.299   4.093  14.548  0.00  0.00    +0.000 C 
ATOM      8  C   UNL     1       6.086   4.920  15.783  0.00  0.00    +0.000 C 
ATOM      9  C   UNL     1       6.909   4.567  16.992  0.00  0.00    +0.000 C 
ATOM     10  C   UNL     1       5.181   5.922  15.787  0.00  0.00    +0.000 C 
ENDBRANCH   6  10
ENDBRANCH   5   6
ENDBRANCH   2   5
ENDBRANCH   1   4
BRANCH   1  11
ATOM     11  C   UNL     1       1.439   4.736  20.094  0.00  0.00    +0.000 C 
BRANCH  11  12
ATOM     12  S   UNL     1       1.670   3.389  21.317  0.00  0.00    +0.000 S 
BRANCH  12  13
ATOM     13  C   UNL     1       2.200   2.043  20.226  0.00  0.00    +0.000 C 
BRANCH  13  14
ATOM     14  C   UNL     1       1.947   2.376  18.780  0.00  0.00    +0.000 C 
ATOM     15  O   UNL     1       0.787   2.422  18.345  0.00  0.00    +0.000 OA
BRANCH  14  16
ATOM     16  C   UNL     1       3.167   2.614  17.913  0.00  0.00    +0.000 C 
ATOM     17  F   UNL     1       2.887   3.284  16.761  0.00  0.00    +0.000 F 
ATOM     18  F   UNL     1       4.129   3.335  18.552  0.00  0.00    +0.000 F 
ATOM     19  F   UNL     1       3.751   1.445  17.529  0.00  0.00    +0.000 F 
ENDBRANCH  14  16
ENDBRANCH  13  14
ENDBRANCH  12  13
ENDBRANCH  11  12
ENDBRANCH   1  11
TORSDOF 9
ENDMDL
