MODEL 1
REMARK VINA RESULT:      -7.6      0.000      0.000
REMARK  Name = 
REMARK  2 active torsions:
REMARK  status: ('A' for Active; 'I' for Inactive)
REMARK    1  A    between atoms: C_4  and  S_5
REMARK    2  A    between atoms: S_5  and  C_6
REMARK                            x       y       z     vdW  Elec       q    Type
REMARK                         _______ _______ _______ _____ _____    ______ ____
ROOT
ATOM      1  C   UNL     1       3.191   5.576  17.952  0.00  0.00    +0.000 A 
ATOM      2  N   UNL     1       3.220   6.860  18.394  0.00  0.00    +0.000 NA
ATOM      3  C   UNL     1       2.531   7.140  19.515  0.00  0.00    +0.000 A 
ATOM      4  C   UNL     1       1.888   6.183  20.276  0.00  0.00    +0.000 A 
ATOM      5  C   UNL     1       1.805   4.879  19.783  0.00  0.00    +0.000 A 
ATOM      6  C   UNL     1       1.136   3.884  20.512  0.00  0.00    +0.000 A 
ATOM      7  C   UNL     1       0.863   2.647  19.936  0.00  0.00    +0.000 A 
ATOM      8  C   UNL     1       1.300   2.373  18.646  0.00  0.00    +0.000 A 
ATOM      9  C   UNL     1       2.103   3.297  17.974  0.00  0.00    +0.000 A 
ATOM     10  C   UNL     1       2.383   4.570  18.534  0.00  0.00    +0.000 A 
ENDROOT
BRANCH   1  11
ATOM     11  S   UNL     1       4.502   5.178  16.806  0.00  0.00    +0.000 S 
BRANCH  11  15
ATOM     12  C   UNL     1       8.188   7.103  18.537  0.00  0.00    +0.000 A 
ATOM     13  C   UNL     1       7.709   5.945  19.145  0.00  0.00    +0.000 A 
ATOM     14  C   UNL     1       6.551   5.346  18.650  0.00  0.00    +0.000 A 
ATOM     15  C   UNL     1       5.906   5.930  17.566  0.00  0.00    +0.000 A 
ATOM     16  N   UNL     1       6.358   7.056  16.964  0.00  0.00    +0.000 NA
ATOM     17  C   UNL     1       7.489   7.610  17.458  0.00  0.00    +0.000 A 
ENDBRANCH  11  15
ENDBRANCH   1  11
TORSDOF 2
ENDMDL
MODEL 2
REMARK VINA RESULT:      -7.6      2.801      3.438
REMARK  Name = 
REMARK  2 active torsions:
REMARK  status: ('A' for Active; 'I' for Inactive)
REMARK    1  A    between atoms: C_4  and  S_5
REMARK    2  A    between atoms: S_5  and  C_6
REMARK                            x       y       z     vdW  Elec       q    Type
REMARK                         _______ _______ _______ _____ _____    ______ ____
ROOT
ATOM      1  C   UNL     1       4.954   5.394  17.026  0.00  0.00    +0.000 A 
ATOM      2  N   UNL     1       4.896   6.751  16.991  0.00  0.00    +0.000 NA
ATOM      3  C   UNL     1       3.775   7.330  17.457  0.00  0.00    +0.000 A 
ATOM      4  C   UNL     1       2.741   6.630  18.047  0.00  0.00    +0.000 A 
ATOM      5  C   UNL     1       2.776   5.234  18.020  0.00  0.00    +0.000 A 
ATOM      6  C   UNL     1       1.730   4.486  18.583  0.00  0.00    +0.000 A 
ATOM      7  C   UNL     1       1.650   3.112  18.372  0.00  0.00    +0.000 A 
ATOM      8  C   UNL     1       2.639   2.465  17.642  0.00  0.00    +0.000 A 
ATOM      9  C   UNL     1       3.763   3.175  17.214  0.00  0.00    +0.000 A 
ATOM     10  C   UNL     1       3.862   4.577  17.405  0.00  0.00    +0.000 A 
ENDROOT
BRANCH   1  11
ATOM     11  S   UNL     1       6.611   4.739  16.891  0.00  0.00    +0.000 S 
BRANCH  11  15
ATOM     12  C   UNL     1       7.069   4.484  12.417  0.00  0.00    +0.000 A 
ATOM     13  C   UNL     1       6.107   3.679  13.022  0.00  0.00    +0.000 A 
ATOM     14  C   UNL     1       5.966   3.713  14.409  0.00  0.00    +0.000 A 
ATOM     15  C   UNL     1       6.797   4.548  15.146  0.00  0.00    +0.000 A 
ATOM     16  N   UNL     1       7.737   5.338  14.574  0.00  0.00    +0.000 NA
ATOM     17  C   UNL     1       7.845   5.292  13.226  0.00  0.00    +0.000 A 
ENDBRANCH  11  15
ENDBRANCH   1  11
TORSDOF 2
ENDMDL
MODEL 3
REMARK VINA RESULT:      -7.4      0.784      1.208
REMARK  Name = 
REMARK  2 active torsions:
REMARK  status: ('A' for Active; 'I' for Inactive)
REMARK    1  A    between atoms: C_4  and  S_5
REMARK    2  A    between atoms: S_5  and  C_6
REMARK                            x       y       z     vdW  Elec       q    Type
REMARK                         _______ _______ _______ _____ _____    ______ ____
ROOT
ATOM      1  C   UNL     1       3.368   5.245  17.873  0.00  0.00    +0.000 A 
ATOM      2  N   UNL     1       3.458   6.559  18.205  0.00  0.00    +0.000 NA
ATOM      3  C   UNL     1       2.740   6.975  19.264  0.00  0.00    +0.000 A 
ATOM      4  C   UNL     1       2.008   6.128  20.073  0.00  0.00    +0.000 A 
ATOM      5  C   UNL     1       1.866   4.793  19.689  0.00  0.00    +0.000 A 
ATOM      6  C   UNL     1       1.106   3.906  20.467  0.00  0.00    +0.000 A 
ATOM      7  C   UNL     1       0.782   2.641  19.986  0.00  0.00    +0.000 A 
ATOM      8  C   UNL     1       1.255   2.230  18.747  0.00  0.00    +0.000 A 
ATOM      9  C   UNL     1       2.141   3.043  18.037  0.00  0.00    +0.000 A 
ATOM     10  C   UNL     1       2.476   4.342  18.499  0.00  0.00    +0.000 A 
ENDROOT
BRANCH   1  11
ATOM     11  S   UNL     1       4.699   4.673  16.828  0.00  0.00    +0.000 S 
BRANCH  11  15
ATOM     12  C   UNL     1       8.157   6.797  18.782  0.00  0.00    +0.000 A 
ATOM     13  C   UNL     1       7.623   7.350  17.620  0.00  0.00    +0.000 A 
ATOM     14  C   UNL     1       6.574   6.696  16.975  0.00  0.00    +0.000 A 
ATOM     15  C   UNL     1       6.097   5.505  17.512  0.00  0.00    +0.000 A 
ATOM     16  N   UNL     1       6.604   4.954  18.641  0.00  0.00    +0.000 NA
ATOM     17  C   UNL     1       7.615   5.615  19.251  0.00  0.00    +0.000 A 
ENDBRANCH  11  15
ENDBRANCH   1  11
TORSDOF 2
ENDMDL
MODEL 4
REMARK VINA RESULT:      -7.3      2.030      5.739
REMARK  Name = 
REMARK  2 active torsions:
REMARK  status: ('A' for Active; 'I' for Inactive)
REMARK    1  A    between atoms: C_4  and  S_5
REMARK    2  A    between atoms: S_5  and  C_6
REMARK                            x       y       z     vdW  Elec       q    Type
REMARK                         _______ _______ _______ _____ _____    ______ ____
ROOT
ATOM      1  C   UNL     1       4.895   5.430  18.400  0.00  0.00    +0.000 A 
ATOM      2  N   UNL     1       5.648   5.571  19.522  0.00  0.00    +0.000 NA
ATOM      3  C   UNL     1       6.979   5.426  19.389  0.00  0.00    +0.000 A 
ATOM      4  C   UNL     1       7.612   5.240  18.176  0.00  0.00    +0.000 A 
ATOM      5  C   UNL     1       6.830   5.030  17.038  0.00  0.00    +0.000 A 
ATOM      6  C   UNL     1       7.434   4.809  15.791  0.00  0.00    +0.000 A 
ATOM      7  C   UNL     1       6.676   4.388  14.702  0.00  0.00    +0.000 A 
ATOM      8  C   UNL     1       5.302   4.233  14.833  0.00  0.00    +0.000 A 
ATOM      9  C   UNL     1       4.672   4.603  16.024  0.00  0.00    +0.000 A 
ATOM     10  C   UNL     1       5.424   5.022  17.152  0.00  0.00    +0.000 A 
ENDROOT
BRANCH   1  11
ATOM     11  S   UNL     1       3.257   6.131  18.539  0.00  0.00    +0.000 S 
BRANCH  11  15
ATOM     12  C   UNL     1       1.191   2.789  20.742  0.00  0.00    +0.000 A 
ATOM     13  C   UNL     1       1.007   2.875  19.364  0.00  0.00    +0.000 A 
ATOM     14  C   UNL     1       1.608   3.919  18.661  0.00  0.00    +0.000 A 
ATOM     15  C   UNL     1       2.369   4.847  19.362  0.00  0.00    +0.000 A 
ATOM     16  N   UNL     1       2.559   4.778  20.702  0.00  0.00    +0.000 NA
ATOM     17  C   UNL     1       1.972   3.749  21.357  0.00  0.00    +0.000 A 
ENDBRANCH  11  15
ENDBRANCH   1  11
TORSDOF 2
ENDMDL
MODEL 5
REMARK VINA RESULT:      -7.2      1.992      5.779
REMARK  Name = 
REMARK  2 active torsions:
REMARK  status: ('A' for Active; 'I' for Inactive)
REMARK    1  A    between atoms: C_4  and  S_5
REMARK    2  A    between atoms: S_5  and  C_6
REMARK                            x       y       z     vdW  Elec       q    Type
REMARK                         _______ _______ _______ _____ _____    ______ ____
ROOT
ATOM      1  C   UNL     1       4.924   5.442  18.324  0.00  0.00    +0.000 A 
ATOM      2  N   UNL     1       5.649   5.563  19.466  0.00  0.00    +0.000 NA
ATOM      3  C   UNL     1       6.984   5.428  19.363  0.00  0.00    +0.000 A 
ATOM      4  C   UNL     1       7.647   5.272  18.162  0.00  0.00    +0.000 A 
ATOM      5  C   UNL     1       6.893   5.082  17.001  0.00  0.00    +0.000 A 
ATOM      6  C   UNL     1       7.528   4.890  15.764  0.00  0.00    +0.000 A 
ATOM      7  C   UNL     1       6.799   4.489  14.649  0.00  0.00    +0.000 A 
ATOM      8  C   UNL     1       5.423   4.323  14.744  0.00  0.00    +0.000 A 
ATOM      9  C   UNL     1       4.763   4.664  15.927  0.00  0.00    +0.000 A 
ATOM     10  C   UNL     1       5.485   5.063  17.081  0.00  0.00    +0.000 A 
ENDROOT
BRANCH   1  11
ATOM     11  S   UNL     1       3.279   6.130  18.439  0.00  0.00    +0.000 S 
BRANCH  11  15
ATOM     12  C   UNL     1       0.731   2.686  19.828  0.00  0.00    +0.000 A 
ATOM     13  C   UNL     1       1.133   3.624  20.775  0.00  0.00    +0.000 A 
ATOM     14  C   UNL     1       1.950   4.683  20.380  0.00  0.00    +0.000 A 
ATOM     15  C   UNL     1       2.343   4.765  19.049  0.00  0.00    +0.000 A 
ATOM     16  N   UNL     1       1.960   3.862  18.115  0.00  0.00    +0.000 NA
ATOM     17  C   UNL     1       1.159   2.850  18.524  0.00  0.00    +0.000 A 
ENDBRANCH  11  15
ENDBRANCH   1  11
TORSDOF 2
ENDMDL
MODEL 6
REMARK VINA RESULT:      -7.2      1.429      2.546
REMARK  Name = 
REMARK  2 active torsions:
REMARK  status: ('A' for Active; 'I' for Inactive)
REMARK    1  A    between atoms: C_4  and  S_5
REMARK    2  A    between atoms: S_5  and  C_6
REMARK                            x       y       z     vdW  Elec       q    Type
REMARK                         _______ _______ _______ _____ _____    ______ ____
ROOT
ATOM      1  C   UNL     1       4.016   3.914  17.777  0.00  0.00    +0.000 A 
ATOM      2  N   UNL     1       4.191   2.584  17.563  0.00  0.00    +0.000 NA
ATOM      3  C   UNL     1       3.387   1.743  18.239  0.00  0.00    +0.000 A 
ATOM      4  C   UNL     1       2.351   2.161  19.050  0.00  0.00    +0.000 A 
ATOM      5  C   UNL     1       2.219   3.525  19.318  0.00  0.00    +0.000 A 
ATOM      6  C   UNL     1       1.196   3.989  20.160  0.00  0.00    +0.000 A 
ATOM      7  C   UNL     1       1.187   5.308  20.602  0.00  0.00    +0.000 A 
ATOM      8  C   UNL     1       2.168   6.191  20.168  0.00  0.00    +0.000 A 
ATOM      9  C   UNL     1       3.095   5.780  19.208  0.00  0.00    +0.000 A 
ATOM     10  C   UNL     1       3.133   4.437  18.751  0.00  0.00    +0.000 A 
ENDROOT
BRANCH   1  11
ATOM     11  S   UNL     1       4.726   4.948  16.504  0.00  0.00    +0.000 S 
BRANCH  11  15
ATOM     12  C   UNL     1       8.136   7.098  18.512  0.00  0.00    +0.000 A 
ATOM     13  C   UNL     1       7.775   5.845  19.002  0.00  0.00    +0.000 A 
ATOM     14  C   UNL     1       6.702   5.170  18.421  0.00  0.00    +0.000 A 
ATOM     15  C   UNL     1       6.020   5.776  17.371  0.00  0.00    +0.000 A 
ATOM     16  N   UNL     1       6.358   6.994  16.883  0.00  0.00    +0.000 NA
ATOM     17  C   UNL     1       7.410   7.621  17.460  0.00  0.00    +0.000 A 
ENDBRANCH  11  15
ENDBRANCH   1  11
TORSDOF 2
ENDMDL
MODEL 7
REMARK VINA RESULT:      -7.1      1.643      2.857
REMARK  Name = 
REMARK  2 active torsions:
REMARK  status: ('A' for Active; 'I' for Inactive)
REMARK    1  A    between atoms: C_4  and  S_5
REMARK    2  A    between atoms: S_5  and  C_6
REMARK                            x       y       z     vdW  Elec       q    Type
REMARK                         _______ _______ _______ _____ _____    ______ ____
ROOT
ATOM      1  C   UNL     1       3.957   3.680  17.908  0.00  0.00    +0.000 A 
ATOM      2  N   UNL     1       4.007   2.324  17.846  0.00  0.00    +0.000 NA
ATOM      3  C   UNL     1       3.147   1.642  18.623  0.00  0.00    +0.000 A 
ATOM      4  C   UNL     1       2.171   2.242  19.394  0.00  0.00    +0.000 A 
ATOM      5  C   UNL     1       2.168   3.634  19.505  0.00  0.00    +0.000 A 
ATOM      6  C   UNL     1       1.210   4.281  20.302  0.00  0.00    +0.000 A 
ATOM      7  C   UNL     1       1.329   5.638  20.590  0.00  0.00    +0.000 A 
ATOM      8  C   UNL     1       2.376   6.372  20.046  0.00  0.00    +0.000 A 
ATOM      9  C   UNL     1       3.240   5.772  19.127  0.00  0.00    +0.000 A 
ATOM     10  C   UNL     1       3.147   4.389  18.827  0.00  0.00    +0.000 A 
ENDROOT
BRANCH   1  11
ATOM     11  S   UNL     1       4.727   4.494  16.516  0.00  0.00    +0.000 S 
BRANCH  11  15
ATOM     12  C   UNL     1       8.044   6.650  18.669  0.00  0.00    +0.000 A 
ATOM     13  C   UNL     1       7.424   7.302  17.606  0.00  0.00    +0.000 A 
ATOM     14  C   UNL     1       6.416   6.645  16.900  0.00  0.00    +0.000 A 
ATOM     15  C   UNL     1       6.066   5.354  17.278  0.00  0.00    +0.000 A 
ATOM     16  N   UNL     1       6.659   4.707  18.310  0.00  0.00    +0.000 NA
ATOM     17  C   UNL     1       7.626   5.372  18.984  0.00  0.00    +0.000 A 
ENDBRANCH  11  15
ENDBRANCH   1  11
TORSDOF 2
ENDMDL
MODEL 8
REMARK VINA RESULT:      -7.0      2.356      2.856
REMARK  Name = 
REMARK  2 active torsions:
REMARK  status: ('A' for Active; 'I' for Inactive)
REMARK    1  A    between atoms: C_4  and  S_5
REMARK    2  A    between atoms: S_5  and  C_6
REMARK                            x       y       z     vdW  Elec       q    Type
REMARK                         _______ _______ _______ _____ _____    ______ ____
ROOT
ATOM      1  C   UNL     1       4.679   5.406  18.374  0.00  0.00    +0.000 A 
ATOM      2  N   UNL     1       4.254   6.586  17.851  0.00  0.00    +0.000 NA
ATOM      3  C   UNL     1       3.093   7.081  18.316  0.00  0.00    +0.000 A 
ATOM      4  C   UNL     1       2.376   6.509  19.348  0.00  0.00    +0.000 A 
ATOM      5  C   UNL     1       2.781   5.265  19.836  0.00  0.00    +0.000 A 
ATOM      6  C   UNL     1       2.063   4.636  20.864  0.00  0.00    +0.000 A 
ATOM      7  C   UNL     1       2.327   3.313  21.206  0.00  0.00    +0.000 A 
ATOM      8  C   UNL     1       3.344   2.621  20.560  0.00  0.00    +0.000 A 
ATOM      9  C   UNL     1       4.167   3.287  19.648  0.00  0.00    +0.000 A 
ATOM     10  C   UNL     1       3.909   4.631  19.274  0.00  0.00    +0.000 A 
ENDROOT
BRANCH   1  11
ATOM     11  S   UNL     1       6.417   5.085  18.109  0.00  0.00    +0.000 S 
BRANCH  11  15
ATOM     12  C   UNL     1       6.541   4.346  13.668  0.00  0.00    +0.000 A 
ATOM     13  C   UNL     1       5.595   3.652  14.419  0.00  0.00    +0.000 A 
ATOM     14  C   UNL     1       5.555   3.837  15.801  0.00  0.00    +0.000 A 
ATOM     15  C   UNL     1       6.469   4.705  16.387  0.00  0.00    +0.000 A 
ATOM     16  N   UNL     1       7.395   5.388  15.671  0.00  0.00    +0.000 NA
ATOM     17  C   UNL     1       7.404   5.197  14.331  0.00  0.00    +0.000 A 
ENDBRANCH  11  15
ENDBRANCH   1  11
TORSDOF 2
ENDMDL
MODEL 9
REMARK VINA RESULT:      -6.9      2.416      5.290
REMARK  Name = 
REMARK  2 active torsions:
REMARK  status: ('A' for Active; 'I' for Inactive)
REMARK    1  A    between atoms: C_4  and  S_5
REMARK    2  A    between atoms: S_5  and  C_6
REMARK                            x       y       z     vdW  Elec       q    Type
REMARK                         _______ _______ _______ _____ _____    ______ ____
ROOT
ATOM      1  C   UNL     1       5.238   4.659  18.687  0.00  0.00    +0.000 A 
ATOM      2  N   UNL     1       6.016   5.112  19.705  0.00  0.00    +0.000 NA
ATOM      3  C   UNL     1       7.221   5.615  19.380  0.00  0.00    +0.000 A 
ATOM      4  C   UNL     1       7.656   5.779  18.080  0.00  0.00    +0.000 A 
ATOM      5  C   UNL     1       6.882   5.253  17.043  0.00  0.00    +0.000 A 
ATOM      6  C   UNL     1       7.303   5.373  15.710  0.00  0.00    +0.000 A 
ATOM      7  C   UNL     1       6.656   4.671  14.697  0.00  0.00    +0.000 A 
ATOM      8  C   UNL     1       5.552   3.883  14.997  0.00  0.00    +0.000 A 
ATOM      9  C   UNL     1       5.031   3.883  16.293  0.00  0.00    +0.000 A 
ATOM     10  C   UNL     1       5.680   4.579  17.345  0.00  0.00    +0.000 A 
ENDROOT
BRANCH   1  11
ATOM     11  S   UNL     1       3.511   4.500  19.116  0.00  0.00    +0.000 S 
BRANCH  11  15
ATOM     12  C   UNL     1       1.862   8.689  18.962  0.00  0.00    +0.000 A 
ATOM     13  C   UNL     1       2.558   8.220  17.851  0.00  0.00    +0.000 A 
ATOM     14  C   UNL     1       3.108   6.939  17.883  0.00  0.00    +0.000 A 
ATOM     15  C   UNL     1       2.948   6.171  19.031  0.00  0.00    +0.000 A 
ATOM     16  N   UNL     1       2.274   6.611  20.120  0.00  0.00    +0.000 NA
ATOM     17  C   UNL     1       1.742   7.854  20.057  0.00  0.00    +0.000 A 
ENDBRANCH  11  15
ENDBRANCH   1  11
TORSDOF 2
ENDMDL
