MODEL 1
REMARK VINA RESULT:      -8.0      0.000      0.000
REMARK  Name = 
REMARK  9 active torsions:
REMARK  status: ('A' for Active; 'I' for Inactive)
REMARK    1  A    between atoms: C_1  and  O_2
REMARK    2  A    between atoms: O_2  and  C_3
REMARK    3  A    between atoms: C_3  and  C_5
REMARK    4  A    between atoms: C_6  and  O_7
REMARK    5  A    between atoms: O_7  and  C_8
REMARK    6  A    between atoms: C_8  and  C_9
REMARK    7  A    between atoms: N_22  and  C_23
REMARK    8  A    between atoms: C_23  and  C_24
REMARK    9  A    between atoms: N_33  and  C_34
REMARK                            x       y       z     vdW  Elec       q    Type
REMARK                         _______ _______ _______ _____ _____    ______ ____
ROOT
ATOM      1  C   UNL     1      -2.900  12.534  19.938  0.00  0.00    +0.000 A 
ATOM      2  C   UNL     1      -4.161  12.351  19.214  0.00  0.00    +0.000 A 
ATOM      3  C   UNL     1      -4.210  11.519  18.160  0.00  0.00    +0.000 A 
ATOM      4  C   UNL     1      -3.004  10.803  17.694  0.00  0.00    +0.000 A 
ATOM      5  O   UNL     1      -3.132   9.985  16.785  0.00  0.00    +0.000 OA
ATOM      6  N   UNL     1      -1.815  11.095  18.359  0.00  0.00    +0.000 N 
ATOM      7  C   UNL     1      -1.753  11.948  19.464  0.00  0.00    +0.000 A 
ATOM      8  C   UNL     1      -0.379  12.109  20.093  0.00  0.00    +0.000 C 
ATOM      9  C   UNL     1       0.089  10.860  20.870  0.00  0.00    +0.000 C 
ATOM     10  N   UNL     1       0.770   9.855  20.039  0.00  0.00    +0.000 NA
ATOM     11  C   UNL     1      -0.122   9.309  18.986  0.00  0.00    +0.000 C 
ATOM     12  C   UNL     1      -0.612  10.341  17.939  0.00  0.00    +0.000 C 
ENDROOT
BRANCH   1  13
ATOM     13  C   UNL     1      -2.873  13.148  21.313  0.00  0.00    +0.000 C 
ATOM     14  O   UNL     1      -2.828  14.328  21.600  0.00  0.00    +0.000 OA
BRANCH  13  16
ATOM     15  C   UNL     1      -3.177  12.536  23.564  0.00  0.00    +0.000 C 
ATOM     16  O   UNL     1      -3.101  12.153  22.203  0.00  0.00    +0.000 OA
ENDBRANCH  13  16
ENDBRANCH   1  13
BRANCH   2  17
ATOM     17  O   UNL     1      -5.382  12.857  19.668  0.00  0.00    +0.000 OA
BRANCH  17  18
ATOM     18  C   UNL     1      -6.159  12.058  20.577  0.00  0.00    +0.000 C 
BRANCH  18  19
ATOM     19  C   UNL     1      -6.544  12.768  21.864  0.00  0.00    +0.000 A 
ATOM     20  C   UNL     1      -6.745  14.149  21.886  0.00  0.00    +0.000 A 
ATOM     21  C   UNL     1      -7.257  14.740  23.041  0.00  0.00    +0.000 A 
ATOM     22  C   UNL     1      -7.563  13.945  24.139  0.00  0.00    +0.000 A 
ATOM     23  C   UNL     1      -7.340  12.585  24.038  0.00  0.00    +0.000 A 
ATOM     24  N   UNL     1      -6.840  11.982  22.934  0.00  0.00    +0.000 NA
ENDBRANCH  18  19
ENDBRANCH  17  18
ENDBRANCH   2  17
BRANCH  10  25
ATOM     25  C   UNL     1       1.308   8.765  20.897  0.00  0.00    +0.000 C 
BRANCH  25  26
ATOM     26  C   UNL     1       1.754   7.519  20.145  0.00  0.00    +0.000 A 
ATOM     27  C   UNL     1       2.634   7.498  19.060  0.00  0.00    +0.000 A 
ATOM     28  C   UNL     1       3.229   6.279  18.624  0.00  0.00    +0.000 A 
ATOM     29  C   UNL     1       3.040   5.058  19.302  0.00  0.00    +0.000 A 
ATOM     30  C   UNL     1       2.160   5.124  20.389  0.00  0.00    +0.000 A 
ATOM     31  C   UNL     1       1.457   6.296  20.730  0.00  0.00    +0.000 A 
ATOM     32  C   UNL     1       2.113   4.067  21.440  0.00  0.00    +0.000 C 
ATOM     33  C   UNL     1       2.741   2.748  21.090  0.00  0.00    +0.000 C 
ATOM     34  C   UNL     1       3.387   2.641  19.727  0.00  0.00    +0.000 C 
ATOM     35  N   UNL     1       3.743   3.889  19.039  0.00  0.00    +0.000 N 
ATOM     36  C   UNL     1       4.438   3.631  17.771  0.00  0.00    +0.000 C 
ENDBRANCH  25  26
ENDBRANCH  10  25
TORSDOF 7
ENDMDL
MODEL 2
REMARK VINA RESULT:      -7.5      1.320      1.643
REMARK  Name = 
REMARK  9 active torsions:
REMARK  status: ('A' for Active; 'I' for Inactive)
REMARK    1  A    between atoms: C_1  and  O_2
REMARK    2  A    between atoms: O_2  and  C_3
REMARK    3  A    between atoms: C_3  and  C_5
REMARK    4  A    between atoms: C_6  and  O_7
REMARK    5  A    between atoms: O_7  and  C_8
REMARK    6  A    between atoms: C_8  and  C_9
REMARK    7  A    between atoms: N_22  and  C_23
REMARK    8  A    between atoms: C_23  and  C_24
REMARK    9  A    between atoms: N_33  and  C_34
REMARK                            x       y       z     vdW  Elec       q    Type
REMARK                         _______ _______ _______ _____ _____    ______ ____
ROOT
ATOM      1  C   UNL     1      -2.868  12.520  20.852  0.00  0.00    +0.000 A 
ATOM      2  C   UNL     1      -4.020  12.498  19.946  0.00  0.00    +0.000 A 
ATOM      3  C   UNL     1      -3.894  11.958  18.722  0.00  0.00    +0.000 A 
ATOM      4  C   UNL     1      -2.603  11.410  18.256  0.00  0.00    +0.000 A 
ATOM      5  O   UNL     1      -2.574  10.845  17.164  0.00  0.00    +0.000 OA
ATOM      6  N   UNL     1      -1.522  11.552  19.123  0.00  0.00    +0.000 N 
ATOM      7  C   UNL     1      -1.642  12.100  20.403  0.00  0.00    +0.000 A 
ATOM      8  C   UNL     1      -0.366  12.127  21.228  0.00  0.00    +0.000 C 
ATOM      9  C   UNL     1       0.072  10.733  21.727  0.00  0.00    +0.000 C 
ATOM     10  N   UNL     1       0.904   9.986  20.770  0.00  0.00    +0.000 NA
ATOM     11  C   UNL     1       0.177   9.704  19.507  0.00  0.00    +0.000 C 
ATOM     12  C   UNL     1      -0.237  10.955  18.692  0.00  0.00    +0.000 C 
ENDROOT
BRANCH   1  13
ATOM     13  C   UNL     1      -3.043  12.768  22.327  0.00  0.00    +0.000 C 
ATOM     14  O   UNL     1      -3.194  11.943  23.207  0.00  0.00    +0.000 OA
BRANCH  13  16
ATOM     15  C   UNL     1      -2.747  14.494  23.899  0.00  0.00    +0.000 C 
ATOM     16  O   UNL     1      -2.813  14.084  22.544  0.00  0.00    +0.000 OA
ENDBRANCH  13  16
ENDBRANCH   1  13
BRANCH   2  17
ATOM     17  O   UNL     1      -5.313  12.845  20.346  0.00  0.00    +0.000 OA
BRANCH  17  18
ATOM     18  C   UNL     1      -5.734  14.211  20.190  0.00  0.00    +0.000 C 
BRANCH  18  19
ATOM     19  C   UNL     1      -5.959  14.952  21.499  0.00  0.00    +0.000 A 
ATOM     20  C   UNL     1      -6.418  14.277  22.631  0.00  0.00    +0.000 A 
ATOM     21  C   UNL     1      -6.454  14.952  23.852  0.00  0.00    +0.000 A 
ATOM     22  C   UNL     1      -6.026  16.272  23.917  0.00  0.00    +0.000 A 
ATOM     23  C   UNL     1      -5.582  16.869  22.752  0.00  0.00    +0.000 A 
ATOM     24  N   UNL     1      -5.539  16.244  21.553  0.00  0.00    +0.000 NA
ENDBRANCH  18  19
ENDBRANCH  17  18
ENDBRANCH   2  17
BRANCH  10  25
ATOM     25  C   UNL     1       1.392   8.728  21.395  0.00  0.00    +0.000 C 
BRANCH  25  26
ATOM     26  C   UNL     1       1.644   7.585  20.421  0.00  0.00    +0.000 A 
ATOM     27  C   UNL     1       2.404   7.670  19.252  0.00  0.00    +0.000 A 
ATOM     28  C   UNL     1       2.839   6.493  18.575  0.00  0.00    +0.000 A 
ATOM     29  C   UNL     1       2.610   5.199  19.082  0.00  0.00    +0.000 A 
ATOM     30  C   UNL     1       1.855   5.158  20.261  0.00  0.00    +0.000 A 
ATOM     31  C   UNL     1       1.299   6.310  20.849  0.00  0.00    +0.000 A 
ATOM     32  C   UNL     1       1.819   3.955  21.142  0.00  0.00    +0.000 C 
ATOM     33  C   UNL     1       2.286   2.665  20.532  0.00  0.00    +0.000 C 
ATOM     34  C   UNL     1       2.778   2.725  19.103  0.00  0.00    +0.000 C 
ATOM     35  N   UNL     1       3.174   4.036  18.571  0.00  0.00    +0.000 N 
ATOM     36  C   UNL     1       3.711   3.929  17.208  0.00  0.00    +0.000 C 
ENDBRANCH  25  26
ENDBRANCH  10  25
TORSDOF 7
ENDMDL
MODEL 3
REMARK VINA RESULT:      -7.4      2.104      3.874
REMARK  Name = 
REMARK  9 active torsions:
REMARK  status: ('A' for Active; 'I' for Inactive)
REMARK    1  A    between atoms: C_1  and  O_2
REMARK    2  A    between atoms: O_2  and  C_3
REMARK    3  A    between atoms: C_3  and  C_5
REMARK    4  A    between atoms: C_6  and  O_7
REMARK    5  A    between atoms: O_7  and  C_8
REMARK    6  A    between atoms: C_8  and  C_9
REMARK    7  A    between atoms: N_22  and  C_23
REMARK    8  A    between atoms: C_23  and  C_24
REMARK    9  A    between atoms: N_33  and  C_34
REMARK                            x       y       z     vdW  Elec       q    Type
REMARK                         _______ _______ _______ _____ _____    ______ ____
ROOT
ATOM      1  C   UNL     1      -1.606  11.988  20.693  0.00  0.00    +0.000 A 
ATOM      2  C   UNL     1      -1.632  12.512  22.062  0.00  0.00    +0.000 A 
ATOM      3  C   UNL     1      -1.084  11.798  23.059  0.00  0.00    +0.000 A 
ATOM      4  C   UNL     1      -0.479  10.472  22.809  0.00  0.00    +0.000 A 
ATOM      5  O   UNL     1       0.089   9.909  23.743  0.00  0.00    +0.000 OA
ATOM      6  N   UNL     1      -0.576   9.984  21.507  0.00  0.00    +0.000 N 
ATOM      7  C   UNL     1      -1.131  10.723  20.459  0.00  0.00    +0.000 A 
ATOM      8  C   UNL     1      -1.105  10.050  19.096  0.00  0.00    +0.000 C 
ATOM      9  C   UNL     1       0.305   9.984  18.472  0.00  0.00    +0.000 C 
ATOM     10  N   UNL     1       1.090   8.809  18.882  0.00  0.00    +0.000 NA
ATOM     11  C   UNL     1       1.343   8.795  20.345  0.00  0.00    +0.000 C 
ATOM     12  C   UNL     1       0.077   8.684  21.231  0.00  0.00    +0.000 C 
ENDROOT
BRANCH   1  13
ATOM     13  C   UNL     1      -1.864  12.885  19.512  0.00  0.00    +0.000 C 
ATOM     14  O   UNL     1      -2.806  12.852  18.744  0.00  0.00    +0.000 OA
BRANCH  13  16
ATOM     15  C   UNL     1       0.249  13.662  18.830  0.00  0.00    +0.000 C 
ATOM     16  O   UNL     1      -0.948  13.881  19.554  0.00  0.00    +0.000 OA
ENDBRANCH  13  16
ENDBRANCH   1  13
BRANCH   2  17
ATOM     17  O   UNL     1      -2.035  13.813  22.375  0.00  0.00    +0.000 OA
BRANCH  17  18
ATOM     18  C   UNL     1      -2.699  14.041  23.630  0.00  0.00    +0.000 C 
BRANCH  18  19
ATOM     19  C   UNL     1      -4.179  13.693  23.629  0.00  0.00    +0.000 A 
ATOM     20  C   UNL     1      -4.651  12.578  24.324  0.00  0.00    +0.000 A 
ATOM     21  C   UNL     1      -6.028  12.385  24.437  0.00  0.00    +0.000 A 
ATOM     22  C   UNL     1      -6.897  13.306  23.867  0.00  0.00    +0.000 A 
ATOM     23  C   UNL     1      -6.352  14.387  23.198  0.00  0.00    +0.000 A 
ATOM     24  N   UNL     1      -5.022  14.599  23.067  0.00  0.00    +0.000 NA
ENDBRANCH  18  19
ENDBRANCH  17  18
ENDBRANCH   2  17
BRANCH  10  25
ATOM     25  C   UNL     1       2.367   8.759  18.121  0.00  0.00    +0.000 C 
BRANCH  25  26
ATOM     26  C   UNL     1       3.035   7.392  18.080  0.00  0.00    +0.000 A 
ATOM     27  C   UNL     1       2.495   6.210  18.593  0.00  0.00    +0.000 A 
ATOM     28  C   UNL     1       3.041   4.942  18.239  0.00  0.00    +0.000 A 
ATOM     29  C   UNL     1       4.080   4.800  17.299  0.00  0.00    +0.000 A 
ATOM     30  C   UNL     1       4.586   6.007  16.801  0.00  0.00    +0.000 A 
ATOM     31  C   UNL     1       4.148   7.264  17.261  0.00  0.00    +0.000 A 
ATOM     32  C   UNL     1       5.404   6.073  15.555  0.00  0.00    +0.000 C 
ATOM     33  C   UNL     1       6.002   4.781  15.078  0.00  0.00    +0.000 C 
ATOM     34  C   UNL     1       5.685   3.544  15.888  0.00  0.00    +0.000 C 
ATOM     35  N   UNL     1       4.515   3.589  16.775  0.00  0.00    +0.000 N 
ATOM     36  C   UNL     1       4.279   2.294  17.428  0.00  0.00    +0.000 C 
ENDBRANCH  25  26
ENDBRANCH  10  25
TORSDOF 7
ENDMDL
MODEL 4
REMARK VINA RESULT:      -7.4      1.056      1.322
REMARK  Name = 
REMARK  9 active torsions:
REMARK  status: ('A' for Active; 'I' for Inactive)
REMARK    1  A    between atoms: C_1  and  O_2
REMARK    2  A    between atoms: O_2  and  C_3
REMARK    3  A    between atoms: C_3  and  C_5
REMARK    4  A    between atoms: C_6  and  O_7
REMARK    5  A    between atoms: O_7  and  C_8
REMARK    6  A    between atoms: C_8  and  C_9
REMARK    7  A    between atoms: N_22  and  C_23
REMARK    8  A    between atoms: C_23  and  C_24
REMARK    9  A    between atoms: N_33  and  C_34
REMARK                            x       y       z     vdW  Elec       q    Type
REMARK                         _______ _______ _______ _____ _____    ______ ____
ROOT
ATOM      1  C   UNL     1      -1.842  12.910  21.036  0.00  0.00    +0.000 A 
ATOM      2  C   UNL     1      -3.123  13.156  20.369  0.00  0.00    +0.000 A 
ATOM      3  C   UNL     1      -3.388  12.559  19.195  0.00  0.00    +0.000 A 
ATOM      4  C   UNL     1      -2.396  11.678  18.543  0.00  0.00    +0.000 A 
ATOM      5  O   UNL     1      -2.731  11.086  17.519  0.00  0.00    +0.000 OA
ATOM      6  N   UNL     1      -1.160  11.564  19.176  0.00  0.00    +0.000 N 
ATOM      7  C   UNL     1      -0.877  12.170  20.403  0.00  0.00    +0.000 A 
ATOM      8  C   UNL     1       0.507  11.893  20.968  0.00  0.00    +0.000 C 
ATOM      9  C   UNL     1       0.679  10.453  21.494  0.00  0.00    +0.000 C 
ATOM     10  N   UNL     1       1.086   9.481  20.467  0.00  0.00    +0.000 NA
ATOM     11  C   UNL     1       0.070   9.353  19.392  0.00  0.00    +0.000 C 
ATOM     12  C   UNL     1      -0.179  10.639  18.564  0.00  0.00    +0.000 C 
ENDROOT
BRANCH   1  13
ATOM     13  C   UNL     1      -1.645  13.248  22.491  0.00  0.00    +0.000 C 
ATOM     14  O   UNL     1      -1.217  14.283  22.963  0.00  0.00    +0.000 OA
BRANCH  13  16
ATOM     15  C   UNL     1      -3.387  12.589  23.929  0.00  0.00    +0.000 C 
ATOM     16  O   UNL     1      -2.211  12.253  23.215  0.00  0.00    +0.000 OA
ENDBRANCH  13  16
ENDBRANCH   1  13
BRANCH   2  17
ATOM     17  O   UNL     1      -4.181  13.842  20.973  0.00  0.00    +0.000 OA
BRANCH  17  18
ATOM     18  C   UNL     1      -5.521  13.379  20.736  0.00  0.00    +0.000 C 
BRANCH  18  19
ATOM     19  C   UNL     1      -6.457  13.530  21.924  0.00  0.00    +0.000 A 
ATOM     20  C   UNL     1      -7.198  12.445  22.392  0.00  0.00    +0.000 A 
ATOM     21  C   UNL     1      -7.917  12.578  23.581  0.00  0.00    +0.000 A 
ATOM     22  C   UNL     1      -7.872  13.780  24.276  0.00  0.00    +0.000 A 
ATOM     23  C   UNL     1      -7.112  14.807  23.749  0.00  0.00    +0.000 A 
ATOM     24  N   UNL     1      -6.408  14.711  22.597  0.00  0.00    +0.000 NA
ENDBRANCH  18  19
ENDBRANCH  17  18
ENDBRANCH   2  17
BRANCH  10  25
ATOM     25  C   UNL     1       1.364   8.162  21.095  0.00  0.00    +0.000 C 
BRANCH  25  26
ATOM     26  C   UNL     1       1.838   7.081  20.133  0.00  0.00    +0.000 A 
ATOM     27  C   UNL     1       2.603   7.298  18.985  0.00  0.00    +0.000 A 
ATOM     28  C   UNL     1       3.255   6.215  18.326  0.00  0.00    +0.000 A 
ATOM     29  C   UNL     1       3.240   4.900  18.831  0.00  0.00    +0.000 A 
ATOM     30  C   UNL     1       2.471   4.728  19.989  0.00  0.00    +0.000 A 
ATOM     31  C   UNL     1       1.707   5.766  20.557  0.00  0.00    +0.000 A 
ATOM     32  C   UNL     1       2.620   3.537  20.874  0.00  0.00    +0.000 C 
ATOM     33  C   UNL     1       3.321   2.348  20.282  0.00  0.00    +0.000 C 
ATOM     34  C   UNL     1       3.834   2.493  18.867  0.00  0.00    +0.000 C 
ATOM     35  N   UNL     1       4.011   3.853  18.341  0.00  0.00    +0.000 N 
ATOM     36  C   UNL     1       4.596   3.842  16.993  0.00  0.00    +0.000 C 
ENDBRANCH  25  26
ENDBRANCH  10  25
TORSDOF 7
ENDMDL
MODEL 5
REMARK VINA RESULT:      -7.4      2.470      3.801
REMARK  Name = 
REMARK  9 active torsions:
REMARK  status: ('A' for Active; 'I' for Inactive)
REMARK    1  A    between atoms: C_1  and  O_2
REMARK    2  A    between atoms: O_2  and  C_3
REMARK    3  A    between atoms: C_3  and  C_5
REMARK    4  A    between atoms: C_6  and  O_7
REMARK    5  A    between atoms: O_7  and  C_8
REMARK    6  A    between atoms: C_8  and  C_9
REMARK    7  A    between atoms: N_22  and  C_23
REMARK    8  A    between atoms: C_23  and  C_24
REMARK    9  A    between atoms: N_33  and  C_34
REMARK                            x       y       z     vdW  Elec       q    Type
REMARK                         _______ _______ _______ _____ _____    ______ ____
ROOT
ATOM      1  C   UNL     1      -0.306  12.239  20.370  0.00  0.00    +0.000 A 
ATOM      2  C   UNL     1      -0.530  12.560  21.782  0.00  0.00    +0.000 A 
ATOM      3  C   UNL     1      -0.515  11.578  22.699  0.00  0.00    +0.000 A 
ATOM      4  C   UNL     1      -0.306  10.168  22.307  0.00  0.00    +0.000 A 
ATOM      5  O   UNL     1      -0.209   9.327  23.199  0.00  0.00    +0.000 OA
ATOM      6  N   UNL     1      -0.200   9.915  20.941  0.00  0.00    +0.000 N 
ATOM      7  C   UNL     1      -0.202  10.929  19.979  0.00  0.00    +0.000 A 
ATOM      8  C   UNL     1      -0.025  10.469  18.541  0.00  0.00    +0.000 C 
ATOM      9  C   UNL     1       1.408   9.993  18.221  0.00  0.00    +0.000 C 
ATOM     10  N   UNL     1       1.653   8.575  18.529  0.00  0.00    +0.000 NA
ATOM     11  C   UNL     1       1.492   8.286  19.976  0.00  0.00    +0.000 C 
ATOM     12  C   UNL     1       0.067   8.515  20.539  0.00  0.00    +0.000 C 
ENDROOT
BRANCH   1  13
ATOM     13  C   UNL     1       0.048  13.313  19.375  0.00  0.00    +0.000 C 
ATOM     14  O   UNL     1      -0.709  13.959  18.676  0.00  0.00    +0.000 OA
BRANCH  13  16
ATOM     15  C   UNL     1       2.050  14.022  18.364  0.00  0.00    +0.000 C 
ATOM     16  O   UNL     1       1.367  13.580  19.523  0.00  0.00    +0.000 OA
ENDBRANCH  13  16
ENDBRANCH   1  13
BRANCH   2  17
ATOM     17  O   UNL     1      -0.580  13.869  22.270  0.00  0.00    +0.000 OA
BRANCH  17  18
ATOM     18  C   UNL     1      -1.392  14.139  23.426  0.00  0.00    +0.000 C 
BRANCH  18  19
ATOM     19  C   UNL     1      -2.884  13.960  23.200  0.00  0.00    +0.000 A 
ATOM     20  C   UNL     1      -3.656  13.210  24.088  0.00  0.00    +0.000 A 
ATOM     21  C   UNL     1      -5.044  13.206  23.941  0.00  0.00    +0.000 A 
ATOM     22  C   UNL     1      -5.626  13.950  22.922  0.00  0.00    +0.000 A 
ATOM     23  C   UNL     1      -4.793  14.669  22.085  0.00  0.00    +0.000 A 
ATOM     24  N   UNL     1      -3.445  14.690  22.200  0.00  0.00    +0.000 NA
ENDBRANCH  18  19
ENDBRANCH  17  18
ENDBRANCH   2  17
BRANCH  10  25
ATOM     25  C   UNL     1       3.005   8.178  18.055  0.00  0.00    +0.000 C 
BRANCH  25  26
ATOM     26  C   UNL     1       3.338   6.702  18.230  0.00  0.00    +0.000 A 
ATOM     27  C   UNL     1       4.437   6.197  18.929  0.00  0.00    +0.000 A 
ATOM     28  C   UNL     1       4.498   4.823  19.302  0.00  0.00    +0.000 A 
ATOM     29  C   UNL     1       3.435   3.927  19.072  0.00  0.00    +0.000 A 
ATOM     30  C   UNL     1       2.349   4.476  18.379  0.00  0.00    +0.000 A 
ATOM     31  C   UNL     1       2.350   5.792  17.880  0.00  0.00    +0.000 A 
ATOM     32  C   UNL     1       1.006   3.827  18.363  0.00  0.00    +0.000 C 
ATOM     33  C   UNL     1       0.956   2.382  18.769  0.00  0.00    +0.000 C 
ATOM     34  C   UNL     1       2.263   1.746  19.185  0.00  0.00    +0.000 C 
ATOM     35  N   UNL     1       3.361   2.637  19.582  0.00  0.00    +0.000 N 
ATOM     36  C   UNL     1       4.533   1.881  20.044  0.00  0.00    +0.000 C 
ENDBRANCH  25  26
ENDBRANCH  10  25
TORSDOF 7
ENDMDL
MODEL 6
REMARK VINA RESULT:      -7.4      3.467      5.611
REMARK  Name = 
REMARK  9 active torsions:
REMARK  status: ('A' for Active; 'I' for Inactive)
REMARK    1  A    between atoms: C_1  and  O_2
REMARK    2  A    between atoms: O_2  and  C_3
REMARK    3  A    between atoms: C_3  and  C_5
REMARK    4  A    between atoms: C_6  and  O_7
REMARK    5  A    between atoms: O_7  and  C_8
REMARK    6  A    between atoms: C_8  and  C_9
REMARK    7  A    between atoms: N_22  and  C_23
REMARK    8  A    between atoms: C_23  and  C_24
REMARK    9  A    between atoms: N_33  and  C_34
REMARK                            x       y       z     vdW  Elec       q    Type
REMARK                         _______ _______ _______ _____ _____    ______ ____
ROOT
ATOM      1  C   UNL     1      -0.237  13.283  20.105  0.00  0.00    +0.000 A 
ATOM      2  C   UNL     1      -0.382  14.487  20.928  0.00  0.00    +0.000 A 
ATOM      3  C   UNL     1      -0.759  14.374  22.213  0.00  0.00    +0.000 A 
ATOM      4  C   UNL     1      -1.062  13.056  22.809  0.00  0.00    +0.000 A 
ATOM      5  O   UNL     1      -1.310  13.008  24.013  0.00  0.00    +0.000 OA
ATOM      6  N   UNL     1      -1.003  11.960  21.950  0.00  0.00    +0.000 N 
ATOM      7  C   UNL     1      -0.601  12.063  20.616  0.00  0.00    +0.000 A 
ATOM      8  C   UNL     1      -0.548  10.754  19.844  0.00  0.00    +0.000 C 
ATOM      9  C   UNL     1       0.624   9.842  20.261  0.00  0.00    +0.000 C 
ATOM     10  N   UNL     1       0.326   8.964  21.403  0.00  0.00    +0.000 NA
ATOM     11  C   UNL     1       0.017   9.737  22.632  0.00  0.00    +0.000 C 
ATOM     12  C   UNL     1      -1.248  10.628  22.548  0.00  0.00    +0.000 C 
ENDROOT
BRANCH   1  13
ATOM     13  C   UNL     1       0.520  13.316  18.804  0.00  0.00    +0.000 C 
ATOM     14  O   UNL     1       0.085  13.565  17.696  0.00  0.00    +0.000 OA
BRANCH  13  16
ATOM     15  C   UNL     1       2.700  12.907  18.017  0.00  0.00    +0.000 C 
ATOM     16  O   UNL     1       1.837  13.203  19.101  0.00  0.00    +0.000 OA
ENDBRANCH  13  16
ENDBRANCH   1  13
BRANCH   2  17
ATOM     17  O   UNL     1       0.029  15.754  20.507  0.00  0.00    +0.000 OA
BRANCH  17  18
ATOM     18  C   UNL     1      -0.877  16.538  19.712  0.00  0.00    +0.000 C 
BRANCH  18  19
ATOM     19  C   UNL     1      -0.214  17.312  18.584  0.00  0.00    +0.000 A 
ATOM     20  C   UNL     1       1.135  17.117  18.281  0.00  0.00    +0.000 A 
ATOM     21  C   UNL     1       1.665  17.718  17.139  0.00  0.00    +0.000 A 
ATOM     22  C   UNL     1       0.843  18.488  16.326  0.00  0.00    +0.000 A 
ATOM     23  C   UNL     1      -0.483  18.631  16.693  0.00  0.00    +0.000 A 
ATOM     24  N   UNL     1      -1.025  18.065  17.795  0.00  0.00    +0.000 NA
ENDBRANCH  18  19
ENDBRANCH  17  18
ENDBRANCH   2  17
BRANCH  10  25
ATOM     25  C   UNL     1       1.458   8.028  21.635  0.00  0.00    +0.000 C 
BRANCH  25  26
ATOM     26  C   UNL     1       1.713   7.038  20.505  0.00  0.00    +0.000 A 
ATOM     27  C   UNL     1       2.646   7.203  19.479  0.00  0.00    +0.000 A 
ATOM     28  C   UNL     1       3.031   6.104  18.657  0.00  0.00    +0.000 A 
ATOM     29  C   UNL     1       2.569   4.792  18.881  0.00  0.00    +0.000 A 
ATOM     30  C   UNL     1       1.643   4.669  19.925  0.00  0.00    +0.000 A 
ATOM     31  C   UNL     1       1.151   5.777  20.641  0.00  0.00    +0.000 A 
ATOM     32  C   UNL     1       1.325   3.355  20.555  0.00  0.00    +0.000 C 
ATOM     33  C   UNL     1       1.717   2.129  19.780  0.00  0.00    +0.000 C 
ATOM     34  C   UNL     1       2.423   2.353  18.462  0.00  0.00    +0.000 C 
ATOM     35  N   UNL     1       3.055   3.660  18.239  0.00  0.00    +0.000 N 
ATOM     36  C   UNL     1       3.776   3.703  16.960  0.00  0.00    +0.000 C 
ENDBRANCH  25  26
ENDBRANCH  10  25
TORSDOF 7
ENDMDL
MODEL 7
REMARK VINA RESULT:      -7.3      2.086      3.826
REMARK  Name = 
REMARK  9 active torsions:
REMARK  status: ('A' for Active; 'I' for Inactive)
REMARK    1  A    between atoms: C_1  and  O_2
REMARK    2  A    between atoms: O_2  and  C_3
REMARK    3  A    between atoms: C_3  and  C_5
REMARK    4  A    between atoms: C_6  and  O_7
REMARK    5  A    between atoms: O_7  and  C_8
REMARK    6  A    between atoms: C_8  and  C_9
REMARK    7  A    between atoms: N_22  and  C_23
REMARK    8  A    between atoms: C_23  and  C_24
REMARK    9  A    between atoms: N_33  and  C_34
REMARK                            x       y       z     vdW  Elec       q    Type
REMARK                         _______ _______ _______ _____ _____    ______ ____
ROOT
ATOM      1  C   UNL     1      -1.646  11.959  20.794  0.00  0.00    +0.000 A 
ATOM      2  C   UNL     1      -1.673  12.458  22.172  0.00  0.00    +0.000 A 
ATOM      3  C   UNL     1      -1.115  11.732  23.155  0.00  0.00    +0.000 A 
ATOM      4  C   UNL     1      -0.496  10.418  22.879  0.00  0.00    +0.000 A 
ATOM      5  O   UNL     1       0.082   9.844  23.801  0.00  0.00    +0.000 OA
ATOM      6  N   UNL     1      -0.591   9.952  21.569  0.00  0.00    +0.000 N 
ATOM      7  C   UNL     1      -1.158  10.703  20.536  0.00  0.00    +0.000 A 
ATOM      8  C   UNL     1      -1.128  10.056  19.161  0.00  0.00    +0.000 C 
ATOM      9  C   UNL     1       0.280  10.016  18.531  0.00  0.00    +0.000 C 
ATOM     10  N   UNL     1       1.080   8.843  18.918  0.00  0.00    +0.000 NA
ATOM     11  C   UNL     1       1.338   8.805  20.379  0.00  0.00    +0.000 C 
ATOM     12  C   UNL     1       0.076   8.665  21.267  0.00  0.00    +0.000 C 
ENDROOT
BRANCH   1  13
ATOM     13  C   UNL     1      -1.918  12.874  19.629  0.00  0.00    +0.000 C 
ATOM     14  O   UNL     1      -2.925  12.936  18.951  0.00  0.00    +0.000 OA
BRANCH  13  16
ATOM     15  C   UNL     1      -0.040  13.670  18.456  0.00  0.00    +0.000 C 
ATOM     16  O   UNL     1      -0.903  13.769  19.575  0.00  0.00    +0.000 OA
ENDBRANCH  13  16
ENDBRANCH   1  13
BRANCH   2  17
ATOM     17  O   UNL     1      -2.091  13.748  22.509  0.00  0.00    +0.000 OA
BRANCH  17  18
ATOM     18  C   UNL     1      -3.255  13.896  23.340  0.00  0.00    +0.000 C 
BRANCH  18  19
ATOM     19  C   UNL     1      -4.574  13.829  22.590  0.00  0.00    +0.000 A 
ATOM     20  C   UNL     1      -5.191  14.991  22.123  0.00  0.00    +0.000 A 
ATOM     21  C   UNL     1      -6.311  14.878  21.299  0.00  0.00    +0.000 A 
ATOM     22  C   UNL     1      -6.782  13.618  20.953  0.00  0.00    +0.000 A 
ATOM     23  C   UNL     1      -6.114  12.516  21.452  0.00  0.00    +0.000 A 
ATOM     24  N   UNL     1      -5.029  12.592  22.257  0.00  0.00    +0.000 NA
ENDBRANCH  18  19
ENDBRANCH  17  18
ENDBRANCH   2  17
BRANCH  10  25
ATOM     25  C   UNL     1       2.355   8.821  18.153  0.00  0.00    +0.000 C 
BRANCH  25  26
ATOM     26  C   UNL     1       3.050   7.467  18.104  0.00  0.00    +0.000 A 
ATOM     27  C   UNL     1       2.557   6.284  18.658  0.00  0.00    +0.000 A 
ATOM     28  C   UNL     1       3.114   5.021  18.300  0.00  0.00    +0.000 A 
ATOM     29  C   UNL     1       4.115   4.885  17.318  0.00  0.00    +0.000 A 
ATOM     30  C   UNL     1       4.574   6.095  16.780  0.00  0.00    +0.000 A 
ATOM     31  C   UNL     1       4.130   7.349  17.240  0.00  0.00    +0.000 A 
ATOM     32  C   UNL     1       5.337   6.158  15.501  0.00  0.00    +0.000 C 
ATOM     33  C   UNL     1       5.942   4.870  15.018  0.00  0.00    +0.000 C 
ATOM     34  C   UNL     1       5.685   3.640  15.859  0.00  0.00    +0.000 C 
ATOM     35  N   UNL     1       4.554   3.675  16.795  0.00  0.00    +0.000 N 
ATOM     36  C   UNL     1       4.372   2.387  17.476  0.00  0.00    +0.000 C 
ENDBRANCH  25  26
ENDBRANCH  10  25
TORSDOF 7
ENDMDL
MODEL 8
REMARK VINA RESULT:      -7.3      5.749      7.990
REMARK  Name = 
REMARK  9 active torsions:
REMARK  status: ('A' for Active; 'I' for Inactive)
REMARK    1  A    between atoms: C_1  and  O_2
REMARK    2  A    between atoms: O_2  and  C_3
REMARK    3  A    between atoms: C_3  and  C_5
REMARK    4  A    between atoms: C_6  and  O_7
REMARK    5  A    between atoms: O_7  and  C_8
REMARK    6  A    between atoms: C_8  and  C_9
REMARK    7  A    between atoms: N_22  and  C_23
REMARK    8  A    between atoms: C_23  and  C_24
REMARK    9  A    between atoms: N_33  and  C_34
REMARK                            x       y       z     vdW  Elec       q    Type
REMARK                         _______ _______ _______ _____ _____    ______ ____
ROOT
ATOM      1  C   UNL     1       0.368  12.939  20.721  0.00  0.00    +0.000 A 
ATOM      2  C   UNL     1      -1.071  13.171  20.572  0.00  0.00    +0.000 A 
ATOM      3  C   UNL     1      -1.518  14.396  20.249  0.00  0.00    +0.000 A 
ATOM      4  C   UNL     1      -0.585  15.529  20.069  0.00  0.00    +0.000 A 
ATOM      5  O   UNL     1      -1.045  16.602  19.682  0.00  0.00    +0.000 OA
ATOM      6  N   UNL     1       0.760  15.268  20.323  0.00  0.00    +0.000 N 
ATOM      7  C   UNL     1       1.238  13.996  20.648  0.00  0.00    +0.000 A 
ATOM      8  C   UNL     1       2.743  13.890  20.840  0.00  0.00    +0.000 C 
ATOM      9  C   UNL     1       3.539  13.994  19.523  0.00  0.00    +0.000 C 
ATOM     10  N   UNL     1       3.855  15.373  19.117  0.00  0.00    +0.000 NA
ATOM     11  C   UNL     1       2.629  16.170  18.861  0.00  0.00    +0.000 C 
ATOM     12  C   UNL     1       1.711  16.379  20.091  0.00  0.00    +0.000 C 
ENDROOT
BRANCH   1  13
ATOM     13  C   UNL     1       0.936  11.544  20.716  0.00  0.00    +0.000 C 
ATOM     14  O   UNL     1       1.089  10.799  21.665  0.00  0.00    +0.000 OA
BRANCH  13  16
ATOM     15  C   UNL     1       1.247   9.786  19.183  0.00  0.00    +0.000 C 
ATOM     16  O   UNL     1       1.081  11.172  19.422  0.00  0.00    +0.000 OA
ENDBRANCH  13  16
ENDBRANCH   1  13
BRANCH   2  17
ATOM     17  O   UNL     1      -2.015  12.140  20.566  0.00  0.00    +0.000 OA
BRANCH  17  18
ATOM     18  C   UNL     1      -3.173  12.276  19.724  0.00  0.00    +0.000 C 
BRANCH  18  19
ATOM     19  C   UNL     1      -3.063  11.563  18.386  0.00  0.00    +0.000 A 
ATOM     20  C   UNL     1      -2.007  10.688  18.128  0.00  0.00    +0.000 A 
ATOM     21  C   UNL     1      -2.028   9.928  16.958  0.00  0.00    +0.000 A 
ATOM     22  C   UNL     1      -3.099  10.051  16.082  0.00  0.00    +0.000 A 
ATOM     23  C   UNL     1      -4.108  10.937  16.410  0.00  0.00    +0.000 A 
ATOM     24  N   UNL     1      -4.114  11.691  17.534  0.00  0.00    +0.000 NA
ENDBRANCH  18  19
ENDBRANCH  17  18
ENDBRANCH   2  17
BRANCH  10  25
ATOM     25  C   UNL     1       4.742  15.362  17.923  0.00  0.00    +0.000 C 
BRANCH  25  26
ATOM     26  C   UNL     1       6.230  15.269  18.231  0.00  0.00    +0.000 A 
ATOM     27  C   UNL     1       6.881  15.918  19.283  0.00  0.00    +0.000 A 
ATOM     28  C   UNL     1       8.196  15.533  19.678  0.00  0.00    +0.000 A 
ATOM     29  C   UNL     1       8.871  14.439  19.101  0.00  0.00    +0.000 A 
ATOM     30  C   UNL     1       8.179  13.810  18.058  0.00  0.00    +0.000 A 
ATOM     31  C   UNL     1       6.945  14.281  17.569  0.00  0.00    +0.000 A 
ATOM     32  C   UNL     1       8.534  12.443  17.578  0.00  0.00    +0.000 C 
ATOM     33  C   UNL     1       9.892  11.930  17.966  0.00  0.00    +0.000 C 
ATOM     34  C   UNL     1      10.741  12.835  18.830  0.00  0.00    +0.000 C 
ATOM     35  N   UNL     1      10.062  13.903  19.575  0.00  0.00    +0.000 N 
ATOM     36  C   UNL     1      10.995  14.642  20.435  0.00  0.00    +0.000 C 
ENDBRANCH  25  26
ENDBRANCH  10  25
TORSDOF 7
ENDMDL
MODEL 9
REMARK VINA RESULT:      -7.3      1.699      2.560
REMARK  Name = 
REMARK  9 active torsions:
REMARK  status: ('A' for Active; 'I' for Inactive)
REMARK    1  A    between atoms: C_1  and  O_2
REMARK    2  A    between atoms: O_2  and  C_3
REMARK    3  A    between atoms: C_3  and  C_5
REMARK    4  A    between atoms: C_6  and  O_7
REMARK    5  A    between atoms: O_7  and  C_8
REMARK    6  A    between atoms: C_8  and  C_9
REMARK    7  A    between atoms: N_22  and  C_23
REMARK    8  A    between atoms: C_23  and  C_24
REMARK    9  A    between atoms: N_33  and  C_34
REMARK                            x       y       z     vdW  Elec       q    Type
REMARK                         _______ _______ _______ _____ _____    ______ ____
ROOT
ATOM      1  C   UNL     1      -2.182  12.290  19.532  0.00  0.00    +0.000 A 
ATOM      2  C   UNL     1      -3.373  12.188  18.684  0.00  0.00    +0.000 A 
ATOM      3  C   UNL     1      -3.401  11.300  17.676  0.00  0.00    +0.000 A 
ATOM      4  C   UNL     1      -2.236  10.438  17.384  0.00  0.00    +0.000 A 
ATOM      5  O   UNL     1      -2.354   9.581  16.511  0.00  0.00    +0.000 OA
ATOM      6  N   UNL     1      -1.098  10.652  18.160  0.00  0.00    +0.000 N 
ATOM      7  C   UNL     1      -1.062  11.563  19.218  0.00  0.00    +0.000 A 
ATOM      8  C   UNL     1       0.249  11.625  19.986  0.00  0.00    +0.000 C 
ATOM      9  C   UNL     1       0.498  10.389  20.875  0.00  0.00    +0.000 C 
ATOM     10  N   UNL     1       1.152   9.269  20.178  0.00  0.00    +0.000 NA
ATOM     11  C   UNL     1       0.321   8.749  19.063  0.00  0.00    +0.000 C 
ATOM     12  C   UNL     1       0.055   9.756  17.916  0.00  0.00    +0.000 C 
ENDROOT
BRANCH   1  13
ATOM     13  C   UNL     1      -2.234  12.985  20.867  0.00  0.00    +0.000 C 
ATOM     14  O   UNL     1      -1.966  14.145  21.113  0.00  0.00    +0.000 OA
BRANCH  13  16
ATOM     15  C   UNL     1      -2.112  11.882  22.942  0.00  0.00    +0.000 C 
ATOM     16  O   UNL     1      -2.820  12.133  21.741  0.00  0.00    +0.000 OA
ENDBRANCH  13  16
ENDBRANCH   1  13
BRANCH   2  17
ATOM     17  O   UNL     1      -4.575  12.842  18.973  0.00  0.00    +0.000 OA
BRANCH  17  18
ATOM     18  C   UNL     1      -5.777  12.376  18.337  0.00  0.00    +0.000 C 
BRANCH  18  19
ATOM     19  C   UNL     1      -6.627  11.457  19.199  0.00  0.00    +0.000 A 
ATOM     20  C   UNL     1      -6.650  10.081  18.968  0.00  0.00    +0.000 A 
ATOM     21  C   UNL     1      -7.308   9.253  19.878  0.00  0.00    +0.000 A 
ATOM     22  C   UNL     1      -7.917   9.811  20.995  0.00  0.00    +0.000 A 
ATOM     23  C   UNL     1      -7.847  11.183  21.155  0.00  0.00    +0.000 A 
ATOM     24  N   UNL     1      -7.221  12.012  20.289  0.00  0.00    +0.000 NA
ENDBRANCH  18  19
ENDBRANCH  17  18
ENDBRANCH   2  17
BRANCH  10  25
ATOM     25  C   UNL     1       1.478   8.188  21.146  0.00  0.00    +0.000 C 
BRANCH  25  26
ATOM     26  C   UNL     1       1.969   6.891  20.517  0.00  0.00    +0.000 A 
ATOM     27  C   UNL     1       1.276   5.678  20.516  0.00  0.00    +0.000 A 
ATOM     28  C   UNL     1       1.663   4.616  19.648  0.00  0.00    +0.000 A 
ATOM     29  C   UNL     1       2.690   4.752  18.694  0.00  0.00    +0.000 A 
ATOM     30  C   UNL     1       3.352   5.987  18.721  0.00  0.00    +0.000 A 
ATOM     31  C   UNL     1       3.070   6.982  19.676  0.00  0.00    +0.000 A 
ATOM     32  C   UNL     1       4.191   6.464  17.584  0.00  0.00    +0.000 C 
ATOM     33  C   UNL     1       4.629   5.425  16.593  0.00  0.00    +0.000 C 
ATOM     34  C   UNL     1       4.145   4.011  16.829  0.00  0.00    +0.000 C 
ATOM     35  N   UNL     1       2.977   3.825  17.700  0.00  0.00    +0.000 N 
ATOM     36  C   UNL     1       2.569   2.416  17.766  0.00  0.00    +0.000 C 
ENDBRANCH  25  26
ENDBRANCH  10  25
TORSDOF 7
ENDMDL
