MODEL 1
REMARK VINA RESULT:      -8.9      0.000      0.000
REMARK  Name = 
REMARK  10 active torsions:
REMARK  status: ('A' for Active; 'I' for Inactive)
REMARK    1  A    between atoms: C_1  and  O_2
REMARK    2  A    between atoms: O_2  and  C_3
REMARK    3  A    between atoms: C_6  and  N_7
REMARK    4  A    between atoms: C_10  and  O_11
REMARK    5  A    between atoms: O_11  and  C_12
REMARK    6  A    between atoms: C_16  and  N_17
REMARK    7  A    between atoms: C_18  and  C_20
REMARK    8  A    between atoms: C_21  and  C_22
REMARK    9  A    between atoms: C_22  and  C_23
REMARK   10  A    between atoms: C_22  and  C_24
REMARK                            x       y       z     vdW  Elec       q    Type
REMARK                         _______ _______ _______ _____ _____    ______ ____
ROOT
ATOM      1  N   UNL     1       2.057   7.737  19.514  0.00  0.00    +0.000 N 
ATOM      2  C   UNL     1       2.428   6.416  19.800  0.00  0.00    +0.000 A 
ATOM      3  N   UNL     1       3.572   5.984  19.257  0.00  0.00    +0.000 NA
ATOM      4  C   UNL     1       3.972   4.711  19.494  0.00  0.00    +0.000 A 
ATOM      5  C   UNL     1       3.158   3.869  20.235  0.00  0.00    +0.000 A 
ATOM      6  S   UNL     1       3.329   2.211  20.646  0.00  0.00    +0.000 S 
ATOM      7  C   UNL     1       1.852   2.200  21.509  0.00  0.00    +0.000 A 
ATOM      8  C   UNL     1       1.253   3.440  21.514  0.00  0.00    +0.000 A 
ATOM      9  C   UNL     1       1.995   4.401  20.769  0.00  0.00    +0.000 A 
ATOM     10  N   UNL     1       1.630   5.685  20.581  0.00  0.00    +0.000 NA
ATOM     11  H   UNL     1       2.831   8.177  19.029  0.00  0.00    +0.000 HD
ENDROOT
BRANCH   1  15
ATOM     12  C   UNL     1       0.164  10.294  22.190  0.00  0.00    +0.000 A 
ATOM     13  C   UNL     1      -0.139  10.405  20.842  0.00  0.00    +0.000 A 
ATOM     14  C   UNL     1       0.504   9.553  19.943  0.00  0.00    +0.000 A 
ATOM     15  C   UNL     1       1.394   8.587  20.414  0.00  0.00    +0.000 A 
ATOM     16  C   UNL     1       1.637   8.581  21.788  0.00  0.00    +0.000 A 
ATOM     17  N   UNL     1       1.052   9.409  22.683  0.00  0.00    +0.000 NA
BRANCH  12  19
ATOM     18  C   UNL     1      -1.085  12.254  22.363  0.00  0.00    +0.000 C 
ATOM     19  O   UNL     1      -0.486  11.157  23.049  0.00  0.00    +0.000 OA
ENDBRANCH  12  19
ENDBRANCH   1  15
BRANCH   4  20
ATOM     20  O   UNL     1       5.149   4.225  18.945  0.00  0.00    +0.000 OA
BRANCH  20  21
ATOM     21  C   UNL     1       5.954   5.084  18.233  0.00  0.00    +0.000 A 
ATOM     22  C   UNL     1       5.913   4.943  16.847  0.00  0.00    +0.000 A 
ATOM     23  C   UNL     1       6.731   5.736  16.049  0.00  0.00    +0.000 A 
ATOM     24  C   UNL     1       7.578   6.675  16.639  0.00  0.00    +0.000 A 
ATOM     25  C   UNL     1       7.633   6.825  18.030  0.00  0.00    +0.000 A 
ATOM     26  C   UNL     1       6.845   5.988  18.828  0.00  0.00    +0.000 A 
BRANCH  25  27
ATOM     27  N   UNL     1       8.452   7.787  18.670  0.00  0.00    +0.000 N 
ATOM     28  C   UNL     1       8.421   9.144  18.417  0.00  0.00    +0.000 C 
ATOM     29  O   UNL     1       7.656   9.717  17.650  0.00  0.00    +0.000 OA
ATOM     30  H   UNL     1       9.025   7.458  19.434  0.00  0.00    +0.000 HD
BRANCH  28  31
ATOM     31  C   UNL     1       9.402   9.928  19.220  0.00  0.00    +0.000 C 
ATOM     32  C   UNL     1       9.780  11.125  18.739  0.00  0.00    +0.000 C 
BRANCH  32  33
ATOM     33  C   UNL     1      10.765  12.070  19.370  0.00  0.00    +0.000 C 
ATOM     34  C   UNL     1      10.487  12.174  20.871  0.00  0.00    +0.000 C 
ATOM     35  C   UNL     1      12.187  11.561  19.131  0.00  0.00    +0.000 C 
ENDBRANCH  32  33
ENDBRANCH  28  31
ENDBRANCH  25  27
ENDBRANCH  20  21
ENDBRANCH   4  20
TORSDOF 7
ENDMDL
MODEL 2
REMARK VINA RESULT:      -8.6      3.842      9.106
REMARK  Name = 
REMARK  10 active torsions:
REMARK  status: ('A' for Active; 'I' for Inactive)
REMARK    1  A    between atoms: C_1  and  O_2
REMARK    2  A    between atoms: O_2  and  C_3
REMARK    3  A    between atoms: C_6  and  N_7
REMARK    4  A    between atoms: C_10  and  O_11
REMARK    5  A    between atoms: O_11  and  C_12
REMARK    6  A    between atoms: C_16  and  N_17
REMARK    7  A    between atoms: C_18  and  C_20
REMARK    8  A    between atoms: C_21  and  C_22
REMARK    9  A    between atoms: C_22  and  C_23
REMARK   10  A    between atoms: C_22  and  C_24
REMARK                            x       y       z     vdW  Elec       q    Type
REMARK                         _______ _______ _______ _____ _____    ______ ____
ROOT
ATOM      1  N   UNL     1       5.821   5.343  17.502  0.00  0.00    +0.000 N 
ATOM      2  C   UNL     1       4.601   4.992  18.095  0.00  0.00    +0.000 A 
ATOM      3  N   UNL     1       4.113   5.838  19.009  0.00  0.00    +0.000 NA
ATOM      4  C   UNL     1       2.940   5.540  19.620  0.00  0.00    +0.000 A 
ATOM      5  C   UNL     1       2.310   4.339  19.334  0.00  0.00    +0.000 A 
ATOM      6  S   UNL     1       0.882   3.635  19.976  0.00  0.00    +0.000 S 
ATOM      7  C   UNL     1       1.036   2.248  18.987  0.00  0.00    +0.000 A 
ATOM      8  C   UNL     1       2.135   2.328  18.160  0.00  0.00    +0.000 A 
ATOM      9  C   UNL     1       2.879   3.525  18.368  0.00  0.00    +0.000 A 
ATOM     10  N   UNL     1       4.014   3.853  17.718  0.00  0.00    +0.000 NA
ATOM     11  H   UNL     1       6.050   6.284  17.801  0.00  0.00    +0.000 HD
ENDROOT
BRANCH   1  15
ATOM     12  C   UNL     1       6.883   4.494  13.574  0.00  0.00    +0.000 A 
ATOM     13  C   UNL     1       5.661   4.036  14.042  0.00  0.00    +0.000 A 
ATOM     14  C   UNL     1       5.310   4.312  15.365  0.00  0.00    +0.000 A 
ATOM     15  C   UNL     1       6.161   5.074  16.166  0.00  0.00    +0.000 A 
ATOM     16  C   UNL     1       7.372   5.465  15.594  0.00  0.00    +0.000 A 
ATOM     17  N   UNL     1       7.755   5.191  14.327  0.00  0.00    +0.000 NA
BRANCH  12  19
ATOM     18  C   UNL     1       6.497   3.052  11.783  0.00  0.00    +0.000 C 
ATOM     19  O   UNL     1       7.200   4.196  12.264  0.00  0.00    +0.000 OA
ENDBRANCH  12  19
ENDBRANCH   1  15
BRANCH   4  20
ATOM     20  O   UNL     1       2.404   6.389  20.576  0.00  0.00    +0.000 OA
BRANCH  20  21
ATOM     21  C   UNL     1       1.801   7.556  20.164  0.00  0.00    +0.000 A 
ATOM     22  C   UNL     1       2.165   8.012  18.900  0.00  0.00    +0.000 A 
ATOM     23  C   UNL     1       1.643   9.209  18.422  0.00  0.00    +0.000 A 
ATOM     24  C   UNL     1       0.750   9.941  19.207  0.00  0.00    +0.000 A 
ATOM     25  C   UNL     1       0.378   9.497  20.482  0.00  0.00    +0.000 A 
ATOM     26  C   UNL     1       0.948   8.318  20.975  0.00  0.00    +0.000 A 
BRANCH  25  27
ATOM     27  N   UNL     1      -0.549  10.188  21.299  0.00  0.00    +0.000 N 
ATOM     28  C   UNL     1      -0.439  10.337  22.667  0.00  0.00    +0.000 C 
ATOM     29  O   UNL     1       0.489   9.944  23.362  0.00  0.00    +0.000 OA
ATOM     30  H   UNL     1      -1.288  10.688  20.823  0.00  0.00    +0.000 HD
BRANCH  28  31
ATOM     31  C   UNL     1      -1.565  11.097  23.281  0.00  0.00    +0.000 C 
ATOM     32  C   UNL     1      -1.935  12.245  22.687  0.00  0.00    +0.000 C 
BRANCH  32  33
ATOM     33  C   UNL     1      -3.026  13.174  23.142  0.00  0.00    +0.000 C 
ATOM     34  C   UNL     1      -3.898  13.565  21.947  0.00  0.00    +0.000 C 
ATOM     35  C   UNL     1      -3.873  12.483  24.211  0.00  0.00    +0.000 C 
ENDBRANCH  32  33
ENDBRANCH  28  31
ENDBRANCH  25  27
ENDBRANCH  20  21
ENDBRANCH   4  20
TORSDOF 7
ENDMDL
MODEL 3
REMARK VINA RESULT:      -8.5      0.622      1.051
REMARK  Name = 
REMARK  10 active torsions:
REMARK  status: ('A' for Active; 'I' for Inactive)
REMARK    1  A    between atoms: C_1  and  O_2
REMARK    2  A    between atoms: O_2  and  C_3
REMARK    3  A    between atoms: C_6  and  N_7
REMARK    4  A    between atoms: C_10  and  O_11
REMARK    5  A    between atoms: O_11  and  C_12
REMARK    6  A    between atoms: C_16  and  N_17
REMARK    7  A    between atoms: C_18  and  C_20
REMARK    8  A    between atoms: C_21  and  C_22
REMARK    9  A    between atoms: C_22  and  C_23
REMARK   10  A    between atoms: C_22  and  C_24
REMARK                            x       y       z     vdW  Elec       q    Type
REMARK                         _______ _______ _______ _____ _____    ______ ____
ROOT
ATOM      1  N   UNL     1       2.074   7.786  19.433  0.00  0.00    +0.000 N 
ATOM      2  C   UNL     1       2.430   6.468  19.747  0.00  0.00    +0.000 A 
ATOM      3  N   UNL     1       3.597   6.031  19.262  0.00  0.00    +0.000 NA
ATOM      4  C   UNL     1       3.984   4.759  19.529  0.00  0.00    +0.000 A 
ATOM      5  C   UNL     1       3.134   3.924  20.237  0.00  0.00    +0.000 A 
ATOM      6  S   UNL     1       3.283   2.268  20.669  0.00  0.00    +0.000 S 
ATOM      7  C   UNL     1       1.768   2.267  21.461  0.00  0.00    +0.000 A 
ATOM      8  C   UNL     1       1.170   3.506  21.427  0.00  0.00    +0.000 A 
ATOM      9  C   UNL     1       1.948   4.460  20.711  0.00  0.00    +0.000 A 
ATOM     10  N   UNL     1       1.594   5.744  20.495  0.00  0.00    +0.000 NA
ATOM     11  H   UNL     1       2.870   8.222  18.982  0.00  0.00    +0.000 HD
ENDROOT
BRANCH   1  15
ATOM     12  C   UNL     1      -0.080  10.291  21.958  0.00  0.00    +0.000 A 
ATOM     13  C   UNL     1       0.706   9.299  22.523  0.00  0.00    +0.000 A 
ATOM     14  C   UNL     1       1.421   8.451  21.675  0.00  0.00    +0.000 A 
ATOM     15  C   UNL     1       1.370   8.645  20.294  0.00  0.00    +0.000 A 
ATOM     16  C   UNL     1       0.531   9.662  19.837  0.00  0.00    +0.000 A 
ATOM     17  N   UNL     1      -0.196  10.482  20.630  0.00  0.00    +0.000 NA
BRANCH  12  19
ATOM     18  C   UNL     1      -1.702  11.954  22.150  0.00  0.00    +0.000 C 
ATOM     19  O   UNL     1      -0.778  11.105  22.827  0.00  0.00    +0.000 OA
ENDBRANCH  12  19
ENDBRANCH   1  15
BRANCH   4  20
ATOM     20  O   UNL     1       5.185   4.267  19.040  0.00  0.00    +0.000 OA
BRANCH  20  21
ATOM     21  C   UNL     1       5.992   5.101  18.302  0.00  0.00    +0.000 A 
ATOM     22  C   UNL     1       5.964   4.907  16.923  0.00  0.00    +0.000 A 
ATOM     23  C   UNL     1       6.786   5.671  16.101  0.00  0.00    +0.000 A 
ATOM     24  C   UNL     1       7.624   6.636  16.661  0.00  0.00    +0.000 A 
ATOM     25  C   UNL     1       7.666   6.841  18.046  0.00  0.00    +0.000 A 
ATOM     26  C   UNL     1       6.875   6.032  18.869  0.00  0.00    +0.000 A 
BRANCH  25  27
ATOM     27  N   UNL     1       8.476   7.831  18.654  0.00  0.00    +0.000 N 
ATOM     28  C   UNL     1       8.409   9.183  18.382  0.00  0.00    +0.000 C 
ATOM     29  O   UNL     1       7.617   9.726  17.622  0.00  0.00    +0.000 OA
ATOM     30  H   UNL     1       9.072   7.526  19.412  0.00  0.00    +0.000 HD
BRANCH  28  31
ATOM     31  C   UNL     1       9.388  10.001  19.153  0.00  0.00    +0.000 C 
ATOM     32  C   UNL     1      10.130  10.888  18.468  0.00  0.00    +0.000 C 
BRANCH  32  33
ATOM     33  C   UNL     1      11.183  11.798  19.036  0.00  0.00    +0.000 C 
ATOM     34  C   UNL     1      11.182  13.123  18.271  0.00  0.00    +0.000 C 
ATOM     35  C   UNL     1      10.900  12.045  20.519  0.00  0.00    +0.000 C 
ENDBRANCH  32  33
ENDBRANCH  28  31
ENDBRANCH  25  27
ENDBRANCH  20  21
ENDBRANCH   4  20
TORSDOF 7
ENDMDL
MODEL 4
REMARK VINA RESULT:      -8.5      2.078      7.727
REMARK  Name = 
REMARK  10 active torsions:
REMARK  status: ('A' for Active; 'I' for Inactive)
REMARK    1  A    between atoms: C_1  and  O_2
REMARK    2  A    between atoms: O_2  and  C_3
REMARK    3  A    between atoms: C_6  and  N_7
REMARK    4  A    between atoms: C_10  and  O_11
REMARK    5  A    between atoms: O_11  and  C_12
REMARK    6  A    between atoms: C_16  and  N_17
REMARK    7  A    between atoms: C_18  and  C_20
REMARK    8  A    between atoms: C_21  and  C_22
REMARK    9  A    between atoms: C_22  and  C_23
REMARK   10  A    between atoms: C_22  and  C_24
REMARK                            x       y       z     vdW  Elec       q    Type
REMARK                         _______ _______ _______ _____ _____    ______ ____
ROOT
ATOM      1  N   UNL     1       8.557   7.770  19.036  0.00  0.00    +0.000 N 
ATOM      2  C   UNL     1       7.801   6.813  18.347  0.00  0.00    +0.000 A 
ATOM      3  N   UNL     1       7.193   5.881  19.089  0.00  0.00    +0.000 NA
ATOM      4  C   UNL     1       6.456   4.926  18.471  0.00  0.00    +0.000 A 
ATOM      5  C   UNL     1       6.405   4.897  17.086  0.00  0.00    +0.000 A 
ATOM      6  S   UNL     1       5.643   3.798  16.009  0.00  0.00    +0.000 S 
ATOM      7  C   UNL     1       6.197   4.651  14.634  0.00  0.00    +0.000 A 
ATOM      8  C   UNL     1       6.921   5.769  14.983  0.00  0.00    +0.000 A 
ATOM      9  C   UNL     1       7.056   5.906  16.394  0.00  0.00    +0.000 A 
ATOM     10  N   UNL     1       7.738   6.890  17.015  0.00  0.00    +0.000 NA
ATOM     11  H   UNL     1       8.386   7.644  20.027  0.00  0.00    +0.000 HD
ENDROOT
BRANCH   1  15
ATOM     12  C   UNL     1       8.846  11.767  17.929  0.00  0.00    +0.000 A 
ATOM     13  C   UNL     1       9.734  11.277  18.873  0.00  0.00    +0.000 A 
ATOM     14  C   UNL     1       9.630   9.937  19.253  0.00  0.00    +0.000 A 
ATOM     15  C   UNL     1       8.678   9.115  18.649  0.00  0.00    +0.000 A 
ATOM     16  C   UNL     1       7.826   9.722  17.726  0.00  0.00    +0.000 A 
ATOM     17  N   UNL     1       7.882  11.022  17.356  0.00  0.00    +0.000 NA
BRANCH  12  19
ATOM     18  C   UNL     1       9.340  13.913  18.695  0.00  0.00    +0.000 C 
ATOM     19  O   UNL     1       8.975  13.098  17.584  0.00  0.00    +0.000 OA
ENDBRANCH  12  19
ENDBRANCH   1  15
BRANCH   4  20
ATOM     20  O   UNL     1       5.815   3.940  19.205  0.00  0.00    +0.000 OA
BRANCH  20  21
ATOM     21  C   UNL     1       4.482   4.097  19.504  0.00  0.00    +0.000 A 
ATOM     22  C   UNL     1       3.713   2.936  19.470  0.00  0.00    +0.000 A 
ATOM     23  C   UNL     1       2.345   3.007  19.710  0.00  0.00    +0.000 A 
ATOM     24  C   UNL     1       1.753   4.238  19.996  0.00  0.00    +0.000 A 
ATOM     25  C   UNL     1       2.512   5.414  20.031  0.00  0.00    +0.000 A 
ATOM     26  C   UNL     1       3.877   5.341  19.737  0.00  0.00    +0.000 A 
BRANCH  25  27
ATOM     27  N   UNL     1       1.960   6.679  20.350  0.00  0.00    +0.000 N 
ATOM     28  C   UNL     1       1.902   7.756  19.488  0.00  0.00    +0.000 C 
ATOM     29  O   UNL     1       2.268   7.763  18.319  0.00  0.00    +0.000 OA
ATOM     30  H   UNL     1       1.489   6.756  21.241  0.00  0.00    +0.000 HD
BRANCH  28  31
ATOM     31  C   UNL     1       1.284   8.973  20.086  0.00  0.00    +0.000 C 
ATOM     32  C   UNL     1       0.418   8.794  21.099  0.00  0.00    +0.000 C 
BRANCH  32  33
ATOM     33  C   UNL     1      -0.331   9.870  21.834  0.00  0.00    +0.000 C 
ATOM     34  C   UNL     1      -0.173   9.666  23.342  0.00  0.00    +0.000 C 
ATOM     35  C   UNL     1       0.213  11.240  21.427  0.00  0.00    +0.000 C 
ENDBRANCH  32  33
ENDBRANCH  28  31
ENDBRANCH  25  27
ENDBRANCH  20  21
ENDBRANCH   4  20
TORSDOF 7
ENDMDL
MODEL 5
REMARK VINA RESULT:      -8.5      1.269      1.619
REMARK  Name = 
REMARK  10 active torsions:
REMARK  status: ('A' for Active; 'I' for Inactive)
REMARK    1  A    between atoms: C_1  and  O_2
REMARK    2  A    between atoms: O_2  and  C_3
REMARK    3  A    between atoms: C_6  and  N_7
REMARK    4  A    between atoms: C_10  and  O_11
REMARK    5  A    between atoms: O_11  and  C_12
REMARK    6  A    between atoms: C_16  and  N_17
REMARK    7  A    between atoms: C_18  and  C_20
REMARK    8  A    between atoms: C_21  and  C_22
REMARK    9  A    between atoms: C_22  and  C_23
REMARK   10  A    between atoms: C_22  and  C_24
REMARK                            x       y       z     vdW  Elec       q    Type
REMARK                         _______ _______ _______ _____ _____    ______ ____
ROOT
ATOM      1  N   UNL     1       1.909   7.462  18.535  0.00  0.00    +0.000 N 
ATOM      2  C   UNL     1       2.375   6.219  18.982  0.00  0.00    +0.000 A 
ATOM      3  N   UNL     1       3.290   5.611  18.218  0.00  0.00    +0.000 NA
ATOM      4  C   UNL     1       3.768   4.402  18.601  0.00  0.00    +0.000 A 
ATOM      5  C   UNL     1       3.251   3.794  19.735  0.00  0.00    +0.000 A 
ATOM      6  S   UNL     1       3.573   2.261  20.439  0.00  0.00    +0.000 S 
ATOM      7  C   UNL     1       2.455   2.529  21.704  0.00  0.00    +0.000 A 
ATOM      8  C   UNL     1       1.868   3.771  21.615  0.00  0.00    +0.000 A 
ATOM      9  C   UNL     1       2.313   4.497  20.474  0.00  0.00    +0.000 A 
ATOM     10  N   UNL     1       1.884   5.727  20.122  0.00  0.00    +0.000 NA
ATOM     11  H   UNL     1       2.477   7.738  17.742  0.00  0.00    +0.000 HD
ENDROOT
BRANCH   1  15
ATOM     12  C   UNL     1       0.792  10.617  21.001  0.00  0.00    +0.000 A 
ATOM     13  C   UNL     1       0.988   9.369  21.572  0.00  0.00    +0.000 A 
ATOM     14  C   UNL     1       1.352   8.307  20.742  0.00  0.00    +0.000 A 
ATOM     15  C   UNL     1       1.557   8.528  19.379  0.00  0.00    +0.000 A 
ATOM     16  C   UNL     1       1.312   9.820  18.913  0.00  0.00    +0.000 A 
ATOM     17  N   UNL     1       0.931  10.863  19.684  0.00  0.00    +0.000 NA
BRANCH  12  19
ATOM     18  C   UNL     1      -0.698  11.297  22.660  0.00  0.00    +0.000 C 
ATOM     19  O   UNL     1       0.425  11.641  21.851  0.00  0.00    +0.000 OA
ENDBRANCH  12  19
ENDBRANCH   1  15
BRANCH   4  20
ATOM     20  O   UNL     1       4.712   3.738  17.834  0.00  0.00    +0.000 OA
BRANCH  20  21
ATOM     21  C   UNL     1       5.566   4.477  17.047  0.00  0.00    +0.000 A 
ATOM     22  C   UNL     1       6.035   3.841  15.900  0.00  0.00    +0.000 A 
ATOM     23  C   UNL     1       6.941   4.494  15.071  0.00  0.00    +0.000 A 
ATOM     24  C   UNL     1       7.366   5.785  15.386  0.00  0.00    +0.000 A 
ATOM     25  C   UNL     1       6.906   6.436  16.537  0.00  0.00    +0.000 A 
ATOM     26  C   UNL     1       6.035   5.753  17.393  0.00  0.00    +0.000 A 
BRANCH  25  27
ATOM     27  N   UNL     1       7.283   7.758  16.878  0.00  0.00    +0.000 N 
ATOM     28  C   UNL     1       8.016   8.107  17.995  0.00  0.00    +0.000 C 
ATOM     29  O   UNL     1       8.487   7.332  18.819  0.00  0.00    +0.000 OA
ATOM     30  H   UNL     1       7.081   8.477  16.197  0.00  0.00    +0.000 HD
BRANCH  28  31
ATOM     31  C   UNL     1       8.259   9.572  18.121  0.00  0.00    +0.000 C 
ATOM     32  C   UNL     1       9.280   9.966  18.903  0.00  0.00    +0.000 C 
BRANCH  32  33
ATOM     33  C   UNL     1       9.693  11.383  19.186  0.00  0.00    +0.000 C 
ATOM     34  C   UNL     1      11.133  11.405  19.701  0.00  0.00    +0.000 C 
ATOM     35  C   UNL     1       9.578  12.214  17.907  0.00  0.00    +0.000 C 
ENDBRANCH  32  33
ENDBRANCH  28  31
ENDBRANCH  25  27
ENDBRANCH  20  21
ENDBRANCH   4  20
TORSDOF 7
ENDMDL
MODEL 6
REMARK VINA RESULT:      -8.4      1.146      1.444
REMARK  Name = 
REMARK  10 active torsions:
REMARK  status: ('A' for Active; 'I' for Inactive)
REMARK    1  A    between atoms: C_1  and  O_2
REMARK    2  A    between atoms: O_2  and  C_3
REMARK    3  A    between atoms: C_6  and  N_7
REMARK    4  A    between atoms: C_10  and  O_11
REMARK    5  A    between atoms: O_11  and  C_12
REMARK    6  A    between atoms: C_16  and  N_17
REMARK    7  A    between atoms: C_18  and  C_20
REMARK    8  A    between atoms: C_21  and  C_22
REMARK    9  A    between atoms: C_22  and  C_23
REMARK   10  A    between atoms: C_22  and  C_24
REMARK                            x       y       z     vdW  Elec       q    Type
REMARK                         _______ _______ _______ _____ _____    ______ ____
ROOT
ATOM      1  N   UNL     1       2.028   7.498  18.614  0.00  0.00    +0.000 N 
ATOM      2  C   UNL     1       2.407   6.232  19.078  0.00  0.00    +0.000 A 
ATOM      3  N   UNL     1       3.411   5.631  18.429  0.00  0.00    +0.000 NA
ATOM      4  C   UNL     1       3.810   4.400  18.833  0.00  0.00    +0.000 A 
ATOM      5  C   UNL     1       3.128   3.766  19.859  0.00  0.00    +0.000 A 
ATOM      6  S   UNL     1       3.324   2.204  20.546  0.00  0.00    +0.000 S 
ATOM      7  C   UNL     1       2.041   2.453  21.650  0.00  0.00    +0.000 A 
ATOM      8  C   UNL     1       1.492   3.709  21.524  0.00  0.00    +0.000 A 
ATOM      9  C   UNL     1       2.107   4.463  20.483  0.00  0.00    +0.000 A 
ATOM     10  N   UNL     1       1.752   5.712  20.119  0.00  0.00    +0.000 NA
ATOM     11  H   UNL     1       2.707   7.789  17.920  0.00  0.00    +0.000 HD
ENDROOT
BRANCH   1  15
ATOM     12  C   UNL     1       0.767  10.596  21.083  0.00  0.00    +0.000 A 
ATOM     13  C   UNL     1       0.887  10.840  19.724  0.00  0.00    +0.000 A 
ATOM     14  C   UNL     1       1.320   9.803  18.897  0.00  0.00    +0.000 A 
ATOM     15  C   UNL     1       1.577   8.543  19.438  0.00  0.00    +0.000 A 
ATOM     16  C   UNL     1       1.441   8.418  20.821  0.00  0.00    +0.000 A 
ATOM     17  N   UNL     1       1.050   9.409  21.654  0.00  0.00    +0.000 NA
BRANCH  12  19
ATOM     18  C   UNL     1      -0.797  11.308  22.659  0.00  0.00    +0.000 C 
ATOM     19  O   UNL     1       0.343  11.647  21.871  0.00  0.00    +0.000 OA
ENDBRANCH  12  19
ENDBRANCH   1  15
BRANCH   4  20
ATOM     20  O   UNL     1       4.844   3.743  18.183  0.00  0.00    +0.000 OA
BRANCH  20  21
ATOM     21  C   UNL     1       5.620   4.446  17.290  0.00  0.00    +0.000 A 
ATOM     22  C   UNL     1       5.939   3.780  16.109  0.00  0.00    +0.000 A 
ATOM     23  C   UNL     1       6.760   4.395  15.171  0.00  0.00    +0.000 A 
ATOM     24  C   UNL     1       7.251   5.679  15.412  0.00  0.00    +0.000 A 
ATOM     25  C   UNL     1       6.943   6.360  16.596  0.00  0.00    +0.000 A 
ATOM     26  C   UNL     1       6.158   5.714  17.557  0.00  0.00    +0.000 A 
BRANCH  25  27
ATOM     27  N   UNL     1       7.390   7.676  16.868  0.00  0.00    +0.000 N 
ATOM     28  C   UNL     1       8.091   8.054  17.996  0.00  0.00    +0.000 C 
ATOM     29  O   UNL     1       8.469   7.311  18.893  0.00  0.00    +0.000 OA
ATOM     30  H   UNL     1       7.269   8.357  16.131  0.00  0.00    +0.000 HD
BRANCH  28  31
ATOM     31  C   UNL     1       8.424   9.507  18.037  0.00  0.00    +0.000 C 
ATOM     32  C   UNL     1       9.236   9.928  19.023  0.00  0.00    +0.000 C 
BRANCH  32  33
ATOM     33  C   UNL     1       9.686  11.342  19.265  0.00  0.00    +0.000 C 
ATOM     34  C   UNL     1       8.875  12.296  18.387  0.00  0.00    +0.000 C 
ATOM     35  C   UNL     1       9.496  11.693  20.742  0.00  0.00    +0.000 C 
ENDBRANCH  32  33
ENDBRANCH  28  31
ENDBRANCH  25  27
ENDBRANCH  20  21
ENDBRANCH   4  20
TORSDOF 7
ENDMDL
MODEL 7
REMARK VINA RESULT:      -8.2      3.293      6.070
REMARK  Name = 
REMARK  10 active torsions:
REMARK  status: ('A' for Active; 'I' for Inactive)
REMARK    1  A    between atoms: C_1  and  O_2
REMARK    2  A    between atoms: O_2  and  C_3
REMARK    3  A    between atoms: C_6  and  N_7
REMARK    4  A    between atoms: C_10  and  O_11
REMARK    5  A    between atoms: O_11  and  C_12
REMARK    6  A    between atoms: C_16  and  N_17
REMARK    7  A    between atoms: C_18  and  C_20
REMARK    8  A    between atoms: C_21  and  C_22
REMARK    9  A    between atoms: C_22  and  C_23
REMARK   10  A    between atoms: C_22  and  C_24
REMARK                            x       y       z     vdW  Elec       q    Type
REMARK                         _______ _______ _______ _____ _____    ______ ____
ROOT
ATOM      1  N   UNL     1       2.192   7.936  18.797  0.00  0.00    +0.000 N 
ATOM      2  C   UNL     1       2.542   6.639  19.195  0.00  0.00    +0.000 A 
ATOM      3  N   UNL     1       3.783   6.236  18.901  0.00  0.00    +0.000 NA
ATOM      4  C   UNL     1       4.169   4.986  19.255  0.00  0.00    +0.000 A 
ATOM      5  C   UNL     1       3.252   4.134  19.852  0.00  0.00    +0.000 A 
ATOM      6  S   UNL     1       3.392   2.495  20.344  0.00  0.00    +0.000 S 
ATOM      7  C   UNL     1       1.776   2.453  20.903  0.00  0.00    +0.000 A 
ATOM      8  C   UNL     1       1.148   3.668  20.748  0.00  0.00    +0.000 A 
ATOM      9  C   UNL     1       1.991   4.636  20.130  0.00  0.00    +0.000 A 
ATOM     10  N   UNL     1       1.629   5.900  19.830  0.00  0.00    +0.000 NA
ATOM     11  H   UNL     1       3.031   8.392  18.458  0.00  0.00    +0.000 HD
ENDROOT
BRANCH   1  15
ATOM     12  C   UNL     1      -0.270  10.478  20.979  0.00  0.00    +0.000 A 
ATOM     13  C   UNL     1      -0.069  10.745  19.634  0.00  0.00    +0.000 A 
ATOM     14  C   UNL     1       0.766   9.898  18.904  0.00  0.00    +0.000 A 
ATOM     15  C   UNL     1       1.338   8.785  19.521  0.00  0.00    +0.000 A 
ATOM     16  C   UNL     1       1.082   8.626  20.883  0.00  0.00    +0.000 A 
ATOM     17  N   UNL     1       0.301   9.443  21.625  0.00  0.00    +0.000 NA
BRANCH  12  19
ATOM     18  C   UNL     1      -1.082  11.097  23.075  0.00  0.00    +0.000 C 
ATOM     19  O   UNL     1      -1.096  11.341  21.670  0.00  0.00    +0.000 OA
ENDBRANCH  12  19
ENDBRANCH   1  15
BRANCH   4  20
ATOM     20  O   UNL     1       5.445   4.530  18.964  0.00  0.00    +0.000 OA
BRANCH  20  21
ATOM     21  C   UNL     1       5.926   4.676  17.683  0.00  0.00    +0.000 A 
ATOM     22  C   UNL     1       7.105   5.407  17.558  0.00  0.00    +0.000 A 
ATOM     23  C   UNL     1       7.637   5.648  16.296  0.00  0.00    +0.000 A 
ATOM     24  C   UNL     1       6.994   5.147  15.163  0.00  0.00    +0.000 A 
ATOM     25  C   UNL     1       5.806   4.413  15.272  0.00  0.00    +0.000 A 
ATOM     26  C   UNL     1       5.251   4.220  16.541  0.00  0.00    +0.000 A 
BRANCH  25  27
ATOM     27  N   UNL     1       5.139   3.857  14.154  0.00  0.00    +0.000 N 
ATOM     28  C   UNL     1       5.697   3.692  12.902  0.00  0.00    +0.000 C 
ATOM     29  O   UNL     1       6.852   3.953  12.588  0.00  0.00    +0.000 OA
ATOM     30  H   UNL     1       4.223   3.464  14.323  0.00  0.00    +0.000 HD
BRANCH  28  31
ATOM     31  C   UNL     1       4.766   3.095  11.902  0.00  0.00    +0.000 C 
ATOM     32  C   UNL     1       4.311   3.897  10.924  0.00  0.00    +0.000 C 
BRANCH  32  33
ATOM     33  C   UNL     1       3.357   3.514   9.827  0.00  0.00    +0.000 C 
ATOM     34  C   UNL     1       2.399   2.436  10.335  0.00  0.00    +0.000 C 
ATOM     35  C   UNL     1       2.573   4.748   9.378  0.00  0.00    +0.000 C 
ENDBRANCH  32  33
ENDBRANCH  28  31
ENDBRANCH  25  27
ENDBRANCH  20  21
ENDBRANCH   4  20
TORSDOF 7
ENDMDL
MODEL 8
REMARK VINA RESULT:      -8.2      3.946      7.426
REMARK  Name = 
REMARK  10 active torsions:
REMARK  status: ('A' for Active; 'I' for Inactive)
REMARK    1  A    between atoms: C_1  and  O_2
REMARK    2  A    between atoms: O_2  and  C_3
REMARK    3  A    between atoms: C_6  and  N_7
REMARK    4  A    between atoms: C_10  and  O_11
REMARK    5  A    between atoms: O_11  and  C_12
REMARK    6  A    between atoms: C_16  and  N_17
REMARK    7  A    between atoms: C_18  and  C_20
REMARK    8  A    between atoms: C_21  and  C_22
REMARK    9  A    between atoms: C_22  and  C_23
REMARK   10  A    between atoms: C_22  and  C_24
REMARK                            x       y       z     vdW  Elec       q    Type
REMARK                         _______ _______ _______ _____ _____    ______ ____
ROOT
ATOM      1  N   UNL     1       2.583   7.621  18.407  0.00  0.00    +0.000 N 
ATOM      2  C   UNL     1       1.736   8.470  19.129  0.00  0.00    +0.000 A 
ATOM      3  N   UNL     1       1.212   9.505  18.462  0.00  0.00    +0.000 NA
ATOM      4  C   UNL     1       0.392  10.362  19.118  0.00  0.00    +0.000 A 
ATOM      5  C   UNL     1       0.170  10.188  20.475  0.00  0.00    +0.000 A 
ATOM      6  S   UNL     1      -0.733  11.121  21.598  0.00  0.00    +0.000 S 
ATOM      7  C   UNL     1      -0.342  10.072  22.891  0.00  0.00    +0.000 A 
ATOM      8  C   UNL     1       0.434   9.014  22.475  0.00  0.00    +0.000 A 
ATOM      9  C   UNL     1       0.743   9.085  21.086  0.00  0.00    +0.000 A 
ATOM     10  N   UNL     1       1.510   8.200  20.417  0.00  0.00    +0.000 NA
ATOM     11  H   UNL     1       2.534   7.893  17.431  0.00  0.00    +0.000 HD
ENDROOT
BRANCH   1  15
ATOM     12  C   UNL     1       2.827   3.524  19.070  0.00  0.00    +0.000 A 
ATOM     13  C   UNL     1       1.789   4.007  18.288  0.00  0.00    +0.000 A 
ATOM     14  C   UNL     1       1.701   5.383  18.074  0.00  0.00    +0.000 A 
ATOM     15  C   UNL     1       2.673   6.233  18.605  0.00  0.00    +0.000 A 
ATOM     16  C   UNL     1       3.660   5.638  19.392  0.00  0.00    +0.000 A 
ATOM     17  N   UNL     1       3.757   4.313  19.641  0.00  0.00    +0.000 NA
BRANCH  12  19
ATOM     18  C   UNL     1       3.688   1.502  18.295  0.00  0.00    +0.000 C 
ATOM     19  O   UNL     1       2.877   2.159  19.266  0.00  0.00    +0.000 OA
ENDBRANCH  12  19
ENDBRANCH   1  15
BRANCH   4  20
ATOM     20  O   UNL     1      -0.166  11.449  18.462  0.00  0.00    +0.000 OA
BRANCH  20  21
ATOM     21  C   UNL     1       0.367  12.699  18.678  0.00  0.00    +0.000 A 
ATOM     22  C   UNL     1      -0.554  13.717  18.917  0.00  0.00    +0.000 A 
ATOM     23  C   UNL     1      -0.108  15.022  19.097  0.00  0.00    +0.000 A 
ATOM     24  C   UNL     1       1.258  15.303  19.048  0.00  0.00    +0.000 A 
ATOM     25  C   UNL     1       2.195  14.292  18.804  0.00  0.00    +0.000 A 
ATOM     26  C   UNL     1       1.735  12.991  18.574  0.00  0.00    +0.000 A 
BRANCH  25  27
ATOM     27  N   UNL     1       3.592  14.524  18.780  0.00  0.00    +0.000 N 
ATOM     28  C   UNL     1       4.255  15.249  17.809  0.00  0.00    +0.000 C 
ATOM     29  O   UNL     1       3.736  15.833  16.865  0.00  0.00    +0.000 OA
ATOM     30  H   UNL     1       4.116  14.218  19.587  0.00  0.00    +0.000 HD
BRANCH  28  31
ATOM     31  C   UNL     1       5.729  15.325  18.017  0.00  0.00    +0.000 C 
ATOM     32  C   UNL     1       6.442  14.204  17.813  0.00  0.00    +0.000 C 
BRANCH  32  33
ATOM     33  C   UNL     1       7.928  14.048  17.979  0.00  0.00    +0.000 C 
ATOM     34  C   UNL     1       8.301  14.234  19.451  0.00  0.00    +0.000 C 
ATOM     35  C   UNL     1       8.353  12.660  17.499  0.00  0.00    +0.000 C 
ENDBRANCH  32  33
ENDBRANCH  28  31
ENDBRANCH  25  27
ENDBRANCH  20  21
ENDBRANCH   4  20
TORSDOF 7
ENDMDL
MODEL 9
REMARK VINA RESULT:      -8.1      2.845      5.457
REMARK  Name = 
REMARK  10 active torsions:
REMARK  status: ('A' for Active; 'I' for Inactive)
REMARK    1  A    between atoms: C_1  and  O_2
REMARK    2  A    between atoms: O_2  and  C_3
REMARK    3  A    between atoms: C_6  and  N_7
REMARK    4  A    between atoms: C_10  and  O_11
REMARK    5  A    between atoms: O_11  and  C_12
REMARK    6  A    between atoms: C_16  and  N_17
REMARK    7  A    between atoms: C_18  and  C_20
REMARK    8  A    between atoms: C_21  and  C_22
REMARK    9  A    between atoms: C_22  and  C_23
REMARK   10  A    between atoms: C_22  and  C_24
REMARK                            x       y       z     vdW  Elec       q    Type
REMARK                         _______ _______ _______ _____ _____    ______ ____
ROOT
ATOM      1  N   UNL     1       2.231   7.995  19.503  0.00  0.00    +0.000 N 
ATOM      2  C   UNL     1       2.522   6.662  19.820  0.00  0.00    +0.000 A 
ATOM      3  N   UNL     1       3.781   6.258  19.615  0.00  0.00    +0.000 NA
ATOM      4  C   UNL     1       4.113   4.975  19.897  0.00  0.00    +0.000 A 
ATOM      5  C   UNL     1       3.130   4.096  20.326  0.00  0.00    +0.000 A 
ATOM      6  S   UNL     1       3.198   2.419  20.687  0.00  0.00    +0.000 S 
ATOM      7  C   UNL     1       1.534   2.365  21.080  0.00  0.00    +0.000 A 
ATOM      8  C   UNL     1       0.941   3.603  20.969  0.00  0.00    +0.000 A 
ATOM      9  C   UNL     1       1.855   4.600  20.521  0.00  0.00    +0.000 A 
ATOM     10  N   UNL     1       1.542   5.892  20.297  0.00  0.00    +0.000 NA
ATOM     11  H   UNL     1       3.106   8.460  19.287  0.00  0.00    +0.000 HD
ENDROOT
BRANCH   1  15
ATOM     12  C   UNL     1      -0.522  10.329  21.567  0.00  0.00    +0.000 A 
ATOM     13  C   UNL     1       0.296   9.475  22.290  0.00  0.00    +0.000 A 
ATOM     14  C   UNL     1       1.213   8.684  21.596  0.00  0.00    +0.000 A 
ATOM     15  C   UNL     1       1.322   8.799  20.210  0.00  0.00    +0.000 A 
ATOM     16  C   UNL     1       0.435   9.676  19.585  0.00  0.00    +0.000 A 
ATOM     17  N   UNL     1      -0.484  10.436  20.224  0.00  0.00    +0.000 NA
BRANCH  12  19
ATOM     18  C   UNL     1      -1.278  12.486  22.027  0.00  0.00    +0.000 C 
ATOM     19  O   UNL     1      -1.421  11.090  22.286  0.00  0.00    +0.000 OA
ENDBRANCH  12  19
ENDBRANCH   1  15
BRANCH   4  20
ATOM     20  O   UNL     1       5.406   4.517  19.693  0.00  0.00    +0.000 OA
BRANCH  20  21
ATOM     21  C   UNL     1       6.093   4.943  18.580  0.00  0.00    +0.000 A 
ATOM     22  C   UNL     1       7.010   5.971  18.792  0.00  0.00    +0.000 A 
ATOM     23  C   UNL     1       7.714   6.499  17.715  0.00  0.00    +0.000 A 
ATOM     24  C   UNL     1       7.508   5.989  16.432  0.00  0.00    +0.000 A 
ATOM     25  C   UNL     1       6.588   4.959  16.203  0.00  0.00    +0.000 A 
ATOM     26  C   UNL     1       5.846   4.469  17.283  0.00  0.00    +0.000 A 
BRANCH  25  27
ATOM     27  N   UNL     1       6.371   4.389  14.926  0.00  0.00    +0.000 N 
ATOM     28  C   UNL     1       7.015   4.777  13.768  0.00  0.00    +0.000 C 
ATOM     29  O   UNL     1       7.895   5.626  13.682  0.00  0.00    +0.000 OA
ATOM     30  H   UNL     1       5.774   3.574  14.888  0.00  0.00    +0.000 HD
BRANCH  28  31
ATOM     31  C   UNL     1       6.586   4.020  12.558  0.00  0.00    +0.000 C 
ATOM     32  C   UNL     1       5.463   3.286  12.652  0.00  0.00    +0.000 C 
BRANCH  32  33
ATOM     33  C   UNL     1       4.859   2.436  11.570  0.00  0.00    +0.000 C 
ATOM     34  C   UNL     1       4.244   3.334  10.495  0.00  0.00    +0.000 C 
ATOM     35  C   UNL     1       5.940   1.544  10.957  0.00  0.00    +0.000 C 
ENDBRANCH  32  33
ENDBRANCH  28  31
ENDBRANCH  25  27
ENDBRANCH  20  21
ENDBRANCH   4  20
TORSDOF 7
ENDMDL
