MODEL 1
REMARK VINA RESULT:      -7.3      0.000      0.000
REMARK  Name = 
REMARK  2 active torsions:
REMARK  status: ('A' for Active; 'I' for Inactive)
REMARK    1  A    between atoms: C_2  and  N_3
REMARK    2  A    between atoms: C_2  and  C_14
REMARK                            x       y       z     vdW  Elec       q    Type
REMARK                         _______ _______ _______ _____ _____    ______ ____
ROOT
ATOM      1  N   UNL     1       3.555   4.462  16.868  0.00  0.00    +0.000 NA
ATOM      2  C   UNL     1       4.835   4.354  16.758  0.00  0.00    +0.000 C 
ATOM      3  N   UNL     1       5.814   4.861  17.570  0.00  0.00    +0.000 N 
ATOM      4  C   UNL     1       6.894   5.654  17.024  0.00  0.00    +0.000 C 
ATOM      5  C   UNL     1       7.870   6.042  18.148  0.00  0.00    +0.000 C 
ATOM      6  C   UNL     1       7.910   7.552  18.101  0.00  0.00    +0.000 C 
ATOM      7  C   UNL     1       6.573   7.899  17.498  0.00  0.00    +0.000 C 
ATOM      8  O   UNL     1       6.340   6.879  16.526  0.00  0.00    +0.000 OA
ATOM      9  C   UNL     1       7.611   4.921  15.890  0.00  0.00    +0.000 C 
ATOM     10  C   UNL     1       6.654   4.511  14.781  0.00  0.00    +0.000 C 
ATOM     11  S   UNL     1       5.391   3.378  15.406  0.00  0.00    +0.000 S 
ATOM     12  H   UNL     1       5.367   5.379  18.329  0.00  0.00    +0.000 HD
ENDROOT
BRANCH   1  14
ATOM     13  O   UNL     1       2.987   6.472  17.860  0.00  0.00    +0.000 OA
ATOM     14  C   UNL     1       3.027   5.242  17.864  0.00  0.00    +0.000 C 
BRANCH  14  15
ATOM     15  C   UNL     1       2.447   4.502  19.026  0.00  0.00    +0.000 A 
ATOM     16  C   UNL     1       1.545   3.452  18.790  0.00  0.00    +0.000 A 
ATOM     17  C   UNL     1       0.987   2.750  19.861  0.00  0.00    +0.000 A 
ATOM     18  C   UNL     1       1.331   3.098  21.162  0.00  0.00    +0.000 A 
ATOM     19  F   UNL     1       0.791   2.427  22.188  0.00  0.00    +0.000 F 
ATOM     20  C   UNL     1       2.225   4.132  21.415  0.00  0.00    +0.000 A 
ATOM     21  C   UNL     1       2.788   4.836  20.346  0.00  0.00    +0.000 A 
ENDBRANCH  14  15
ENDBRANCH   1  14
TORSDOF 2
ENDMDL
MODEL 2
REMARK VINA RESULT:      -7.3      0.048      1.085
REMARK  Name = 
REMARK  2 active torsions:
REMARK  status: ('A' for Active; 'I' for Inactive)
REMARK    1  A    between atoms: C_2  and  N_3
REMARK    2  A    between atoms: C_2  and  C_14
REMARK                            x       y       z     vdW  Elec       q    Type
REMARK                         _______ _______ _______ _____ _____    ______ ____
ROOT
ATOM      1  N   UNL     1       3.567   4.423  16.842  0.00  0.00    +0.000 NA
ATOM      2  C   UNL     1       4.849   4.335  16.734  0.00  0.00    +0.000 C 
ATOM      3  N   UNL     1       5.818   4.866  17.542  0.00  0.00    +0.000 N 
ATOM      4  C   UNL     1       6.885   5.671  16.990  0.00  0.00    +0.000 C 
ATOM      5  C   UNL     1       7.853   6.086  18.111  0.00  0.00    +0.000 C 
ATOM      6  C   UNL     1       7.868   7.596  18.050  0.00  0.00    +0.000 C 
ATOM      7  C   UNL     1       6.527   7.915  17.443  0.00  0.00    +0.000 C 
ATOM      8  O   UNL     1       6.312   6.882  16.480  0.00  0.00    +0.000 OA
ATOM      9  C   UNL     1       7.615   4.940  15.864  0.00  0.00    +0.000 C 
ATOM     10  C   UNL     1       6.667   4.504  14.758  0.00  0.00    +0.000 C 
ATOM     11  S   UNL     1       5.421   3.356  15.392  0.00  0.00    +0.000 S 
ATOM     12  H   UNL     1       5.361   5.383  18.297  0.00  0.00    +0.000 HD
ENDROOT
BRANCH   1  14
ATOM     13  O   UNL     1       2.988   6.433  17.828  0.00  0.00    +0.000 OA
ATOM     14  C   UNL     1       3.025   5.203  17.831  0.00  0.00    +0.000 C 
BRANCH  14  15
ATOM     15  C   UNL     1       2.423   4.463  18.982  0.00  0.00    +0.000 A 
ATOM     16  C   UNL     1       2.774   4.828  20.291  0.00  0.00    +0.000 A 
ATOM     17  C   UNL     1       2.228   4.147  21.381  0.00  0.00    +0.000 A 
ATOM     18  C   UNL     1       1.334   3.105  21.161  0.00  0.00    +0.000 A 
ATOM     19  F   UNL     1       0.815   2.450  22.207  0.00  0.00    +0.000 F 
ATOM     20  C   UNL     1       0.972   2.732  19.872  0.00  0.00    +0.000 A 
ATOM     21  C   UNL     1       1.514   3.413  18.778  0.00  0.00    +0.000 A 
ENDBRANCH  14  15
ENDBRANCH   1  14
TORSDOF 2
ENDMDL
MODEL 3
REMARK VINA RESULT:      -7.0      3.811      4.994
REMARK  Name = 
REMARK  2 active torsions:
REMARK  status: ('A' for Active; 'I' for Inactive)
REMARK    1  A    between atoms: C_2  and  N_3
REMARK    2  A    between atoms: C_2  and  C_14
REMARK                            x       y       z     vdW  Elec       q    Type
REMARK                         _______ _______ _______ _____ _____    ______ ____
ROOT
ATOM      1  N   UNL     1       3.661   7.084  18.185  0.00  0.00    +0.000 NA
ATOM      2  C   UNL     1       3.919   6.069  17.433  0.00  0.00    +0.000 C 
ATOM      3  N   UNL     1       3.336   4.831  17.430  0.00  0.00    +0.000 N 
ATOM      4  C   UNL     1       4.139   3.632  17.519  0.00  0.00    +0.000 C 
ATOM      5  C   UNL     1       3.232   2.393  17.438  0.00  0.00    +0.000 C 
ATOM      6  C   UNL     1       3.529   1.631  18.710  0.00  0.00    +0.000 C 
ATOM      7  C   UNL     1       3.999   2.716  19.643  0.00  0.00    +0.000 C 
ATOM      8  O   UNL     1       4.754   3.602  18.814  0.00  0.00    +0.000 OA
ATOM      9  C   UNL     1       5.223   3.601  16.441  0.00  0.00    +0.000 C 
ATOM     10  C   UNL     1       6.116   4.831  16.494  0.00  0.00    +0.000 C 
ATOM     11  S   UNL     1       5.155   6.337  16.212  0.00  0.00    +0.000 S 
ATOM     12  H   UNL     1       2.618   4.810  18.157  0.00  0.00    +0.000 HD
ENDROOT
BRANCH   1  14
ATOM     13  O   UNL     1       2.630   5.982  19.937  0.00  0.00    +0.000 OA
ATOM     14  C   UNL     1       2.744   6.958  19.197  0.00  0.00    +0.000 C 
BRANCH  14  15
ATOM     15  C   UNL     1       1.838   8.130  19.398  0.00  0.00    +0.000 A 
ATOM     16  C   UNL     1       1.558   8.975  18.312  0.00  0.00    +0.000 A 
ATOM     17  C   UNL     1       0.718  10.078  18.479  0.00  0.00    +0.000 A 
ATOM     18  C   UNL     1       0.161  10.334  19.727  0.00  0.00    +0.000 A 
ATOM     19  F   UNL     1      -0.640  11.395  19.886  0.00  0.00    +0.000 F 
ATOM     20  C   UNL     1       0.424   9.506  20.812  0.00  0.00    +0.000 A 
ATOM     21  C   UNL     1       1.262   8.399  20.650  0.00  0.00    +0.000 A 
ENDBRANCH  14  15
ENDBRANCH   1  14
TORSDOF 2
ENDMDL
MODEL 4
REMARK VINA RESULT:      -7.0      3.812      5.044
REMARK  Name = 
REMARK  2 active torsions:
REMARK  status: ('A' for Active; 'I' for Inactive)
REMARK    1  A    between atoms: C_2  and  N_3
REMARK    2  A    between atoms: C_2  and  C_14
REMARK                            x       y       z     vdW  Elec       q    Type
REMARK                         _______ _______ _______ _____ _____    ______ ____
ROOT
ATOM      1  N   UNL     1       3.636   7.099  18.177  0.00  0.00    +0.000 NA
ATOM      2  C   UNL     1       3.901   6.080  17.433  0.00  0.00    +0.000 C 
ATOM      3  N   UNL     1       3.320   4.840  17.436  0.00  0.00    +0.000 N 
ATOM      4  C   UNL     1       4.126   3.644  17.537  0.00  0.00    +0.000 C 
ATOM      5  C   UNL     1       3.222   2.402  17.461  0.00  0.00    +0.000 C 
ATOM      6  C   UNL     1       3.514   1.649  18.739  0.00  0.00    +0.000 C 
ATOM      7  C   UNL     1       3.977   2.742  19.667  0.00  0.00    +0.000 C 
ATOM      8  O   UNL     1       4.734   3.624  18.836  0.00  0.00    +0.000 OA
ATOM      9  C   UNL     1       5.216   3.608  16.465  0.00  0.00    +0.000 C 
ATOM     10  C   UNL     1       6.105   4.841  16.514  0.00  0.00    +0.000 C 
ATOM     11  S   UNL     1       5.142   6.342  16.217  0.00  0.00    +0.000 S 
ATOM     12  H   UNL     1       2.599   4.823  18.160  0.00  0.00    +0.000 HD
ENDROOT
BRANCH   1  14
ATOM     13  O   UNL     1       2.592   6.002  19.925  0.00  0.00    +0.000 OA
ATOM     14  C   UNL     1       2.714   6.978  19.185  0.00  0.00    +0.000 C 
BRANCH  14  15
ATOM     15  C   UNL     1       1.813   8.154  19.381  0.00  0.00    +0.000 A 
ATOM     16  C   UNL     1       1.262   8.391  20.651  0.00  0.00    +0.000 A 
ATOM     17  C   UNL     1       0.413   9.482  20.856  0.00  0.00    +0.000 A 
ATOM     18  C   UNL     1       0.118  10.330  19.795  0.00  0.00    +0.000 A 
ATOM     19  F   UNL     1      -0.700  11.372  19.992  0.00  0.00    +0.000 F 
ATOM     20  C   UNL     1       0.657  10.113  18.532  0.00  0.00    +0.000 A 
ATOM     21  C   UNL     1       1.509   9.024  18.322  0.00  0.00    +0.000 A 
ENDBRANCH  14  15
ENDBRANCH   1  14
TORSDOF 2
ENDMDL
MODEL 5
REMARK VINA RESULT:      -6.8      4.380      5.289
REMARK  Name = 
REMARK  2 active torsions:
REMARK  status: ('A' for Active; 'I' for Inactive)
REMARK    1  A    between atoms: C_2  and  N_3
REMARK    2  A    between atoms: C_2  and  C_14
REMARK                            x       y       z     vdW  Elec       q    Type
REMARK                         _______ _______ _______ _____ _____    ______ ____
ROOT
ATOM      1  N   UNL     1       1.577   6.191  20.476  0.00  0.00    +0.000 NA
ATOM      2  C   UNL     1       2.518   5.311  20.438  0.00  0.00    +0.000 C 
ATOM      3  N   UNL     1       3.810   5.452  20.006  0.00  0.00    +0.000 N 
ATOM      4  C   UNL     1       4.366   4.548  19.023  0.00  0.00    +0.000 C 
ATOM      5  C   UNL     1       5.840   4.905  18.767  0.00  0.00    +0.000 C 
ATOM      6  C   UNL     1       5.907   5.163  17.279  0.00  0.00    +0.000 C 
ATOM      7  C   UNL     1       4.496   5.579  16.952  0.00  0.00    +0.000 C 
ATOM      8  O   UNL     1       3.676   4.757  17.784  0.00  0.00    +0.000 OA
ATOM      9  C   UNL     1       4.212   3.088  19.452  0.00  0.00    +0.000 C 
ATOM     10  C   UNL     1       2.761   2.726  19.730  0.00  0.00    +0.000 C 
ATOM     11  S   UNL     1       2.093   3.730  21.078  0.00  0.00    +0.000 S 
ATOM     12  H   UNL     1       3.941   6.415  19.689  0.00  0.00    +0.000 HD
ENDROOT
BRANCH   1  14
ATOM     13  O   UNL     1       2.487   7.688  18.968  0.00  0.00    +0.000 OA
ATOM     14  C   UNL     1       1.799   7.440  19.957  0.00  0.00    +0.000 C 
BRANCH  14  15
ATOM     15  C   UNL     1       1.119   8.566  20.668  0.00  0.00    +0.000 A 
ATOM     16  C   UNL     1       0.616   9.644  19.922  0.00  0.00    +0.000 A 
ATOM     17  C   UNL     1      -0.019  10.708  20.565  0.00  0.00    +0.000 A 
ATOM     18  C   UNL     1      -0.149  10.694  21.950  0.00  0.00    +0.000 A 
ATOM     19  F   UNL     1      -0.753  11.718  22.566  0.00  0.00    +0.000 F 
ATOM     20  C   UNL     1       0.340   9.633  22.704  0.00  0.00    +0.000 A 
ATOM     21  C   UNL     1       0.973   8.564  22.064  0.00  0.00    +0.000 A 
ENDBRANCH  14  15
ENDBRANCH   1  14
TORSDOF 2
ENDMDL
MODEL 6
REMARK VINA RESULT:      -6.8      4.394      5.335
REMARK  Name = 
REMARK  2 active torsions:
REMARK  status: ('A' for Active; 'I' for Inactive)
REMARK    1  A    between atoms: C_2  and  N_3
REMARK    2  A    between atoms: C_2  and  C_14
REMARK                            x       y       z     vdW  Elec       q    Type
REMARK                         _______ _______ _______ _____ _____    ______ ____
ROOT
ATOM      1  N   UNL     1       1.565   6.234  20.506  0.00  0.00    +0.000 NA
ATOM      2  C   UNL     1       2.515   5.363  20.463  0.00  0.00    +0.000 C 
ATOM      3  N   UNL     1       3.804   5.518  20.031  0.00  0.00    +0.000 N 
ATOM      4  C   UNL     1       4.369   4.625  19.043  0.00  0.00    +0.000 C 
ATOM      5  C   UNL     1       5.839   4.997  18.788  0.00  0.00    +0.000 C 
ATOM      6  C   UNL     1       5.903   5.264  17.302  0.00  0.00    +0.000 C 
ATOM      7  C   UNL     1       4.489   5.668  16.978  0.00  0.00    +0.000 C 
ATOM      8  O   UNL     1       3.676   4.834  17.805  0.00  0.00    +0.000 OA
ATOM      9  C   UNL     1       4.228   3.162  19.464  0.00  0.00    +0.000 C 
ATOM     10  C   UNL     1       2.781   2.784  19.742  0.00  0.00    +0.000 C 
ATOM     11  S   UNL     1       2.104   3.775  21.095  0.00  0.00    +0.000 S 
ATOM     12  H   UNL     1       3.926   6.484  19.720  0.00  0.00    +0.000 HD
ENDROOT
BRANCH   1  14
ATOM     13  O   UNL     1       2.460   7.747  19.005  0.00  0.00    +0.000 OA
ATOM     14  C   UNL     1       1.775   7.488  19.994  0.00  0.00    +0.000 C 
BRANCH  14  15
ATOM     15  C   UNL     1       1.086   8.603  20.711  0.00  0.00    +0.000 A 
ATOM     16  C   UNL     1       0.998   8.568  22.112  0.00  0.00    +0.000 A 
ATOM     17  C   UNL     1       0.355   9.597  22.802  0.00  0.00    +0.000 A 
ATOM     18  C   UNL     1      -0.199  10.657  22.093  0.00  0.00    +0.000 A 
ATOM     19  F   UNL     1      -0.820  11.641  22.756  0.00  0.00    +0.000 F 
ATOM     20  C   UNL     1      -0.119  10.711  20.706  0.00  0.00    +0.000 A 
ATOM     21  C   UNL     1       0.527   9.684  20.011  0.00  0.00    +0.000 A 
ENDBRANCH  14  15
ENDBRANCH   1  14
TORSDOF 2
ENDMDL
MODEL 7
REMARK VINA RESULT:      -6.7      4.073      5.444
REMARK  Name = 
REMARK  2 active torsions:
REMARK  status: ('A' for Active; 'I' for Inactive)
REMARK    1  A    between atoms: C_2  and  N_3
REMARK    2  A    between atoms: C_2  and  C_14
REMARK                            x       y       z     vdW  Elec       q    Type
REMARK                         _______ _______ _______ _____ _____    ______ ____
ROOT
ATOM      1  N   UNL     1       3.024   7.320  19.040  0.00  0.00    +0.000 NA
ATOM      2  C   UNL     1       3.240   6.396  18.167  0.00  0.00    +0.000 C 
ATOM      3  N   UNL     1       2.571   5.216  17.982  0.00  0.00    +0.000 N 
ATOM      4  C   UNL     1       3.284   3.959  17.935  0.00  0.00    +0.000 C 
ATOM      5  C   UNL     1       2.295   2.812  17.663  0.00  0.00    +0.000 C 
ATOM      6  C   UNL     1       2.487   1.871  18.830  0.00  0.00    +0.000 C 
ATOM      7  C   UNL     1       2.996   2.786  19.912  0.00  0.00    +0.000 C 
ATOM      8  O   UNL     1       3.843   3.714  19.232  0.00  0.00    +0.000 OA
ATOM      9  C   UNL     1       4.404   3.987  16.895  0.00  0.00    +0.000 C 
ATOM     10  C   UNL     1       5.378   5.130  17.138  0.00  0.00    +0.000 C 
ATOM     11  S   UNL     1       4.539   6.728  17.031  0.00  0.00    +0.000 S 
ATOM     12  H   UNL     1       1.826   5.155  18.679  0.00  0.00    +0.000 HD
ENDROOT
BRANCH   1  14
ATOM     13  O   UNL     1       1.824   6.069  20.569  0.00  0.00    +0.000 OA
ATOM     14  C   UNL     1       2.062   7.133  19.999  0.00  0.00    +0.000 C 
BRANCH  14  15
ATOM     15  C   UNL     1       1.270   8.346  20.366  0.00  0.00    +0.000 A 
ATOM     16  C   UNL     1       1.124   9.380  19.427  0.00  0.00    +0.000 A 
ATOM     17  C   UNL     1       0.391  10.524  19.750  0.00  0.00    +0.000 A 
ATOM     18  C   UNL     1      -0.192  10.633  21.008  0.00  0.00    +0.000 A 
ATOM     19  F   UNL     1      -0.889  11.734  21.318  0.00  0.00    +0.000 F 
ATOM     20  C   UNL     1      -0.061   9.618  21.949  0.00  0.00    +0.000 A 
ATOM     21  C   UNL     1       0.669   8.469  21.629  0.00  0.00    +0.000 A 
ENDBRANCH  14  15
ENDBRANCH   1  14
TORSDOF 2
ENDMDL
MODEL 8
REMARK VINA RESULT:      -6.7      2.831      5.588
REMARK  Name = 
REMARK  2 active torsions:
REMARK  status: ('A' for Active; 'I' for Inactive)
REMARK    1  A    between atoms: C_2  and  N_3
REMARK    2  A    between atoms: C_2  and  C_14
REMARK                            x       y       z     vdW  Elec       q    Type
REMARK                         _______ _______ _______ _____ _____    ______ ____
ROOT
ATOM      1  N   UNL     1       5.053   3.050  16.723  0.00  0.00    +0.000 NA
ATOM      2  C   UNL     1       3.931   3.208  17.338  0.00  0.00    +0.000 C 
ATOM      3  N   UNL     1       3.100   4.296  17.342  0.00  0.00    +0.000 N 
ATOM      4  C   UNL     1       2.655   4.885  18.586  0.00  0.00    +0.000 C 
ATOM      5  C   UNL     1       1.694   6.049  18.293  0.00  0.00    +0.000 C 
ATOM      6  C   UNL     1       2.330   7.238  18.975  0.00  0.00    +0.000 C 
ATOM      7  C   UNL     1       3.789   6.863  18.999  0.00  0.00    +0.000 C 
ATOM      8  O   UNL     1       3.795   5.455  19.242  0.00  0.00    +0.000 OA
ATOM      9  C   UNL     1       2.009   3.844  19.501  0.00  0.00    +0.000 C 
ATOM     10  C   UNL     1       2.941   2.675  19.782  0.00  0.00    +0.000 C 
ATOM     11  S   UNL     1       3.375   1.814  18.252  0.00  0.00    +0.000 S 
ATOM     12  H   UNL     1       3.515   5.022  16.755  0.00  0.00    +0.000 HD
ENDROOT
BRANCH   1  14
ATOM     13  O   UNL     1       5.448   4.295  14.815  0.00  0.00    +0.000 OA
ATOM     14  C   UNL     1       5.592   4.097  16.021  0.00  0.00    +0.000 C 
BRANCH  14  15
ATOM     15  C   UNL     1       6.401   5.065  16.823  0.00  0.00    +0.000 A 
ATOM     16  C   UNL     1       6.395   6.424  16.467  0.00  0.00    +0.000 A 
ATOM     17  C   UNL     1       7.146   7.345  17.200  0.00  0.00    +0.000 A 
ATOM     18  C   UNL     1       7.901   6.908  18.283  0.00  0.00    +0.000 A 
ATOM     19  F   UNL     1       8.625   7.792  18.980  0.00  0.00    +0.000 F 
ATOM     20  C   UNL     1       7.916   5.568  18.652  0.00  0.00    +0.000 A 
ATOM     21  C   UNL     1       7.163   4.642  17.923  0.00  0.00    +0.000 A 
ENDBRANCH  14  15
ENDBRANCH   1  14
TORSDOF 2
ENDMDL
MODEL 9
REMARK VINA RESULT:      -6.7      4.206      5.716
REMARK  Name = 
REMARK  2 active torsions:
REMARK  status: ('A' for Active; 'I' for Inactive)
REMARK    1  A    between atoms: C_2  and  N_3
REMARK    2  A    between atoms: C_2  and  C_14
REMARK                            x       y       z     vdW  Elec       q    Type
REMARK                         _______ _______ _______ _____ _____    ______ ____
ROOT
ATOM      1  N   UNL     1       2.814   7.405  19.246  0.00  0.00    +0.000 NA
ATOM      2  C   UNL     1       2.970   6.461  18.381  0.00  0.00    +0.000 C 
ATOM      3  N   UNL     1       2.253   5.304  18.232  0.00  0.00    +0.000 N 
ATOM      4  C   UNL     1       2.918   4.021  18.183  0.00  0.00    +0.000 C 
ATOM      5  C   UNL     1       1.880   2.908  17.957  0.00  0.00    +0.000 C 
ATOM      6  C   UNL     1       2.071   1.977  19.131  0.00  0.00    +0.000 C 
ATOM      7  C   UNL     1       2.644   2.887  20.186  0.00  0.00    +0.000 C 
ATOM      8  O   UNL     1       3.505   3.773  19.468  0.00  0.00    +0.000 OA
ATOM      9  C   UNL     1       4.008   3.994  17.112  0.00  0.00    +0.000 C 
ATOM     10  C   UNL     1       5.030   5.102  17.310  0.00  0.00    +0.000 C 
ATOM     11  S   UNL     1       4.247   6.729  17.203  0.00  0.00    +0.000 S 
ATOM     12  H   UNL     1       1.527   5.280  18.950  0.00  0.00    +0.000 HD
ENDROOT
BRANCH   1  14
ATOM     13  O   UNL     1       1.580   6.211  20.795  0.00  0.00    +0.000 OA
ATOM     14  C   UNL     1       1.873   7.266  20.233  0.00  0.00    +0.000 C 
BRANCH  14  15
ATOM     15  C   UNL     1       1.180   8.524  20.647  0.00  0.00    +0.000 A 
ATOM     16  C   UNL     1       0.788   8.683  21.986  0.00  0.00    +0.000 A 
ATOM     17  C   UNL     1       0.135   9.848  22.394  0.00  0.00    +0.000 A 
ATOM     18  C   UNL     1      -0.124  10.850  21.465  0.00  0.00    +0.000 A 
ATOM     19  F   UNL     1      -0.756  11.964  21.856  0.00  0.00    +0.000 F 
ATOM     20  C   UNL     1       0.259  10.711  20.136  0.00  0.00    +0.000 A 
ATOM     21  C   UNL     1       0.915   9.548  19.724  0.00  0.00    +0.000 A 
ENDBRANCH  14  15
ENDBRANCH   1  14
TORSDOF 2
ENDMDL
