MODEL 1
REMARK VINA RESULT:      -8.0      0.000      0.000
REMARK  Name = 
REMARK  8 active torsions:
REMARK  status: ('A' for Active; 'I' for Inactive)
REMARK    1  A    between atoms: C_1  and  C_2
REMARK    2  A    between atoms: C_2  and  C_3
REMARK    3  A    between atoms: C_3  and  N_4
REMARK    4  A    between atoms: N_4  and  C_5
REMARK    5  A    between atoms: N_4  and  C_6
REMARK    6  A    between atoms: N_4  and  C_7
REMARK    7  A    between atoms: C_10  and  C_11
REMARK    8  A    between atoms: C_12  and  C_13
REMARK                            x       y       z     vdW  Elec       q    Type
REMARK                         _______ _______ _______ _____ _____    ______ ____
ROOT
ATOM      1  C   UNL     1       5.537   5.385  18.021  0.00  0.00    +0.000 A 
ATOM      2  C   UNL     1       6.748   5.215  18.716  0.00  0.00    +0.000 A 
ATOM      3  C   UNL     1       7.772   6.249  18.827  0.00  0.00    +0.000 A 
ATOM      4  C   UNL     1       7.678   7.512  18.220  0.00  0.00    +0.000 A 
ATOM      5  C   UNL     1       6.496   7.629  17.431  0.00  0.00    +0.000 A 
ATOM      6  C   UNL     1       5.455   6.608  17.334  0.00  0.00    +0.000 A 
ENDROOT
BRANCH   1   7
ATOM      7  N   UNL     1       4.390   4.286  18.014  0.00  0.00    +0.000 NA
ATOM      8  C   UNL     1       4.390   3.429  16.735  0.00  0.00    +0.000 C 
ATOM      9  C   UNL     1       4.600   3.313  19.186  0.00  0.00    +0.000 C 
BRANCH   7  10
ATOM     10  C   UNL     1       2.954   4.880  18.175  0.00  0.00    +0.000 C 
BRANCH  10  12
ATOM     11  C   UNL     1       1.045   3.303  18.673  0.00  0.00    +0.000 C 
ATOM     12  C   UNL     1       1.842   4.018  17.586  0.00  0.00    +0.000 C 
ENDBRANCH  10  12
ENDBRANCH   7  10
ENDBRANCH   1   7
BRANCH   4  13
ATOM     13  C   UNL     1       8.760   8.653  18.292  0.00  0.00    +0.000 C 
ATOM     14  C   UNL     1       8.761   9.975  18.695  0.00  0.00    +0.000 C 
BRANCH  14  15
ATOM     15  C   UNL     1      10.027  10.964  18.941  0.00  0.00    +0.000 A 
ATOM     16  C   UNL     1       9.930  11.337  20.276  0.00  0.00    +0.000 A 
ATOM     17  C   UNL     1       9.335  12.565  20.526  0.00  0.00    +0.000 A 
ATOM     18  N   UNL     1       9.095  13.504  19.574  0.00  0.00    +0.000 NA
ATOM     19  C   UNL     1       9.793  13.387  18.440  0.00  0.00    +0.000 A 
ATOM     20  C   UNL     1      10.090  14.571  17.783  0.00  0.00    +0.000 A 
ATOM     21  C   UNL     1      11.211  14.673  16.985  0.00  0.00    +0.000 A 
ATOM     22  C   UNL     1      12.002  13.539  16.796  0.00  0.00    +0.000 A 
ATOM     23  C   UNL     1      11.566  12.275  17.349  0.00  0.00    +0.000 A 
ATOM     24  C   UNL     1      10.375  12.124  18.102  0.00  0.00    +0.000 A 
ENDBRANCH  14  15
ENDBRANCH   4  13
TORSDOF 5
ENDMDL
MODEL 2
REMARK VINA RESULT:      -8.0      6.143      9.018
REMARK  Name = 
REMARK  8 active torsions:
REMARK  status: ('A' for Active; 'I' for Inactive)
REMARK    1  A    between atoms: C_1  and  C_2
REMARK    2  A    between atoms: C_2  and  C_3
REMARK    3  A    between atoms: C_3  and  N_4
REMARK    4  A    between atoms: N_4  and  C_5
REMARK    5  A    between atoms: N_4  and  C_6
REMARK    6  A    between atoms: N_4  and  C_7
REMARK    7  A    between atoms: C_10  and  C_11
REMARK    8  A    between atoms: C_12  and  C_13
REMARK                            x       y       z     vdW  Elec       q    Type
REMARK                         _______ _______ _______ _____ _____    ______ ____
ROOT
ATOM      1  C   UNL     1       0.497  10.668  19.678  0.00  0.00    +0.000 A 
ATOM      2  C   UNL     1       0.647   9.608  20.591  0.00  0.00    +0.000 A 
ATOM      3  C   UNL     1       1.366   8.375  20.292  0.00  0.00    +0.000 A 
ATOM      4  C   UNL     1       1.955   8.093  19.049  0.00  0.00    +0.000 A 
ATOM      5  C   UNL     1       1.701   9.129  18.102  0.00  0.00    +0.000 A 
ATOM      6  C   UNL     1       1.003  10.378  18.400  0.00  0.00    +0.000 A 
ENDROOT
BRANCH   1   7
ATOM      7  N   UNL     1      -0.189  12.047  20.068  0.00  0.00    +0.000 NA
ATOM      8  C   UNL     1      -0.877  12.005  21.445  0.00  0.00    +0.000 C 
ATOM      9  C   UNL     1       0.879  13.149  20.152  0.00  0.00    +0.000 C 
BRANCH   7  10
ATOM     10  C   UNL     1      -1.253  12.531  19.032  0.00  0.00    +0.000 C 
BRANCH  10  12
ATOM     11  C   UNL     1      -2.522  11.146  17.343  0.00  0.00    +0.000 C 
ATOM     12  C   UNL     1      -2.407  11.559  18.808  0.00  0.00    +0.000 C 
ENDBRANCH  10  12
ENDBRANCH   7  10
ENDBRANCH   1   7
BRANCH   4  13
ATOM     13  C   UNL     1       2.722   6.773  18.669  0.00  0.00    +0.000 C 
ATOM     14  C   UNL     1       2.378   5.586  18.051  0.00  0.00    +0.000 C 
BRANCH  14  15
ATOM     15  C   UNL     1       3.349   4.402  17.505  0.00  0.00    +0.000 A 
ATOM     16  C   UNL     1       3.346   3.449  18.516  0.00  0.00    +0.000 A 
ATOM     17  C   UNL     1       4.420   3.484  19.393  0.00  0.00    +0.000 A 
ATOM     18  N   UNL     1       5.560   4.190  19.174  0.00  0.00    +0.000 NA
ATOM     19  C   UNL     1       5.796   4.554  17.911  0.00  0.00    +0.000 A 
ATOM     20  C   UNL     1       7.130   4.647  17.543  0.00  0.00    +0.000 A 
ATOM     21  C   UNL     1       7.515   4.448  16.233  0.00  0.00    +0.000 A 
ATOM     22  C   UNL     1       6.529   4.222  15.272  0.00  0.00    +0.000 A 
ATOM     23  C   UNL     1       5.137   4.310  15.657  0.00  0.00    +0.000 A 
ATOM     24  C   UNL     1       4.711   4.595  16.979  0.00  0.00    +0.000 A 
ENDBRANCH  14  15
ENDBRANCH   4  13
TORSDOF 5
ENDMDL
MODEL 3
REMARK VINA RESULT:      -8.0      5.688      9.129
REMARK  Name = 
REMARK  8 active torsions:
REMARK  status: ('A' for Active; 'I' for Inactive)
REMARK    1  A    between atoms: C_1  and  C_2
REMARK    2  A    between atoms: C_2  and  C_3
REMARK    3  A    between atoms: C_3  and  N_4
REMARK    4  A    between atoms: N_4  and  C_5
REMARK    5  A    between atoms: N_4  and  C_6
REMARK    6  A    between atoms: N_4  and  C_7
REMARK    7  A    between atoms: C_10  and  C_11
REMARK    8  A    between atoms: C_12  and  C_13
REMARK                            x       y       z     vdW  Elec       q    Type
REMARK                         _______ _______ _______ _____ _____    ______ ____
ROOT
ATOM      1  C   UNL     1       0.352  10.534  19.783  0.00  0.00    +0.000 A 
ATOM      2  C   UNL     1       0.811  10.318  18.471  0.00  0.00    +0.000 A 
ATOM      3  C   UNL     1       1.555   9.134  18.055  0.00  0.00    +0.000 A 
ATOM      4  C   UNL     1       1.929   8.098  18.926  0.00  0.00    +0.000 A 
ATOM      5  C   UNL     1       1.552   8.383  20.272  0.00  0.00    +0.000 A 
ATOM      6  C   UNL     1       0.785   9.554  20.692  0.00  0.00    +0.000 A 
ENDROOT
BRANCH   1   7
ATOM      7  N   UNL     1      -0.556  11.775  20.182  0.00  0.00    +0.000 NA
ATOM      8  C   UNL     1      -1.816  11.900  19.307  0.00  0.00    +0.000 C 
ATOM      9  C   UNL     1      -1.049  11.609  21.629  0.00  0.00    +0.000 C 
BRANCH   7  10
ATOM     10  C   UNL     1       0.192  13.144  20.117  0.00  0.00    +0.000 C 
BRANCH  10  12
ATOM     11  C   UNL     1       2.648  13.530  19.668  0.00  0.00    +0.000 C 
ATOM     12  C   UNL     1       1.601  13.125  20.702  0.00  0.00    +0.000 C 
ENDBRANCH  10  12
ENDBRANCH   7  10
ENDBRANCH   1   7
BRANCH   4  13
ATOM     13  C   UNL     1       2.747   6.813  18.534  0.00  0.00    +0.000 C 
ATOM     14  C   UNL     1       2.420   5.526  18.149  0.00  0.00    +0.000 C 
BRANCH  14  15
ATOM     15  C   UNL     1       3.385   4.371  17.535  0.00  0.00    +0.000 A 
ATOM     16  C   UNL     1       3.481   3.419  18.542  0.00  0.00    +0.000 A 
ATOM     17  C   UNL     1       4.613   3.487  19.341  0.00  0.00    +0.000 A 
ATOM     18  N   UNL     1       5.714   4.226  19.043  0.00  0.00    +0.000 NA
ATOM     19  C   UNL     1       5.849   4.595  17.766  0.00  0.00    +0.000 A 
ATOM     20  C   UNL     1       7.150   4.727  17.304  0.00  0.00    +0.000 A 
ATOM     21  C   UNL     1       7.447   4.538  15.970  0.00  0.00    +0.000 A 
ATOM     22  C   UNL     1       6.402   4.282  15.081  0.00  0.00    +0.000 A 
ATOM     23  C   UNL     1       5.039   4.329  15.564  0.00  0.00    +0.000 A 
ATOM     24  C   UNL     1       4.700   4.603  16.913  0.00  0.00    +0.000 A 
ENDBRANCH  14  15
ENDBRANCH   4  13
TORSDOF 5
ENDMDL
MODEL 4
REMARK VINA RESULT:      -7.9      0.767      1.099
REMARK  Name = 
REMARK  8 active torsions:
REMARK  status: ('A' for Active; 'I' for Inactive)
REMARK    1  A    between atoms: C_1  and  C_2
REMARK    2  A    between atoms: C_2  and  C_3
REMARK    3  A    between atoms: C_3  and  N_4
REMARK    4  A    between atoms: N_4  and  C_5
REMARK    5  A    between atoms: N_4  and  C_6
REMARK    6  A    between atoms: N_4  and  C_7
REMARK    7  A    between atoms: C_10  and  C_11
REMARK    8  A    between atoms: C_12  and  C_13
REMARK                            x       y       z     vdW  Elec       q    Type
REMARK                         _______ _______ _______ _____ _____    ______ ____
ROOT
ATOM      1  C   UNL     1       5.314   5.260  18.056  0.00  0.00    +0.000 A 
ATOM      2  C   UNL     1       6.453   5.146  18.874  0.00  0.00    +0.000 A 
ATOM      3  C   UNL     1       7.497   6.161  18.959  0.00  0.00    +0.000 A 
ATOM      4  C   UNL     1       7.500   7.346  18.204  0.00  0.00    +0.000 A 
ATOM      5  C   UNL     1       6.398   7.395  17.302  0.00  0.00    +0.000 A 
ATOM      6  C   UNL     1       5.335   6.395  17.228  0.00  0.00    +0.000 A 
ENDROOT
BRANCH   1   7
ATOM      7  N   UNL     1       4.136   4.194  18.071  0.00  0.00    +0.000 NA
ATOM      8  C   UNL     1       3.944   3.495  16.713  0.00  0.00    +0.000 C 
ATOM      9  C   UNL     1       4.455   3.086  19.088  0.00  0.00    +0.000 C 
BRANCH   7  10
ATOM     10  C   UNL     1       2.754   4.796  18.482  0.00  0.00    +0.000 C 
BRANCH  10  12
ATOM     11  C   UNL     1       2.406   7.064  19.538  0.00  0.00    +0.000 C 
ATOM     12  C   UNL     1       2.774   5.602  19.777  0.00  0.00    +0.000 C 
ENDBRANCH  10  12
ENDBRANCH   7  10
ENDBRANCH   1   7
BRANCH   4  13
ATOM     13  C   UNL     1       8.609   8.461  18.243  0.00  0.00    +0.000 C 
ATOM     14  C   UNL     1       8.609   9.835  18.393  0.00  0.00    +0.000 C 
BRANCH  14  15
ATOM     15  C   UNL     1       9.866  10.832  18.658  0.00  0.00    +0.000 A 
ATOM     16  C   UNL     1       9.953  10.929  20.041  0.00  0.00    +0.000 A 
ATOM     17  C   UNL     1       9.363  12.046  20.614  0.00  0.00    +0.000 A 
ATOM     18  N   UNL     1       8.956  13.137  19.914  0.00  0.00    +0.000 NA
ATOM     19  C   UNL     1       9.483  13.287  18.695  0.00  0.00    +0.000 A 
ATOM     20  C   UNL     1       9.643  14.593  18.257  0.00  0.00    +0.000 A 
ATOM     21  C   UNL     1      10.632  14.916  17.350  0.00  0.00    +0.000 A 
ATOM     22  C   UNL     1      11.422  13.891  16.828  0.00  0.00    +0.000 A 
ATOM     23  C   UNL     1      11.113  12.519  17.168  0.00  0.00    +0.000 A 
ATOM     24  C   UNL     1      10.050  12.152  18.032  0.00  0.00    +0.000 A 
ENDBRANCH  14  15
ENDBRANCH   4  13
TORSDOF 5
ENDMDL
MODEL 5
REMARK VINA RESULT:      -7.9      6.199      9.097
REMARK  Name = 
REMARK  8 active torsions:
REMARK  status: ('A' for Active; 'I' for Inactive)
REMARK    1  A    between atoms: C_1  and  C_2
REMARK    2  A    between atoms: C_2  and  C_3
REMARK    3  A    between atoms: C_3  and  N_4
REMARK    4  A    between atoms: N_4  and  C_5
REMARK    5  A    between atoms: N_4  and  C_6
REMARK    6  A    between atoms: N_4  and  C_7
REMARK    7  A    between atoms: C_10  and  C_11
REMARK    8  A    between atoms: C_12  and  C_13
REMARK                            x       y       z     vdW  Elec       q    Type
REMARK                         _______ _______ _______ _____ _____    ______ ____
ROOT
ATOM      1  C   UNL     1       0.548  10.639  20.022  0.00  0.00    +0.000 A 
ATOM      2  C   UNL     1       1.050  10.478  18.718  0.00  0.00    +0.000 A 
ATOM      3  C   UNL     1       1.747   9.281  18.258  0.00  0.00    +0.000 A 
ATOM      4  C   UNL     1       2.029   8.176  19.078  0.00  0.00    +0.000 A 
ATOM      5  C   UNL     1       1.611   8.400  20.423  0.00  0.00    +0.000 A 
ATOM      6  C   UNL     1       0.890   9.585  20.885  0.00  0.00    +0.000 A 
ENDROOT
BRANCH   1   7
ATOM      7  N   UNL     1      -0.310  11.902  20.462  0.00  0.00    +0.000 NA
ATOM      8  C   UNL     1      -1.263  11.600  21.632  0.00  0.00    +0.000 C 
ATOM      9  C   UNL     1       0.629  13.020  20.946  0.00  0.00    +0.000 C 
BRANCH   7  10
ATOM     10  C   UNL     1      -1.170  12.506  19.307  0.00  0.00    +0.000 C 
BRANCH  10  12
ATOM     11  C   UNL     1      -3.044  11.453  17.981  0.00  0.00    +0.000 C 
ATOM     12  C   UNL     1      -2.633  12.075  19.313  0.00  0.00    +0.000 C 
ENDBRANCH  10  12
ENDBRANCH   7  10
ENDBRANCH   1   7
BRANCH   4  13
ATOM     13  C   UNL     1       2.794   6.873  18.639  0.00  0.00    +0.000 C 
ATOM     14  C   UNL     1       2.415   5.611  18.223  0.00  0.00    +0.000 C 
BRANCH  14  15
ATOM     15  C   UNL     1       3.329   4.438  17.563  0.00  0.00    +0.000 A 
ATOM     16  C   UNL     1       3.374   3.441  18.529  0.00  0.00    +0.000 A 
ATOM     17  C   UNL     1       4.502   3.421  19.335  0.00  0.00    +0.000 A 
ATOM     18  N   UNL     1       5.638   4.119  19.074  0.00  0.00    +0.000 NA
ATOM     19  C   UNL     1       5.800   4.536  17.815  0.00  0.00    +0.000 A 
ATOM     20  C   UNL     1       7.108   4.626  17.365  0.00  0.00    +0.000 A 
ATOM     21  C   UNL     1       7.405   4.482  16.026  0.00  0.00    +0.000 A 
ATOM     22  C   UNL     1       6.354   4.313  15.122  0.00  0.00    +0.000 A 
ATOM     23  C   UNL     1       4.992   4.404  15.600  0.00  0.00    +0.000 A 
ATOM     24  C   UNL     1       4.657   4.636  16.958  0.00  0.00    +0.000 A 
ENDBRANCH  14  15
ENDBRANCH   4  13
TORSDOF 5
ENDMDL
MODEL 6
REMARK VINA RESULT:      -7.9      6.179      9.095
REMARK  Name = 
REMARK  8 active torsions:
REMARK  status: ('A' for Active; 'I' for Inactive)
REMARK    1  A    between atoms: C_1  and  C_2
REMARK    2  A    between atoms: C_2  and  C_3
REMARK    3  A    between atoms: C_3  and  N_4
REMARK    4  A    between atoms: N_4  and  C_5
REMARK    5  A    between atoms: N_4  and  C_6
REMARK    6  A    between atoms: N_4  and  C_7
REMARK    7  A    between atoms: C_10  and  C_11
REMARK    8  A    between atoms: C_12  and  C_13
REMARK                            x       y       z     vdW  Elec       q    Type
REMARK                         _______ _______ _______ _____ _____    ______ ____
ROOT
ATOM      1  C   UNL     1       0.466  10.139  20.621  0.00  0.00    +0.000 A 
ATOM      2  C   UNL     1       0.658   8.984  21.401  0.00  0.00    +0.000 A 
ATOM      3  C   UNL     1       1.383   7.805  20.941  0.00  0.00    +0.000 A 
ATOM      4  C   UNL     1       1.936   7.677  19.657  0.00  0.00    +0.000 A 
ATOM      5  C   UNL     1       1.640   8.810  18.843  0.00  0.00    +0.000 A 
ATOM      6  C   UNL     1       0.935  10.005  19.303  0.00  0.00    +0.000 A 
ENDROOT
BRANCH   1   7
ATOM      7  N   UNL     1      -0.226  11.452  21.187  0.00  0.00    +0.000 NA
ATOM      8  C   UNL     1      -0.750  11.281  22.624  0.00  0.00    +0.000 C 
ATOM      9  C   UNL     1       0.801  12.596  21.234  0.00  0.00    +0.000 C 
BRANCH   7  10
ATOM     10  C   UNL     1      -1.419  11.956  20.314  0.00  0.00    +0.000 C 
BRANCH  10  12
ATOM     11  C   UNL     1      -0.795  12.976  18.089  0.00  0.00    +0.000 C 
ATOM     12  C   UNL     1      -1.144  13.247  19.549  0.00  0.00    +0.000 C 
ENDBRANCH  10  12
ENDBRANCH   7  10
ENDBRANCH   1   7
BRANCH   4  13
ATOM     13  C   UNL     1       2.708   6.422  19.105  0.00  0.00    +0.000 C 
ATOM     14  C   UNL     1       2.394   5.374  18.261  0.00  0.00    +0.000 C 
BRANCH  14  15
ATOM     15  C   UNL     1       3.384   4.276  17.586  0.00  0.00    +0.000 A 
ATOM     16  C   UNL     1       3.486   3.264  18.532  0.00  0.00    +0.000 A 
ATOM     17  C   UNL     1       4.607   3.299  19.348  0.00  0.00    +0.000 A 
ATOM     18  N   UNL     1       5.698   4.073  19.110  0.00  0.00    +0.000 NA
ATOM     19  C   UNL     1       5.842   4.525  17.861  0.00  0.00    +0.000 A 
ATOM     20  C   UNL     1       7.145   4.707  17.424  0.00  0.00    +0.000 A 
ATOM     21  C   UNL     1       7.460   4.608  16.085  0.00  0.00    +0.000 A 
ATOM     22  C   UNL     1       6.429   4.392  15.169  0.00  0.00    +0.000 A 
ATOM     23  C   UNL     1       5.061   4.387  15.637  0.00  0.00    +0.000 A 
ATOM     24  C   UNL     1       4.702   4.569  16.996  0.00  0.00    +0.000 A 
ENDBRANCH  14  15
ENDBRANCH   4  13
TORSDOF 5
ENDMDL
MODEL 7
REMARK VINA RESULT:      -7.9      6.206      9.213
REMARK  Name = 
REMARK  8 active torsions:
REMARK  status: ('A' for Active; 'I' for Inactive)
REMARK    1  A    between atoms: C_1  and  C_2
REMARK    2  A    between atoms: C_2  and  C_3
REMARK    3  A    between atoms: C_3  and  N_4
REMARK    4  A    between atoms: N_4  and  C_5
REMARK    5  A    between atoms: N_4  and  C_6
REMARK    6  A    between atoms: N_4  and  C_7
REMARK    7  A    between atoms: C_10  and  C_11
REMARK    8  A    between atoms: C_12  and  C_13
REMARK                            x       y       z     vdW  Elec       q    Type
REMARK                         _______ _______ _______ _____ _____    ______ ____
ROOT
ATOM      1  C   UNL     1       0.532  10.489  20.075  0.00  0.00    +0.000 A 
ATOM      2  C   UNL     1       1.004  10.292  18.765  0.00  0.00    +0.000 A 
ATOM      3  C   UNL     1       1.687   9.081  18.322  0.00  0.00    +0.000 A 
ATOM      4  C   UNL     1       1.983   7.996  19.163  0.00  0.00    +0.000 A 
ATOM      5  C   UNL     1       1.595   8.257  20.511  0.00  0.00    +0.000 A 
ATOM      6  C   UNL     1       0.889   9.456  20.958  0.00  0.00    +0.000 A 
ENDROOT
BRANCH   1   7
ATOM      7  N   UNL     1      -0.312  11.767  20.501  0.00  0.00    +0.000 NA
ATOM      8  C   UNL     1       0.555  12.875  21.124  0.00  0.00    +0.000 C 
ATOM      9  C   UNL     1      -0.976  12.384  19.258  0.00  0.00    +0.000 C 
BRANCH   7  10
ATOM     10  C   UNL     1      -1.459  11.450  21.512  0.00  0.00    +0.000 C 
BRANCH  10  12
ATOM     11  C   UNL     1      -2.799  12.494  23.381  0.00  0.00    +0.000 C 
ATOM     12  C   UNL     1      -1.406  12.257  22.805  0.00  0.00    +0.000 C 
ENDBRANCH  10  12
ENDBRANCH   7  10
ENDBRANCH   1   7
BRANCH   4  13
ATOM     13  C   UNL     1       2.733   6.679  18.742  0.00  0.00    +0.000 C 
ATOM     14  C   UNL     1       2.393   5.547  18.026  0.00  0.00    +0.000 C 
BRANCH  14  15
ATOM     15  C   UNL     1       3.362   4.370  17.461  0.00  0.00    +0.000 A 
ATOM     16  C   UNL     1       3.402   3.426  18.480  0.00  0.00    +0.000 A 
ATOM     17  C   UNL     1       4.502   3.482  19.322  0.00  0.00    +0.000 A 
ATOM     18  N   UNL     1       5.626   4.200  19.061  0.00  0.00    +0.000 NA
ATOM     19  C   UNL     1       5.819   4.554  17.787  0.00  0.00    +0.000 A 
ATOM     20  C   UNL     1       7.139   4.660  17.377  0.00  0.00    +0.000 A 
ATOM     21  C   UNL     1       7.485   4.454  16.057  0.00  0.00    +0.000 A 
ATOM     22  C   UNL     1       6.471   4.207  15.130  0.00  0.00    +0.000 A 
ATOM     23  C   UNL     1       5.092   4.282  15.558  0.00  0.00    +0.000 A 
ATOM     24  C   UNL     1       4.704   4.575  16.890  0.00  0.00    +0.000 A 
ENDBRANCH  14  15
ENDBRANCH   4  13
TORSDOF 5
ENDMDL
MODEL 8
REMARK VINA RESULT:      -7.8      0.698      1.194
REMARK  Name = 
REMARK  8 active torsions:
REMARK  status: ('A' for Active; 'I' for Inactive)
REMARK    1  A    between atoms: C_1  and  C_2
REMARK    2  A    between atoms: C_2  and  C_3
REMARK    3  A    between atoms: C_3  and  N_4
REMARK    4  A    between atoms: N_4  and  C_5
REMARK    5  A    between atoms: N_4  and  C_6
REMARK    6  A    between atoms: N_4  and  C_7
REMARK    7  A    between atoms: C_10  and  C_11
REMARK    8  A    between atoms: C_12  and  C_13
REMARK                            x       y       z     vdW  Elec       q    Type
REMARK                         _______ _______ _______ _____ _____    ______ ____
ROOT
ATOM      1  C   UNL     1       5.245   5.346  17.892  0.00  0.00    +0.000 A 
ATOM      2  C   UNL     1       6.438   5.134  18.606  0.00  0.00    +0.000 A 
ATOM      3  C   UNL     1       7.500   6.127  18.727  0.00  0.00    +0.000 A 
ATOM      4  C   UNL     1       7.465   7.390  18.113  0.00  0.00    +0.000 A 
ATOM      5  C   UNL     1       6.300   7.548  17.305  0.00  0.00    +0.000 A 
ATOM      6  C   UNL     1       5.221   6.568  17.198  0.00  0.00    +0.000 A 
ENDROOT
BRANCH   1   7
ATOM      7  N   UNL     1       4.056   4.293  17.874  0.00  0.00    +0.000 NA
ATOM      8  C   UNL     1       2.669   4.957  17.814  0.00  0.00    +0.000 C 
ATOM      9  C   UNL     1       4.167   3.410  16.620  0.00  0.00    +0.000 C 
BRANCH   7  10
ATOM     10  C   UNL     1       4.056   3.328  19.103  0.00  0.00    +0.000 C 
BRANCH  10  12
ATOM     11  C   UNL     1       1.964   1.941  19.374  0.00  0.00    +0.000 C 
ATOM     12  C   UNL     1       3.396   1.977  18.849  0.00  0.00    +0.000 C 
ENDBRANCH  10  12
ENDBRANCH   7  10
ENDBRANCH   1   7
BRANCH   4  13
ATOM     13  C   UNL     1       8.589   8.487  18.194  0.00  0.00    +0.000 C 
ATOM     14  C   UNL     1       8.606   9.869  18.208  0.00  0.00    +0.000 C 
BRANCH  14  15
ATOM     15  C   UNL     1       9.843  10.869  18.546  0.00  0.00    +0.000 A 
ATOM     16  C   UNL     1       9.913  10.889  19.933  0.00  0.00    +0.000 A 
ATOM     17  C   UNL     1       9.297  11.961  20.561  0.00  0.00    +0.000 A 
ATOM     18  N   UNL     1       8.880  13.084  19.919  0.00  0.00    +0.000 NA
ATOM     19  C   UNL     1       9.418  13.312  18.718  0.00  0.00    +0.000 A 
ATOM     20  C   UNL     1       9.561  14.643  18.357  0.00  0.00    +0.000 A 
ATOM     21  C   UNL     1      10.554  15.034  17.482  0.00  0.00    +0.000 A 
ATOM     22  C   UNL     1      11.368  14.053  16.913  0.00  0.00    +0.000 A 
ATOM     23  C   UNL     1      11.078  12.660  17.170  0.00  0.00    +0.000 A 
ATOM     24  C   UNL     1      10.012  12.227  17.998  0.00  0.00    +0.000 A 
ENDBRANCH  14  15
ENDBRANCH   4  13
TORSDOF 5
ENDMDL
MODEL 9
REMARK VINA RESULT:      -7.8      6.189      9.189
REMARK  Name = 
REMARK  8 active torsions:
REMARK  status: ('A' for Active; 'I' for Inactive)
REMARK    1  A    between atoms: C_1  and  C_2
REMARK    2  A    between atoms: C_2  and  C_3
REMARK    3  A    between atoms: C_3  and  N_4
REMARK    4  A    between atoms: N_4  and  C_5
REMARK    5  A    between atoms: N_4  and  C_6
REMARK    6  A    between atoms: N_4  and  C_7
REMARK    7  A    between atoms: C_10  and  C_11
REMARK    8  A    between atoms: C_12  and  C_13
REMARK                            x       y       z     vdW  Elec       q    Type
REMARK                         _______ _______ _______ _____ _____    ______ ____
ROOT
ATOM      1  C   UNL     1       0.450  10.606  19.676  0.00  0.00    +0.000 A 
ATOM      2  C   UNL     1       0.712   9.575  20.596  0.00  0.00    +0.000 A 
ATOM      3  C   UNL     1       1.464   8.368  20.271  0.00  0.00    +0.000 A 
ATOM      4  C   UNL     1       1.976   8.085  18.994  0.00  0.00    +0.000 A 
ATOM      5  C   UNL     1       1.609   9.087  18.048  0.00  0.00    +0.000 A 
ATOM      6  C   UNL     1       0.877  10.310  18.371  0.00  0.00    +0.000 A 
ENDROOT
BRANCH   1   7
ATOM      7  N   UNL     1      -0.270  11.962  20.087  0.00  0.00    +0.000 NA
ATOM      8  C   UNL     1       0.042  12.390  21.532  0.00  0.00    +0.000 C 
ATOM      9  C   UNL     1       0.222  13.102  19.181  0.00  0.00    +0.000 C 
BRANCH   7  10
ATOM     10  C   UNL     1      -1.825  11.913  19.943  0.00  0.00    +0.000 C 
BRANCH  10  12
ATOM     11  C   UNL     1      -4.050  12.963  20.514  0.00  0.00    +0.000 C 
ATOM     12  C   UNL     1      -2.544  13.179  20.396  0.00  0.00    +0.000 C 
ENDBRANCH  10  12
ENDBRANCH   7  10
ENDBRANCH   1   7
BRANCH   4  13
ATOM     13  C   UNL     1       2.775   6.793  18.586  0.00  0.00    +0.000 C 
ATOM     14  C   UNL     1       2.430   5.535  18.126  0.00  0.00    +0.000 C 
BRANCH  14  15
ATOM     15  C   UNL     1       3.391   4.377  17.510  0.00  0.00    +0.000 A 
ATOM     16  C   UNL     1       3.459   3.410  18.504  0.00  0.00    +0.000 A 
ATOM     17  C   UNL     1       4.579   3.451  19.322  0.00  0.00    +0.000 A 
ATOM     18  N   UNL     1       5.693   4.181  19.052  0.00  0.00    +0.000 NA
ATOM     19  C   UNL     1       5.854   4.567  17.783  0.00  0.00    +0.000 A 
ATOM     20  C   UNL     1       7.163   4.690  17.345  0.00  0.00    +0.000 A 
ATOM     21  C   UNL     1       7.480   4.518  16.013  0.00  0.00    +0.000 A 
ATOM     22  C   UNL     1       6.446   4.288  15.104  0.00  0.00    +0.000 A 
ATOM     23  C   UNL     1       5.076   4.345  15.565  0.00  0.00    +0.000 A 
ATOM     24  C   UNL     1       4.718   4.603  16.913  0.00  0.00    +0.000 A 
ENDBRANCH  14  15
ENDBRANCH   4  13
TORSDOF 5
ENDMDL
