MODEL 1
REMARK VINA RESULT:      -8.8      0.000      0.000
REMARK  Name = 
REMARK  9 active torsions:
REMARK  status: ('A' for Active; 'I' for Inactive)
REMARK    1  A    between atoms: C_1  and  N_2
REMARK    2  A    between atoms: C_4  and  C_5
REMARK    3  A    between atoms: C_12  and  C_13
REMARK    4  A    between atoms: N_15  and  CA_16
REMARK    5  A    between atoms: CA_16  and  C_17
REMARK    6  A    between atoms: CA_16  and  C_27
REMARK    7  A    between atoms: C_17  and  C_18
REMARK    8  A    between atoms: C_18  and  C_19
REMARK    9  A    between atoms: C_27  and  OXT_29
REMARK                            x       y       z     vdW  Elec       q    Type
REMARK                         _______ _______ _______ _____ _____    ______ ____
ROOT
ATOM      1  C   UNL     1       6.340   6.842  16.853  0.00  0.00    +0.000 C 
ATOM      2  O   UNL     1       5.133   7.070  16.870  0.00  0.00    +0.000 OA
ATOM      3  N   UNL     1       6.826   5.897  15.979  0.00  0.00    +0.000 N 
ATOM      4  H   UNL     1       7.837   5.828  15.862  0.00  0.00    +0.000 HD
ENDROOT
BRANCH   1  10
ATOM      5  C   UNL     1       8.018   5.807  19.289  0.00  0.00    +0.000 C 
ATOM      6  N   UNL     1       8.066   7.110  18.664  0.00  0.00    +0.000 N 
ATOM      7  N   UNL     1       8.890   8.021  19.214  0.00  0.00    +0.000 NA
ATOM      8  C   UNL     1       8.670   9.156  18.537  0.00  0.00    +0.000 A 
ATOM      9  C   UNL     1       7.737   8.911  17.491  0.00  0.00    +0.000 A 
ATOM     10  C   UNL     1       7.325   7.590  17.608  0.00  0.00    +0.000 A 
BRANCH   8  11
ATOM     11  C   UNL     1       9.293  10.425  18.945  0.00  0.00    +0.000 A 
ATOM     12  C   UNL     1       9.847  11.287  17.982  0.00  0.00    +0.000 A 
ATOM     13  C   UNL     1      10.559  12.430  18.359  0.00  0.00    +0.000 A 
ATOM     14  C   UNL     1      10.716  12.737  19.708  0.00  0.00    +0.000 A 
ATOM     15  C   UNL     1      10.136  11.920  20.675  0.00  0.00    +0.000 A 
ATOM     16  C   UNL     1       9.425  10.774  20.297  0.00  0.00    +0.000 A 
ENDBRANCH   8  11
ENDBRANCH   1  10
BRANCH   3  17
ATOM     17  CA  UNL     1       6.011   4.938  15.213  0.00  0.00    +0.000 C 
BRANCH  17  18
ATOM     18  C   UNL     1       6.597   4.495  13.853  0.00  0.00    +0.000 C 
ATOM     19  O   UNL     1       7.408   5.159  13.211  0.00  0.00    +0.000 OA
BRANCH  18  20
ATOM     20  OXT UNL     1       6.231   3.260  13.456  0.00  0.00    +0.000 OA
ATOM     21  HXT UNL     1       6.884   2.872  12.836  0.00  0.00    +0.000 HD
ENDBRANCH  18  20
ENDBRANCH  17  18
BRANCH  17  22
ATOM     22  C   UNL     1       5.616   3.705  16.067  0.00  0.00    +0.000 C 
BRANCH  22  23
ATOM     23  C   UNL     1       4.303   3.774  16.872  0.00  0.00    +0.000 C 
BRANCH  23  24
ATOM     24  C   UNL     1       4.451   3.512  18.361  0.00  0.00    +0.000 C 
ATOM     25  O   UNL     1       5.475   3.846  18.961  0.00  0.00    +0.000 OA
ATOM     26  N   UNL     1       3.395   2.900  19.008  0.00  0.00    +0.000 N 
ATOM     27  C   UNL     1       2.135   2.442  18.404  0.00  0.00    +0.000 C 
ATOM     28  C   UNL     1       0.930   2.965  19.201  0.00  0.00    +0.000 C 
ATOM     29  O   UNL     1       1.045   2.670  20.602  0.00  0.00    +0.000 OA
ATOM     30  C   UNL     1       2.251   3.231  21.148  0.00  0.00    +0.000 C 
ATOM     31  C   UNL     1       3.476   2.643  20.448  0.00  0.00    +0.000 C 
ENDBRANCH  23  24
ENDBRANCH  22  23
ENDBRANCH  17  22
ENDBRANCH   3  17
TORSDOF 8
ENDMDL
MODEL 2
REMARK VINA RESULT:      -8.7      0.307      1.072
REMARK  Name = 
REMARK  9 active torsions:
REMARK  status: ('A' for Active; 'I' for Inactive)
REMARK    1  A    between atoms: C_1  and  N_2
REMARK    2  A    between atoms: C_4  and  C_5
REMARK    3  A    between atoms: C_12  and  C_13
REMARK    4  A    between atoms: N_15  and  CA_16
REMARK    5  A    between atoms: CA_16  and  C_17
REMARK    6  A    between atoms: CA_16  and  C_27
REMARK    7  A    between atoms: C_17  and  C_18
REMARK    8  A    between atoms: C_18  and  C_19
REMARK    9  A    between atoms: C_27  and  OXT_29
REMARK                            x       y       z     vdW  Elec       q    Type
REMARK                         _______ _______ _______ _____ _____    ______ ____
ROOT
ATOM      1  C   UNL     1       6.257   6.840  16.901  0.00  0.00    +0.000 C 
ATOM      2  O   UNL     1       5.046   7.033  16.977  0.00  0.00    +0.000 OA
ATOM      3  N   UNL     1       6.727   5.909  16.003  0.00  0.00    +0.000 N 
ATOM      4  H   UNL     1       7.733   5.869  15.838  0.00  0.00    +0.000 HD
ENDROOT
BRANCH   1  10
ATOM      5  C   UNL     1       8.079   5.854  19.253  0.00  0.00    +0.000 C 
ATOM      6  N   UNL     1       8.060   7.157  18.627  0.00  0.00    +0.000 N 
ATOM      7  N   UNL     1       8.883   8.092  19.137  0.00  0.00    +0.000 NA
ATOM      8  C   UNL     1       8.599   9.219  18.473  0.00  0.00    +0.000 A 
ATOM      9  C   UNL     1       7.624   8.947  17.472  0.00  0.00    +0.000 A 
ATOM     10  C   UNL     1       7.255   7.615  17.608  0.00  0.00    +0.000 A 
BRANCH   8  11
ATOM     11  C   UNL     1       9.205  10.506  18.851  0.00  0.00    +0.000 A 
ATOM     12  C   UNL     1       9.741  10.689  20.138  0.00  0.00    +0.000 A 
ATOM     13  C   UNL     1      10.199  11.941  20.559  0.00  0.00    +0.000 A 
ATOM     14  C   UNL     1      10.143  13.029  19.691  0.00  0.00    +0.000 A 
ATOM     15  C   UNL     1       9.658  12.857  18.397  0.00  0.00    +0.000 A 
ATOM     16  C   UNL     1       9.196  11.603  17.977  0.00  0.00    +0.000 A 
ENDBRANCH   8  11
ENDBRANCH   1  10
BRANCH   3  17
ATOM     17  CA  UNL     1       5.903   4.927  15.277  0.00  0.00    +0.000 C 
BRANCH  17  18
ATOM     18  C   UNL     1       6.447   4.483  13.899  0.00  0.00    +0.000 C 
ATOM     19  O   UNL     1       5.926   3.609  13.210  0.00  0.00    +0.000 OA
BRANCH  18  20
ATOM     20  OXT UNL     1       7.493   5.202  13.447  0.00  0.00    +0.000 OA
ATOM     21  HXT UNL     1       7.313   5.586  12.563  0.00  0.00    +0.000 HD
ENDBRANCH  18  20
ENDBRANCH  17  18
BRANCH  17  22
ATOM     22  C   UNL     1       5.566   3.694  16.155  0.00  0.00    +0.000 C 
BRANCH  22  23
ATOM     23  C   UNL     1       4.252   3.718  16.960  0.00  0.00    +0.000 C 
BRANCH  23  24
ATOM     24  C   UNL     1       4.410   3.480  18.451  0.00  0.00    +0.000 C 
ATOM     25  O   UNL     1       5.445   3.808  19.035  0.00  0.00    +0.000 OA
ATOM     26  N   UNL     1       3.351   2.898  19.120  0.00  0.00    +0.000 N 
ATOM     27  C   UNL     1       2.078   2.450  18.538  0.00  0.00    +0.000 C 
ATOM     28  C   UNL     1       0.889   3.007  19.337  0.00  0.00    +0.000 C 
ATOM     29  O   UNL     1       1.014   2.736  20.742  0.00  0.00    +0.000 OA
ATOM     30  C   UNL     1       2.234   3.288  21.265  0.00  0.00    +0.000 C 
ATOM     31  C   UNL     1       3.443   2.666  20.564  0.00  0.00    +0.000 C 
ENDBRANCH  23  24
ENDBRANCH  22  23
ENDBRANCH  17  22
ENDBRANCH   3  17
TORSDOF 8
ENDMDL
MODEL 3
REMARK VINA RESULT:      -8.3      0.967      1.058
REMARK  Name = 
REMARK  9 active torsions:
REMARK  status: ('A' for Active; 'I' for Inactive)
REMARK    1  A    between atoms: C_1  and  N_2
REMARK    2  A    between atoms: C_4  and  C_5
REMARK    3  A    between atoms: C_12  and  C_13
REMARK    4  A    between atoms: N_15  and  CA_16
REMARK    5  A    between atoms: CA_16  and  C_17
REMARK    6  A    between atoms: CA_16  and  C_27
REMARK    7  A    between atoms: C_17  and  C_18
REMARK    8  A    between atoms: C_18  and  C_19
REMARK    9  A    between atoms: C_27  and  OXT_29
REMARK                            x       y       z     vdW  Elec       q    Type
REMARK                         _______ _______ _______ _____ _____    ______ ____
ROOT
ATOM      1  C   UNL     1       6.215   6.815  16.883  0.00  0.00    +0.000 C 
ATOM      2  O   UNL     1       5.016   7.088  16.903  0.00  0.00    +0.000 OA
ATOM      3  N   UNL     1       6.660   5.837  16.023  0.00  0.00    +0.000 N 
ATOM      4  H   UNL     1       7.667   5.729  15.903  0.00  0.00    +0.000 HD
ENDROOT
BRANCH   1  10
ATOM      5  C   UNL     1       7.893   5.749  19.306  0.00  0.00    +0.000 C 
ATOM      6  N   UNL     1       7.972   7.045  18.669  0.00  0.00    +0.000 N 
ATOM      7  N   UNL     1       8.829   7.936  19.201  0.00  0.00    +0.000 NA
ATOM      8  C   UNL     1       8.634   9.071  18.518  0.00  0.00    +0.000 A 
ATOM      9  C   UNL     1       7.680   8.846  17.486  0.00  0.00    +0.000 A 
ATOM     10  C   UNL     1       7.231   7.539  17.619  0.00  0.00    +0.000 A 
BRANCH   8  11
ATOM     11  C   UNL     1       9.300  10.324  18.907  0.00  0.00    +0.000 A 
ATOM     12  C   UNL     1       9.860  11.166  17.930  0.00  0.00    +0.000 A 
ATOM     13  C   UNL     1      10.611  12.290  18.288  0.00  0.00    +0.000 A 
ATOM     14  C   UNL     1      10.800  12.600  19.632  0.00  0.00    +0.000 A 
ATOM     15  C   UNL     1      10.214  11.805  20.614  0.00  0.00    +0.000 A 
ATOM     16  C   UNL     1       9.465  10.677  20.255  0.00  0.00    +0.000 A 
ENDBRANCH   8  11
ENDBRANCH   1  10
BRANCH   3  17
ATOM     17  CA  UNL     1       5.805   4.896  15.280  0.00  0.00    +0.000 C 
BRANCH  17  18
ATOM     18  C   UNL     1       6.425   4.297  13.995  0.00  0.00    +0.000 C 
ATOM     19  O   UNL     1       7.211   4.904  13.272  0.00  0.00    +0.000 OA
BRANCH  18  20
ATOM     20  OXT UNL     1       6.120   3.004  13.771  0.00  0.00    +0.000 OA
ATOM     21  HXT UNL     1       6.201   2.467  14.587  0.00  0.00    +0.000 HD
ENDBRANCH  18  20
ENDBRANCH  17  18
BRANCH  17  22
ATOM     22  C   UNL     1       5.251   3.773  16.195  0.00  0.00    +0.000 C 
BRANCH  22  23
ATOM     23  C   UNL     1       3.815   3.923  16.734  0.00  0.00    +0.000 C 
BRANCH  23  24
ATOM     24  C   UNL     1       3.406   2.883  17.763  0.00  0.00    +0.000 C 
ATOM     25  O   UNL     1       3.788   1.715  17.665  0.00  0.00    +0.000 OA
ATOM     26  N   UNL     1       2.605   3.302  18.808  0.00  0.00    +0.000 N 
ATOM     27  C   UNL     1       2.073   4.655  19.026  0.00  0.00    +0.000 C 
ATOM     28  C   UNL     1       2.357   5.126  20.461  0.00  0.00    +0.000 C 
ATOM     29  O   UNL     1       1.922   4.165  21.436  0.00  0.00    +0.000 OA
ATOM     30  C   UNL     1       2.556   2.893  21.222  0.00  0.00    +0.000 C 
ATOM     31  C   UNL     1       2.199   2.345  19.840  0.00  0.00    +0.000 C 
ENDBRANCH  23  24
ENDBRANCH  22  23
ENDBRANCH  17  22
ENDBRANCH   3  17
TORSDOF 8
ENDMDL
MODEL 4
REMARK VINA RESULT:      -8.2      1.002      1.462
REMARK  Name = 
REMARK  9 active torsions:
REMARK  status: ('A' for Active; 'I' for Inactive)
REMARK    1  A    between atoms: C_1  and  N_2
REMARK    2  A    between atoms: C_4  and  C_5
REMARK    3  A    between atoms: C_12  and  C_13
REMARK    4  A    between atoms: N_15  and  CA_16
REMARK    5  A    between atoms: CA_16  and  C_17
REMARK    6  A    between atoms: CA_16  and  C_27
REMARK    7  A    between atoms: C_17  and  C_18
REMARK    8  A    between atoms: C_18  and  C_19
REMARK    9  A    between atoms: C_27  and  OXT_29
REMARK                            x       y       z     vdW  Elec       q    Type
REMARK                         _______ _______ _______ _____ _____    ______ ____
ROOT
ATOM      1  C   UNL     1       6.304   6.874  16.764  0.00  0.00    +0.000 C 
ATOM      2  O   UNL     1       5.119   7.188  16.670  0.00  0.00    +0.000 OA
ATOM      3  N   UNL     1       6.780   5.838  15.993  0.00  0.00    +0.000 N 
ATOM      4  H   UNL     1       7.789   5.690  15.963  0.00  0.00    +0.000 HD
ENDROOT
BRANCH   1  10
ATOM      5  C   UNL     1       7.918   5.792  19.223  0.00  0.00    +0.000 C 
ATOM      6  N   UNL     1       7.997   7.100  18.611  0.00  0.00    +0.000 N 
ATOM      7  N   UNL     1       8.821   7.994  19.187  0.00  0.00    +0.000 NA
ATOM      8  C   UNL     1       8.631   9.138  18.517  0.00  0.00    +0.000 A 
ATOM      9  C   UNL     1       7.716   8.916  17.450  0.00  0.00    +0.000 A 
ATOM     10  C   UNL     1       7.283   7.600  17.546  0.00  0.00    +0.000 A 
BRANCH   8  11
ATOM     11  C   UNL     1       9.263  10.394  18.950  0.00  0.00    +0.000 A 
ATOM     12  C   UNL     1       9.446  10.666  20.318  0.00  0.00    +0.000 A 
ATOM     13  C   UNL     1       9.921  11.907  20.751  0.00  0.00    +0.000 A 
ATOM     14  C   UNL     1      10.238  12.893  19.821  0.00  0.00    +0.000 A 
ATOM     15  C   UNL     1      10.109  12.627  18.460  0.00  0.00    +0.000 A 
ATOM     16  C   UNL     1       9.629  11.385  18.026  0.00  0.00    +0.000 A 
ENDBRANCH   8  11
ENDBRANCH   1  10
BRANCH   3  17
ATOM     17  CA  UNL     1       5.954   4.889  15.228  0.00  0.00    +0.000 C 
BRANCH  17  18
ATOM     18  C   UNL     1       6.540   4.430  13.872  0.00  0.00    +0.000 C 
ATOM     19  O   UNL     1       7.353   5.086  13.225  0.00  0.00    +0.000 OA
BRANCH  18  20
ATOM     20  OXT UNL     1       6.171   3.192  13.488  0.00  0.00    +0.000 OA
ATOM     21  HXT UNL     1       6.536   2.505  14.084  0.00  0.00    +0.000 HD
ENDBRANCH  18  20
ENDBRANCH  17  18
BRANCH  17  22
ATOM     22  C   UNL     1       5.536   3.666  16.085  0.00  0.00    +0.000 C 
BRANCH  22  23
ATOM     23  C   UNL     1       4.894   3.933  17.460  0.00  0.00    +0.000 C 
BRANCH  23  24
ATOM     24  C   UNL     1       3.726   3.027  17.809  0.00  0.00    +0.000 C 
ATOM     25  O   UNL     1       3.776   1.817  17.577  0.00  0.00    +0.000 OA
ATOM     26  N   UNL     1       2.621   3.609  18.399  0.00  0.00    +0.000 N 
ATOM     27  C   UNL     1       2.434   5.033  18.710  0.00  0.00    +0.000 C 
ATOM     28  C   UNL     1       1.980   5.216  20.167  0.00  0.00    +0.000 C 
ATOM     29  O   UNL     1       0.842   4.398  20.480  0.00  0.00    +0.000 OA
ATOM     30  C   UNL     1       1.129   3.008  20.246  0.00  0.00    +0.000 C 
ATOM     31  C   UNL     1       1.475   2.777  18.775  0.00  0.00    +0.000 C 
ENDBRANCH  23  24
ENDBRANCH  22  23
ENDBRANCH  17  22
ENDBRANCH   3  17
TORSDOF 8
ENDMDL
MODEL 5
REMARK VINA RESULT:      -8.2      5.328      7.705
REMARK  Name = 
REMARK  9 active torsions:
REMARK  status: ('A' for Active; 'I' for Inactive)
REMARK    1  A    between atoms: C_1  and  N_2
REMARK    2  A    between atoms: C_4  and  C_5
REMARK    3  A    between atoms: C_12  and  C_13
REMARK    4  A    between atoms: N_15  and  CA_16
REMARK    5  A    between atoms: CA_16  and  C_17
REMARK    6  A    between atoms: CA_16  and  C_27
REMARK    7  A    between atoms: C_17  and  C_18
REMARK    8  A    between atoms: C_18  and  C_19
REMARK    9  A    between atoms: C_27  and  OXT_29
REMARK                            x       y       z     vdW  Elec       q    Type
REMARK                         _______ _______ _______ _____ _____    ______ ____
ROOT
ATOM      1  C   UNL     1       2.366   6.796  19.874  0.00  0.00    +0.000 C 
ATOM      2  O   UNL     1       3.495   6.675  19.402  0.00  0.00    +0.000 OA
ATOM      3  N   UNL     1       1.747   5.691  20.410  0.00  0.00    +0.000 N 
ATOM      4  H   UNL     1       0.884   5.834  20.936  0.00  0.00    +0.000 HD
ENDROOT
BRANCH   1  10
ATOM      5  C   UNL     1       2.015   9.012  17.686  0.00  0.00    +0.000 C 
ATOM      6  N   UNL     1       1.513   9.012  19.043  0.00  0.00    +0.000 N 
ATOM      7  N   UNL     1       0.857  10.114  19.451  0.00  0.00    +0.000 NA
ATOM      8  C   UNL     1       0.602   9.916  20.751  0.00  0.00    +0.000 A 
ATOM      9  C   UNL     1       1.051   8.620  21.131  0.00  0.00    +0.000 A 
ATOM     10  C   UNL     1       1.674   8.060  20.023  0.00  0.00    +0.000 A 
BRANCH   8  11
ATOM     11  C   UNL     1       0.012  10.974  21.586  0.00  0.00    +0.000 A 
ATOM     12  C   UNL     1      -0.892  10.649  22.613  0.00  0.00    +0.000 A 
ATOM     13  C   UNL     1      -1.563  11.646  23.327  0.00  0.00    +0.000 A 
ATOM     14  C   UNL     1      -1.329  12.987  23.036  0.00  0.00    +0.000 A 
ATOM     15  C   UNL     1      -0.403  13.330  22.054  0.00  0.00    +0.000 A 
ATOM     16  C   UNL     1       0.267  12.331  21.336  0.00  0.00    +0.000 A 
ENDBRANCH   8  11
ENDBRANCH   1  10
BRANCH   3  17
ATOM     17  CA  UNL     1       2.201   4.297  20.261  0.00  0.00    +0.000 C 
BRANCH  17  18
ATOM     18  C   UNL     1       1.553   3.274  21.223  0.00  0.00    +0.000 C 
ATOM     19  O   UNL     1       1.977   3.036  22.351  0.00  0.00    +0.000 OA
BRANCH  18  20
ATOM     20  OXT UNL     1       0.409   2.722  20.772  0.00  0.00    +0.000 OA
ATOM     21  HXT UNL     1       0.395   2.670  19.793  0.00  0.00    +0.000 HD
ENDBRANCH  18  20
ENDBRANCH  17  18
BRANCH  17  22
ATOM     22  C   UNL     1       2.098   3.810  18.793  0.00  0.00    +0.000 C 
BRANCH  22  23
ATOM     23  C   UNL     1       3.263   2.976  18.225  0.00  0.00    +0.000 C 
BRANCH  23  24
ATOM     24  C   UNL     1       4.646   3.420  18.671  0.00  0.00    +0.000 C 
ATOM     25  O   UNL     1       5.145   2.978  19.708  0.00  0.00    +0.000 OA
ATOM     26  N   UNL     1       5.315   4.323  17.868  0.00  0.00    +0.000 N 
ATOM     27  C   UNL     1       4.823   4.932  16.624  0.00  0.00    +0.000 C 
ATOM     28  C   UNL     1       5.863   4.789  15.501  0.00  0.00    +0.000 C 
ATOM     29  O   UNL     1       7.158   5.258  15.907  0.00  0.00    +0.000 OA
ATOM     30  C   UNL     1       7.620   4.551  17.070  0.00  0.00    +0.000 C 
ATOM     31  C   UNL     1       6.660   4.768  18.241  0.00  0.00    +0.000 C 
ENDBRANCH  23  24
ENDBRANCH  22  23
ENDBRANCH  17  22
ENDBRANCH   3  17
TORSDOF 8
ENDMDL
MODEL 6
REMARK VINA RESULT:      -7.9      4.590      7.439
REMARK  Name = 
REMARK  9 active torsions:
REMARK  status: ('A' for Active; 'I' for Inactive)
REMARK    1  A    between atoms: C_1  and  N_2
REMARK    2  A    between atoms: C_4  and  C_5
REMARK    3  A    between atoms: C_12  and  C_13
REMARK    4  A    between atoms: N_15  and  CA_16
REMARK    5  A    between atoms: CA_16  and  C_17
REMARK    6  A    between atoms: CA_16  and  C_27
REMARK    7  A    between atoms: C_17  and  C_18
REMARK    8  A    between atoms: C_18  and  C_19
REMARK    9  A    between atoms: C_27  and  OXT_29
REMARK                            x       y       z     vdW  Elec       q    Type
REMARK                         _______ _______ _______ _____ _____    ______ ____
ROOT
ATOM      1  C   UNL     1       3.551   3.014  18.423  0.00  0.00    +0.000 C 
ATOM      2  O   UNL     1       3.247   1.831  18.562  0.00  0.00    +0.000 OA
ATOM      3  N   UNL     1       2.991   3.947  19.265  0.00  0.00    +0.000 N 
ATOM      4  H   UNL     1       3.365   4.896  19.244  0.00  0.00    +0.000 HD
ENDROOT
BRANCH   1  10
ATOM      5  C   UNL     1       5.922   4.949  19.099  0.00  0.00    +0.000 C 
ATOM      6  N   UNL     1       5.610   4.331  17.829  0.00  0.00    +0.000 N 
ATOM      7  N   UNL     1       6.393   4.656  16.784  0.00  0.00    +0.000 NA
ATOM      8  C   UNL     1       5.839   4.056  15.723  0.00  0.00    +0.000 A 
ATOM      9  C   UNL     1       4.724   3.279  16.145  0.00  0.00    +0.000 A 
ATOM     10  C   UNL     1       4.564   3.496  17.508  0.00  0.00    +0.000 A 
BRANCH   8  11
ATOM     11  C   UNL     1       6.339   4.293  14.359  0.00  0.00    +0.000 A 
ATOM     12  C   UNL     1       5.840   3.546  13.277  0.00  0.00    +0.000 A 
ATOM     13  C   UNL     1       6.397   3.663  12.000  0.00  0.00    +0.000 A 
ATOM     14  C   UNL     1       7.453   4.543  11.780  0.00  0.00    +0.000 A 
ATOM     15  C   UNL     1       7.931   5.326  12.829  0.00  0.00    +0.000 A 
ATOM     16  C   UNL     1       7.375   5.206  14.109  0.00  0.00    +0.000 A 
ENDBRANCH   8  11
ENDBRANCH   1  10
BRANCH   3  17
ATOM     17  CA  UNL     1       1.859   3.709  20.177  0.00  0.00    +0.000 C 
BRANCH  17  18
ATOM     18  C   UNL     1       2.180   2.878  21.442  0.00  0.00    +0.000 C 
ATOM     19  O   UNL     1       1.337   2.547  22.272  0.00  0.00    +0.000 OA
BRANCH  18  20
ATOM     20  OXT UNL     1       3.454   2.445  21.524  0.00  0.00    +0.000 OA
ATOM     21  HXT UNL     1       4.089   3.137  21.246  0.00  0.00    +0.000 HD
ENDBRANCH  18  20
ENDBRANCH  17  18
BRANCH  17  22
ATOM     22  C   UNL     1       1.136   5.027  20.558  0.00  0.00    +0.000 C 
BRANCH  22  23
ATOM     23  C   UNL     1       1.995   6.291  20.758  0.00  0.00    +0.000 C 
BRANCH  23  24
ATOM     24  C   UNL     1       2.104   7.190  19.539  0.00  0.00    +0.000 C 
ATOM     25  O   UNL     1       2.606   6.774  18.492  0.00  0.00    +0.000 OA
ATOM     26  N   UNL     1       1.614   8.476  19.649  0.00  0.00    +0.000 N 
ATOM     27  C   UNL     1       1.012   9.092  20.841  0.00  0.00    +0.000 C 
ATOM     28  C   UNL     1      -0.332   9.751  20.492  0.00  0.00    +0.000 C 
ATOM     29  O   UNL     1      -0.216  10.642  19.371  0.00  0.00    +0.000 OA
ATOM     30  C   UNL     1       0.285   9.950  18.214  0.00  0.00    +0.000 C 
ATOM     31  C   UNL     1       1.675   9.379  18.497  0.00  0.00    +0.000 C 
ENDBRANCH  23  24
ENDBRANCH  22  23
ENDBRANCH  17  22
ENDBRANCH   3  17
TORSDOF 8
ENDMDL
MODEL 7
REMARK VINA RESULT:      -7.8      3.615      4.424
REMARK  Name = 
REMARK  9 active torsions:
REMARK  status: ('A' for Active; 'I' for Inactive)
REMARK    1  A    between atoms: C_1  and  N_2
REMARK    2  A    between atoms: C_4  and  C_5
REMARK    3  A    between atoms: C_12  and  C_13
REMARK    4  A    between atoms: N_15  and  CA_16
REMARK    5  A    between atoms: CA_16  and  C_17
REMARK    6  A    between atoms: CA_16  and  C_27
REMARK    7  A    between atoms: C_17  and  C_18
REMARK    8  A    between atoms: C_18  and  C_19
REMARK    9  A    between atoms: C_27  and  OXT_29
REMARK                            x       y       z     vdW  Elec       q    Type
REMARK                         _______ _______ _______ _____ _____    ______ ____
ROOT
ATOM      1  C   UNL     1       5.727   6.611  16.897  0.00  0.00    +0.000 C 
ATOM      2  O   UNL     1       5.588   6.440  15.687  0.00  0.00    +0.000 OA
ATOM      3  N   UNL     1       4.875   5.963  17.762  0.00  0.00    +0.000 N 
ATOM      4  H   UNL     1       5.095   5.987  18.757  0.00  0.00    +0.000 HD
ENDROOT
BRANCH   1  10
ATOM      5  C   UNL     1       7.856   5.520  18.920  0.00  0.00    +0.000 C 
ATOM      6  N   UNL     1       7.751   6.853  18.371  0.00  0.00    +0.000 N 
ATOM      7  N   UNL     1       8.636   7.766  18.810  0.00  0.00    +0.000 NA
ATOM      8  C   UNL     1       8.263   8.924  18.250  0.00  0.00    +0.000 A 
ATOM      9  C   UNL     1       7.159   8.696  17.381  0.00  0.00    +0.000 A 
ATOM     10  C   UNL     1       6.813   7.356  17.498  0.00  0.00    +0.000 A 
BRANCH   8  11
ATOM     11  C   UNL     1       8.916  10.194  18.606  0.00  0.00    +0.000 A 
ATOM     12  C   UNL     1       9.624  10.316  19.815  0.00  0.00    +0.000 A 
ATOM     13  C   UNL     1      10.136  11.548  20.232  0.00  0.00    +0.000 A 
ATOM     14  C   UNL     1       9.961  12.678  19.437  0.00  0.00    +0.000 A 
ATOM     15  C   UNL     1       9.304  12.568  18.214  0.00  0.00    +0.000 A 
ATOM     16  C   UNL     1       8.788  11.333  17.798  0.00  0.00    +0.000 A 
ENDBRANCH   8  11
ENDBRANCH   1  10
BRANCH   3  17
ATOM     17  CA  UNL     1       3.637   5.261  17.381  0.00  0.00    +0.000 C 
BRANCH  17  18
ATOM     18  C   UNL     1       3.690   3.718  17.455  0.00  0.00    +0.000 C 
ATOM     19  O   UNL     1       2.787   2.985  17.059  0.00  0.00    +0.000 OA
BRANCH  18  20
ATOM     20  OXT UNL     1       4.860   3.214  17.896  0.00  0.00    +0.000 OA
ATOM     21  HXT UNL     1       4.734   2.354  18.349  0.00  0.00    +0.000 HD
ENDBRANCH  18  20
ENDBRANCH  17  18
BRANCH  17  22
ATOM     22  C   UNL     1       2.405   5.804  18.151  0.00  0.00    +0.000 C 
BRANCH  22  23
ATOM     23  C   UNL     1       2.611   7.012  19.085  0.00  0.00    +0.000 C 
BRANCH  23  24
ATOM     24  C   UNL     1       2.109   8.337  18.538  0.00  0.00    +0.000 C 
ATOM     25  O   UNL     1       2.279   8.635  17.354  0.00  0.00    +0.000 OA
ATOM     26  N   UNL     1       1.451   9.180  19.413  0.00  0.00    +0.000 N 
ATOM     27  C   UNL     1       1.201   8.947  20.843  0.00  0.00    +0.000 C 
ATOM     28  C   UNL     1      -0.280   9.183  21.181  0.00  0.00    +0.000 C 
ATOM     29  O   UNL     1      -0.740  10.459  20.709  0.00  0.00    +0.000 OA
ATOM     30  C   UNL     1      -0.556  10.579  19.288  0.00  0.00    +0.000 C 
ATOM     31  C   UNL     1       0.927  10.460  18.933  0.00  0.00    +0.000 C 
ENDBRANCH  23  24
ENDBRANCH  22  23
ENDBRANCH  17  22
ENDBRANCH   3  17
TORSDOF 8
ENDMDL
MODEL 8
REMARK VINA RESULT:      -7.8      4.650      7.434
REMARK  Name = 
REMARK  9 active torsions:
REMARK  status: ('A' for Active; 'I' for Inactive)
REMARK    1  A    between atoms: C_1  and  N_2
REMARK    2  A    between atoms: C_4  and  C_5
REMARK    3  A    between atoms: C_12  and  C_13
REMARK    4  A    between atoms: N_15  and  CA_16
REMARK    5  A    between atoms: CA_16  and  C_17
REMARK    6  A    between atoms: CA_16  and  C_27
REMARK    7  A    between atoms: C_17  and  C_18
REMARK    8  A    between atoms: C_18  and  C_19
REMARK    9  A    between atoms: C_27  and  OXT_29
REMARK                            x       y       z     vdW  Elec       q    Type
REMARK                         _______ _______ _______ _____ _____    ______ ____
ROOT
ATOM      1  C   UNL     1       3.031   6.005  19.533  0.00  0.00    +0.000 C 
ATOM      2  O   UNL     1       4.128   5.824  20.058  0.00  0.00    +0.000 OA
ATOM      3  N   UNL     1       2.443   4.968  18.847  0.00  0.00    +0.000 N 
ATOM      4  H   UNL     1       1.473   5.078  18.553  0.00  0.00    +0.000 HD
ENDROOT
BRANCH   1  10
ATOM      5  C   UNL     1       2.796   8.370  17.491  0.00  0.00    +0.000 C 
ATOM      6  N   UNL     1       2.134   8.227  18.768  0.00  0.00    +0.000 N 
ATOM      7  N   UNL     1       1.357   9.250  19.171  0.00  0.00    +0.000 NA
ATOM      8  C   UNL     1       0.960   8.930  20.409  0.00  0.00    +0.000 A 
ATOM      9  C   UNL     1       1.448   7.637  20.745  0.00  0.00    +0.000 A 
ATOM     10  C   UNL     1       2.240   7.208  19.687  0.00  0.00    +0.000 A 
BRANCH   8  11
ATOM     11  C   UNL     1       0.199   9.878  21.239  0.00  0.00    +0.000 A 
ATOM     12  C   UNL     1      -0.043   9.601  22.596  0.00  0.00    +0.000 A 
ATOM     13  C   UNL     1      -0.874  10.421  23.364  0.00  0.00    +0.000 A 
ATOM     14  C   UNL     1      -1.465  11.544  22.791  0.00  0.00    +0.000 A 
ATOM     15  C   UNL     1      -1.200  11.861  21.461  0.00  0.00    +0.000 A 
ATOM     16  C   UNL     1      -0.370  11.037  20.690  0.00  0.00    +0.000 A 
ENDBRANCH   8  11
ENDBRANCH   1  10
BRANCH   3  17
ATOM     17  CA  UNL     1       3.107   3.711  18.461  0.00  0.00    +0.000 C 
BRANCH  17  18
ATOM     18  C   UNL     1       2.326   2.414  18.778  0.00  0.00    +0.000 C 
ATOM     19  O   UNL     1       1.736   2.216  19.837  0.00  0.00    +0.000 OA
BRANCH  18  20
ATOM     20  OXT UNL     1       2.247   1.539  17.757  0.00  0.00    +0.000 OA
ATOM     21  HXT UNL     1       2.798   0.745  17.918  0.00  0.00    +0.000 HD
ENDBRANCH  18  20
ENDBRANCH  17  18
BRANCH  17  22
ATOM     22  C   UNL     1       3.559   3.728  16.977  0.00  0.00    +0.000 C 
BRANCH  22  23
ATOM     23  C   UNL     1       5.071   3.695  16.682  0.00  0.00    +0.000 C 
BRANCH  23  24
ATOM     24  C   UNL     1       5.664   5.019  16.230  0.00  0.00    +0.000 C 
ATOM     25  O   UNL     1       5.160   5.649  15.298  0.00  0.00    +0.000 OA
ATOM     26  N   UNL     1       6.773   5.486  16.909  0.00  0.00    +0.000 N 
ATOM     27  C   UNL     1       7.472   4.823  18.020  0.00  0.00    +0.000 C 
ATOM     28  C   UNL     1       7.668   5.795  19.194  0.00  0.00    +0.000 C 
ATOM     29  O   UNL     1       8.278   7.026  18.774  0.00  0.00    +0.000 OA
ATOM     30  C   UNL     1       7.490   7.668  17.757  0.00  0.00    +0.000 C 
ATOM     31  C   UNL     1       7.371   6.767  16.528  0.00  0.00    +0.000 C 
ENDBRANCH  23  24
ENDBRANCH  22  23
ENDBRANCH  17  22
ENDBRANCH   3  17
TORSDOF 8
ENDMDL
MODEL 9
REMARK VINA RESULT:      -7.8      4.610      7.391
REMARK  Name = 
REMARK  9 active torsions:
REMARK  status: ('A' for Active; 'I' for Inactive)
REMARK    1  A    between atoms: C_1  and  N_2
REMARK    2  A    between atoms: C_4  and  C_5
REMARK    3  A    between atoms: C_12  and  C_13
REMARK    4  A    between atoms: N_15  and  CA_16
REMARK    5  A    between atoms: CA_16  and  C_17
REMARK    6  A    between atoms: CA_16  and  C_27
REMARK    7  A    between atoms: C_17  and  C_18
REMARK    8  A    between atoms: C_18  and  C_19
REMARK    9  A    between atoms: C_27  and  OXT_29
REMARK                            x       y       z     vdW  Elec       q    Type
REMARK                         _______ _______ _______ _____ _____    ______ ____
ROOT
ATOM      1  C   UNL     1       3.534   2.903  18.307  0.00  0.00    +0.000 C 
ATOM      2  O   UNL     1       3.136   1.740  18.303  0.00  0.00    +0.000 OA
ATOM      3  N   UNL     1       3.056   3.766  19.267  0.00  0.00    +0.000 N 
ATOM      4  H   UNL     1       3.507   4.677  19.358  0.00  0.00    +0.000 HD
ENDROOT
BRANCH   1  10
ATOM      5  C   UNL     1       5.734   5.003  19.061  0.00  0.00    +0.000 C 
ATOM      6  N   UNL     1       5.549   4.322  17.800  0.00  0.00    +0.000 N 
ATOM      7  N   UNL     1       6.383   4.655  16.798  0.00  0.00    +0.000 NA
ATOM      8  C   UNL     1       5.940   3.984  15.727  0.00  0.00    +0.000 A 
ATOM      9  C   UNL     1       4.846   3.156  16.105  0.00  0.00    +0.000 A 
ATOM     10  C   UNL     1       4.579   3.413  17.443  0.00  0.00    +0.000 A 
BRANCH   8  11
ATOM     11  C   UNL     1       6.520   4.201  14.392  0.00  0.00    +0.000 A 
ATOM     12  C   UNL     1       7.514   5.177  14.197  0.00  0.00    +0.000 A 
ATOM     13  C   UNL     1       7.980   5.488  12.917  0.00  0.00    +0.000 A 
ATOM     14  C   UNL     1       7.470   4.817  11.809  0.00  0.00    +0.000 A 
ATOM     15  C   UNL     1       6.518   3.815  11.985  0.00  0.00    +0.000 A 
ATOM     16  C   UNL     1       6.049   3.505  13.268  0.00  0.00    +0.000 A 
ENDBRANCH   8  11
ENDBRANCH   1  10
BRANCH   3  17
ATOM     17  CA  UNL     1       1.914   3.508  20.159  0.00  0.00    +0.000 C 
BRANCH  17  18
ATOM     18  C   UNL     1       2.236   2.721  21.451  0.00  0.00    +0.000 C 
ATOM     19  O   UNL     1       3.353   2.287  21.724  0.00  0.00    +0.000 OA
BRANCH  18  20
ATOM     20  OXT UNL     1       1.215   2.628  22.325  0.00  0.00    +0.000 OA
ATOM     21  HXT UNL     1       0.523   3.299  22.145  0.00  0.00    +0.000 HD
ENDBRANCH  18  20
ENDBRANCH  17  18
BRANCH  17  22
ATOM     22  C   UNL     1       1.133   4.807  20.490  0.00  0.00    +0.000 C 
BRANCH  22  23
ATOM     23  C   UNL     1       1.944   6.093  20.740  0.00  0.00    +0.000 C 
BRANCH  23  24
ATOM     24  C   UNL     1       2.090   7.002  19.532  0.00  0.00    +0.000 C 
ATOM     25  O   UNL     1       2.561   6.576  18.475  0.00  0.00    +0.000 OA
ATOM     26  N   UNL     1       1.668   8.311  19.664  0.00  0.00    +0.000 N 
ATOM     27  C   UNL     1       1.108   8.941  20.869  0.00  0.00    +0.000 C 
ATOM     28  C   UNL     1      -0.202   9.673  20.541  0.00  0.00    +0.000 C 
ATOM     29  O   UNL     1      -0.050  10.572  19.431  0.00  0.00    +0.000 OA
ATOM     30  C   UNL     1       0.405   9.872  18.261  0.00  0.00    +0.000 C 
ATOM     31  C   UNL     1       1.766   9.225  18.523  0.00  0.00    +0.000 C 
ENDBRANCH  23  24
ENDBRANCH  22  23
ENDBRANCH  17  22
ENDBRANCH   3  17
TORSDOF 8
ENDMDL
