MODEL 1
REMARK VINA RESULT:      -8.7      0.000      0.000
REMARK  Name = 
REMARK  5 active torsions:
REMARK  status: ('A' for Active; 'I' for Inactive)
REMARK    1  A    between atoms: N_7  and  C_8
REMARK    2  A    between atoms: C_11  and  N_12
REMARK    3  A    between atoms: C_17  and  C_18
REMARK    4  A    between atoms: N_20  and  C_21
REMARK    5  A    between atoms: C_21  and  C_22
REMARK                            x       y       z     vdW  Elec       q    Type
REMARK                         _______ _______ _______ _____ _____    ______ ____
ROOT
ATOM      1  N   UNL     1       2.258   5.251  19.760  0.00  0.00    +0.000 N 
ATOM      2  C   UNL     1       1.419   4.184  20.016  0.00  0.00    +0.000 C 
ATOM      3  O   UNL     1       0.280   4.094  20.422  0.00  0.00    +0.000 OA
ATOM      4  C   UNL     1       2.547   3.236  19.461  0.00  0.00    +0.000 C 
ATOM      5 CL   UNL     1       3.484   2.553  20.848  0.00  0.00    +0.000 Cl
ATOM      6  C   UNL     1       2.881   4.556  18.645  0.00  0.00    +0.000 C 
ENDROOT
BRANCH   6   7
ATOM      7  C   UNL     1       4.271   4.871  18.071  0.00  0.00    +0.000 A 
ATOM      8  C   UNL     1       4.248   5.115  16.696  0.00  0.00    +0.000 A 
ATOM      9  N   UNL     1       5.535   4.958  16.288  0.00  0.00    +0.000 N 
ATOM     10  C   UNL     1       6.290   5.567  17.254  0.00  0.00    +0.000 A 
ATOM     11  C   UNL     1       7.559   6.150  17.094  0.00  0.00    +0.000 A 
ATOM     12  C   UNL     1       8.269   6.418  18.237  0.00  0.00    +0.000 A 
ATOM     13  C   UNL     1       7.721   6.073  19.479  0.00  0.00    +0.000 A 
ATOM     14  C   UNL     1       6.414   5.520  19.618  0.00  0.00    +0.000 A 
ATOM     15  C   UNL     1       5.627   5.271  18.465  0.00  0.00    +0.000 A 
BRANCH   9  16
ATOM     16  C   UNL     1       6.037   3.760  15.616  0.00  0.00    +0.000 C 
BRANCH  16  17
ATOM     17  C   UNL     1       6.385   4.070  14.201  0.00  0.00    +0.000 A 
ATOM     18  C   UNL     1       5.769   3.374  13.153  0.00  0.00    +0.000 A 
ATOM     19  C   UNL     1       6.175   3.598  11.843  0.00  0.00    +0.000 A 
ATOM     20  C   UNL     1       7.202   4.504  11.580  0.00  0.00    +0.000 A 
ATOM     21  C   UNL     1       7.796   5.219  12.619  0.00  0.00    +0.000 A 
ATOM     22  C   UNL     1       7.384   5.009  13.927  0.00  0.00    +0.000 A 
ENDBRANCH  16  17
ENDBRANCH   9  16
ENDBRANCH   6   7
BRANCH   1  26
ATOM     23  C   UNL     1       1.006   9.205  19.985  0.00  0.00    +0.000 A 
ATOM     24  C   UNL     1       1.679   8.721  18.852  0.00  0.00    +0.000 A 
ATOM     25  C   UNL     1       2.133   7.408  18.804  0.00  0.00    +0.000 A 
ATOM     26  C   UNL     1       1.921   6.573  19.890  0.00  0.00    +0.000 A 
ATOM     27  C   UNL     1       1.309   7.049  21.043  0.00  0.00    +0.000 A 
ATOM     28  C   UNL     1       0.886   8.368  21.094  0.00  0.00    +0.000 A 
BRANCH  23  35
ATOM     29  O   UNL     1      -1.382  10.089  18.717  0.00  0.00    +0.000 OA
ATOM     30  C   UNL     1      -0.598  10.885  19.236  0.00  0.00    +0.000 C 
ATOM     31  C   UNL     1      -0.885  12.384  19.133  0.00  0.00    +0.000 C 
ATOM     32  O   UNL     1       0.137  13.290  19.511  0.00  0.00    +0.000 OA
ATOM     33  C   UNL     1       0.688  12.897  20.763  0.00  0.00    +0.000 C 
ATOM     34  C   UNL     1       1.379  11.554  20.607  0.00  0.00    +0.000 C 
ATOM     35  N   UNL     1       0.515  10.532  20.010  0.00  0.00    +0.000 N 
ENDBRANCH  23  35
ENDBRANCH   1  26
TORSDOF 5
ENDMDL
MODEL 2
REMARK VINA RESULT:      -8.6      4.182      7.320
REMARK  Name = 
REMARK  5 active torsions:
REMARK  status: ('A' for Active; 'I' for Inactive)
REMARK    1  A    between atoms: N_7  and  C_8
REMARK    2  A    between atoms: C_11  and  N_12
REMARK    3  A    between atoms: C_17  and  C_18
REMARK    4  A    between atoms: N_20  and  C_21
REMARK    5  A    between atoms: C_21  and  C_22
REMARK                            x       y       z     vdW  Elec       q    Type
REMARK                         _______ _______ _______ _____ _____    ______ ____
ROOT
ATOM      1  N   UNL     1       6.484   6.062  17.435  0.00  0.00    +0.000 N 
ATOM      2  C   UNL     1       6.930   4.879  16.879  0.00  0.00    +0.000 C 
ATOM      3  O   UNL     1       8.025   4.463  16.566  0.00  0.00    +0.000 OA
ATOM      4  C   UNL     1       5.448   4.351  16.952  0.00  0.00    +0.000 C 
ATOM      5 CL   UNL     1       4.663   4.561  15.337  0.00  0.00    +0.000 Cl
ATOM      6  C   UNL     1       5.427   5.378  18.162  0.00  0.00    +0.000 C 
ENDROOT
BRANCH   6   7
ATOM      7  C   UNL     1       4.145   6.040  18.691  0.00  0.00    +0.000 A 
ATOM      8  C   UNL     1       3.841   5.663  20.001  0.00  0.00    +0.000 A 
ATOM      9  N   UNL     1       2.527   5.973  20.162  0.00  0.00    +0.000 N 
ATOM     10  C   UNL     1       2.376   7.195  19.565  0.00  0.00    +0.000 A 
ATOM     11  C   UNL     1       1.423   8.180  19.880  0.00  0.00    +0.000 A 
ATOM     12  C   UNL     1       1.240   9.185  18.964  0.00  0.00    +0.000 A 
ATOM     13  C   UNL     1       1.970   9.162  17.770  0.00  0.00    +0.000 A 
ATOM     14  C   UNL     1       2.960   8.175  17.490  0.00  0.00    +0.000 A 
ATOM     15  C   UNL     1       3.216   7.146  18.430  0.00  0.00    +0.000 A 
BRANCH   9  16
ATOM     16  C   UNL     1       1.444   4.992  20.102  0.00  0.00    +0.000 C 
BRANCH  16  17
ATOM     17  C   UNL     1       1.880   3.789  19.339  0.00  0.00    +0.000 A 
ATOM     18  C   UNL     1       2.524   2.732  19.994  0.00  0.00    +0.000 A 
ATOM     19  C   UNL     1       3.018   1.662  19.257  0.00  0.00    +0.000 A 
ATOM     20  C   UNL     1       2.882   1.654  17.869  0.00  0.00    +0.000 A 
ATOM     21  C   UNL     1       2.216   2.691  17.219  0.00  0.00    +0.000 A 
ATOM     22  C   UNL     1       1.708   3.754  17.952  0.00  0.00    +0.000 A 
ENDBRANCH  16  17
ENDBRANCH   9  16
ENDBRANCH   6   7
BRANCH   1  26
ATOM     23  C   UNL     1       8.676   9.332  18.761  0.00  0.00    +0.000 A 
ATOM     24  C   UNL     1       7.780   9.446  17.686  0.00  0.00    +0.000 A 
ATOM     25  C   UNL     1       7.084   8.337  17.221  0.00  0.00    +0.000 A 
ATOM     26  C   UNL     1       7.282   7.105  17.825  0.00  0.00    +0.000 A 
ATOM     27  C   UNL     1       8.207   6.958  18.851  0.00  0.00    +0.000 A 
ATOM     28  C   UNL     1       8.919   8.065  19.289  0.00  0.00    +0.000 A 
BRANCH  23  35
ATOM     29  O   UNL     1      10.461  10.949  17.248  0.00  0.00    +0.000 OA
ATOM     30  C   UNL     1      10.314  11.115  18.460  0.00  0.00    +0.000 C 
ATOM     31  C   UNL     1      11.163  12.169  19.173  0.00  0.00    +0.000 C 
ATOM     32  O   UNL     1      11.166  12.182  20.590  0.00  0.00    +0.000 OA
ATOM     33  C   UNL     1       9.831  12.098  21.074  0.00  0.00    +0.000 C 
ATOM     34  C   UNL     1       9.239  10.755  20.684  0.00  0.00    +0.000 C 
ATOM     35  N   UNL     1       9.352  10.474  19.250  0.00  0.00    +0.000 N 
ENDBRANCH  23  35
ENDBRANCH   1  26
TORSDOF 5
ENDMDL
MODEL 3
REMARK VINA RESULT:      -8.5      3.970      7.183
REMARK  Name = 
REMARK  5 active torsions:
REMARK  status: ('A' for Active; 'I' for Inactive)
REMARK    1  A    between atoms: N_7  and  C_8
REMARK    2  A    between atoms: C_11  and  N_12
REMARK    3  A    between atoms: C_17  and  C_18
REMARK    4  A    between atoms: N_20  and  C_21
REMARK    5  A    between atoms: C_21  and  C_22
REMARK                            x       y       z     vdW  Elec       q    Type
REMARK                         _______ _______ _______ _____ _____    ______ ____
ROOT
ATOM      1  N   UNL     1       6.510   5.942  17.536  0.00  0.00    +0.000 N 
ATOM      2  C   UNL     1       6.972   4.717  17.094  0.00  0.00    +0.000 C 
ATOM      3  O   UNL     1       8.072   4.287  16.821  0.00  0.00    +0.000 OA
ATOM      4  C   UNL     1       5.497   4.179  17.217  0.00  0.00    +0.000 C 
ATOM      5 CL   UNL     1       4.709   4.226  15.590  0.00  0.00    +0.000 Cl
ATOM      6  C   UNL     1       5.462   5.316  18.325  0.00  0.00    +0.000 C 
ENDROOT
BRANCH   6   7
ATOM      7  C   UNL     1       4.171   6.008  18.790  0.00  0.00    +0.000 A 
ATOM      8  C   UNL     1       3.810   5.662  20.094  0.00  0.00    +0.000 A 
ATOM      9  N   UNL     1       2.496   5.996  20.196  0.00  0.00    +0.000 N 
ATOM     10  C   UNL     1       2.388   7.208  19.571  0.00  0.00    +0.000 A 
ATOM     11  C   UNL     1       1.441   8.214  19.830  0.00  0.00    +0.000 A 
ATOM     12  C   UNL     1       1.310   9.204  18.888  0.00  0.00    +0.000 A 
ATOM     13  C   UNL     1       2.086   9.145  17.724  0.00  0.00    +0.000 A 
ATOM     14  C   UNL     1       3.070   8.137  17.502  0.00  0.00    +0.000 A 
ATOM     15  C   UNL     1       3.272   7.123  18.471  0.00  0.00    +0.000 A 
BRANCH   9  16
ATOM     16  C   UNL     1       1.400   5.030  20.113  0.00  0.00    +0.000 C 
BRANCH  16  17
ATOM     17  C   UNL     1       1.856   3.791  19.423  0.00  0.00    +0.000 A 
ATOM     18  C   UNL     1       2.571   2.814  20.127  0.00  0.00    +0.000 A 
ATOM     19  C   UNL     1       3.081   1.712  19.452  0.00  0.00    +0.000 A 
ATOM     20  C   UNL     1       2.890   1.591  18.076  0.00  0.00    +0.000 A 
ATOM     21  C   UNL     1       2.153   2.548  17.379  0.00  0.00    +0.000 A 
ATOM     22  C   UNL     1       1.630   3.643  18.052  0.00  0.00    +0.000 A 
ENDBRANCH  16  17
ENDBRANCH   9  16
ENDBRANCH   6   7
BRANCH   1  26
ATOM     23  C   UNL     1       8.661   9.347  18.550  0.00  0.00    +0.000 A 
ATOM     24  C   UNL     1       7.748   9.356  17.483  0.00  0.00    +0.000 A 
ATOM     25  C   UNL     1       7.066   8.200  17.123  0.00  0.00    +0.000 A 
ATOM     26  C   UNL     1       7.295   7.027  17.825  0.00  0.00    +0.000 A 
ATOM     27  C   UNL     1       8.237   6.982  18.845  0.00  0.00    +0.000 A 
ATOM     28  C   UNL     1       8.934   8.133  19.178  0.00  0.00    +0.000 A 
BRANCH  23  35
ATOM     29  O   UNL     1       8.875  10.315  21.216  0.00  0.00    +0.000 OA
ATOM     30  C   UNL     1       9.248  10.990  20.256  0.00  0.00    +0.000 C 
ATOM     31  C   UNL     1       9.774  12.405  20.503  0.00  0.00    +0.000 C 
ATOM     32  O   UNL     1       9.965  13.255  19.385  0.00  0.00    +0.000 OA
ATOM     33  C   UNL     1      10.666  12.554  18.364  0.00  0.00    +0.000 C 
ATOM     34  C   UNL     1       9.804  11.410  17.858  0.00  0.00    +0.000 C 
ATOM     35  N   UNL     1       9.323  10.537  18.932  0.00  0.00    +0.000 N 
ENDBRANCH  23  35
ENDBRANCH   1  26
TORSDOF 5
ENDMDL
MODEL 4
REMARK VINA RESULT:      -8.4      0.642      1.132
REMARK  Name = 
REMARK  5 active torsions:
REMARK  status: ('A' for Active; 'I' for Inactive)
REMARK    1  A    between atoms: N_7  and  C_8
REMARK    2  A    between atoms: C_11  and  N_12
REMARK    3  A    between atoms: C_17  and  C_18
REMARK    4  A    between atoms: N_20  and  C_21
REMARK    5  A    between atoms: C_21  and  C_22
REMARK                            x       y       z     vdW  Elec       q    Type
REMARK                         _______ _______ _______ _____ _____    ______ ____
ROOT
ATOM      1  N   UNL     1       2.263   5.280  19.729  0.00  0.00    +0.000 N 
ATOM      2  C   UNL     1       1.443   4.212  20.037  0.00  0.00    +0.000 C 
ATOM      3  O   UNL     1       0.301   4.121  20.436  0.00  0.00    +0.000 OA
ATOM      4  C   UNL     1       2.596   3.258  19.548  0.00  0.00    +0.000 C 
ATOM      5 CL   UNL     1       3.531   2.672  20.980  0.00  0.00    +0.000 Cl
ATOM      6  C   UNL     1       2.912   4.536  18.662  0.00  0.00    +0.000 C 
ENDROOT
BRANCH   6   7
ATOM      7  C   UNL     1       4.302   4.847  18.085  0.00  0.00    +0.000 A 
ATOM      8  C   UNL     1       4.276   5.098  16.712  0.00  0.00    +0.000 A 
ATOM      9  N   UNL     1       5.561   4.936  16.299  0.00  0.00    +0.000 N 
ATOM     10  C   UNL     1       6.322   5.536  17.265  0.00  0.00    +0.000 A 
ATOM     11  C   UNL     1       7.594   6.114  17.104  0.00  0.00    +0.000 A 
ATOM     12  C   UNL     1       8.309   6.373  18.247  0.00  0.00    +0.000 A 
ATOM     13  C   UNL     1       7.763   6.024  19.488  0.00  0.00    +0.000 A 
ATOM     14  C   UNL     1       6.453   5.477  19.629  0.00  0.00    +0.000 A 
ATOM     15  C   UNL     1       5.661   5.238  18.477  0.00  0.00    +0.000 A 
BRANCH   9  16
ATOM     16  C   UNL     1       6.055   3.739  15.619  0.00  0.00    +0.000 C 
BRANCH  16  17
ATOM     17  C   UNL     1       6.403   4.055  14.205  0.00  0.00    +0.000 A 
ATOM     18  C   UNL     1       5.791   3.361  13.155  0.00  0.00    +0.000 A 
ATOM     19  C   UNL     1       6.198   3.591  11.846  0.00  0.00    +0.000 A 
ATOM     20  C   UNL     1       7.222   4.501  11.587  0.00  0.00    +0.000 A 
ATOM     21  C   UNL     1       7.812   5.214  12.630  0.00  0.00    +0.000 A 
ATOM     22  C   UNL     1       7.400   4.999  13.936  0.00  0.00    +0.000 A 
ENDBRANCH  16  17
ENDBRANCH   9  16
ENDBRANCH   6   7
BRANCH   1  26
ATOM     23  C   UNL     1       0.935   9.216  19.712  0.00  0.00    +0.000 A 
ATOM     24  C   UNL     1       1.664   8.690  18.633  0.00  0.00    +0.000 A 
ATOM     25  C   UNL     1       2.142   7.386  18.667  0.00  0.00    +0.000 A 
ATOM     26  C   UNL     1       1.898   6.600  19.782  0.00  0.00    +0.000 A 
ATOM     27  C   UNL     1       1.230   7.118  20.884  0.00  0.00    +0.000 A 
ATOM     28  C   UNL     1       0.782   8.429  20.853  0.00  0.00    +0.000 A 
BRANCH  23  35
ATOM     29  O   UNL     1       1.656  11.333  21.470  0.00  0.00    +0.000 OA
ATOM     30  C   UNL     1       0.741  11.459  20.653  0.00  0.00    +0.000 C 
ATOM     31  C   UNL     1      -0.065  12.758  20.636  0.00  0.00    +0.000 C 
ATOM     32  O   UNL     1      -1.258  12.798  19.873  0.00  0.00    +0.000 OA
ATOM     33  C   UNL     1      -1.019  12.254  18.579  0.00  0.00    +0.000 C 
ATOM     34  C   UNL     1      -0.673  10.781  18.710  0.00  0.00    +0.000 C 
ATOM     35  N   UNL     1       0.421  10.532  19.652  0.00  0.00    +0.000 N 
ENDBRANCH  23  35
ENDBRANCH   1  26
TORSDOF 5
ENDMDL
MODEL 5
REMARK VINA RESULT:      -8.2      0.896      1.328
REMARK  Name = 
REMARK  5 active torsions:
REMARK  status: ('A' for Active; 'I' for Inactive)
REMARK    1  A    between atoms: N_7  and  C_8
REMARK    2  A    between atoms: C_11  and  N_12
REMARK    3  A    between atoms: C_17  and  C_18
REMARK    4  A    between atoms: N_20  and  C_21
REMARK    5  A    between atoms: C_21  and  C_22
REMARK                            x       y       z     vdW  Elec       q    Type
REMARK                         _______ _______ _______ _____ _____    ______ ____
ROOT
ATOM      1  N   UNL     1       2.272   5.048  19.701  0.00  0.00    +0.000 N 
ATOM      2  C   UNL     1       1.504   3.939  20.002  0.00  0.00    +0.000 C 
ATOM      3  O   UNL     1       0.369   3.791  20.400  0.00  0.00    +0.000 OA
ATOM      4  C   UNL     1       2.702   3.045  19.507  0.00  0.00    +0.000 C 
ATOM      5 CL   UNL     1       3.665   2.497  20.935  0.00  0.00    +0.000 Cl
ATOM      6  C   UNL     1       2.956   4.344  18.629  0.00  0.00    +0.000 C 
ENDROOT
BRANCH   6   7
ATOM      7  C   UNL     1       4.329   4.725  18.055  0.00  0.00    +0.000 A 
ATOM      8  C   UNL     1       4.292   4.975  16.681  0.00  0.00    +0.000 A 
ATOM      9  N   UNL     1       5.584   4.879  16.270  0.00  0.00    +0.000 N 
ATOM     10  C   UNL     1       6.312   5.517  17.238  0.00  0.00    +0.000 A 
ATOM     11  C   UNL     1       7.554   6.159  17.079  0.00  0.00    +0.000 A 
ATOM     12  C   UNL     1       8.253   6.453  18.223  0.00  0.00    +0.000 A 
ATOM     13  C   UNL     1       7.723   6.076  19.463  0.00  0.00    +0.000 A 
ATOM     14  C   UNL     1       6.443   5.462  19.601  0.00  0.00    +0.000 A 
ATOM     15  C   UNL     1       5.666   5.184  18.449  0.00  0.00    +0.000 A 
BRANCH   9  16
ATOM     16  C   UNL     1       6.140   3.709  15.590  0.00  0.00    +0.000 C 
BRANCH  16  17
ATOM     17  C   UNL     1       6.451   4.038  14.171  0.00  0.00    +0.000 A 
ATOM     18  C   UNL     1       5.826   3.339  13.131  0.00  0.00    +0.000 A 
ATOM     19  C   UNL     1       6.199   3.580  11.814  0.00  0.00    +0.000 A 
ATOM     20  C   UNL     1       7.203   4.507  11.537  0.00  0.00    +0.000 A 
ATOM     21  C   UNL     1       7.806   5.225  12.569  0.00  0.00    +0.000 A 
ATOM     22  C   UNL     1       7.426   4.997  13.883  0.00  0.00    +0.000 A 
ENDBRANCH  16  17
ENDBRANCH   9  16
ENDBRANCH   6   7
BRANCH   1  26
ATOM     23  C   UNL     1       1.201   9.045  20.061  0.00  0.00    +0.000 A 
ATOM     24  C   UNL     1       0.919   8.123  21.082  0.00  0.00    +0.000 A 
ATOM     25  C   UNL     1       1.241   6.780  20.934  0.00  0.00    +0.000 A 
ATOM     26  C   UNL     1       1.844   6.348  19.763  0.00  0.00    +0.000 A 
ATOM     27  C   UNL     1       2.079   7.232  18.717  0.00  0.00    +0.000 A 
ATOM     28  C   UNL     1       1.727   8.566  18.862  0.00  0.00    +0.000 A 
BRANCH  23  35
ATOM     29  O   UNL     1       0.609  10.284  22.552  0.00  0.00    +0.000 OA
ATOM     30  C   UNL     1       0.490  10.893  21.488  0.00  0.00    +0.000 C 
ATOM     31  C   UNL     1      -0.053  12.323  21.507  0.00  0.00    +0.000 C 
ATOM     32  O   UNL     1      -0.416  12.919  20.274  0.00  0.00    +0.000 OA
ATOM     33  C   UNL     1       0.617  12.711  19.317  0.00  0.00    +0.000 C 
ATOM     34  C   UNL     1       0.739  11.226  19.026  0.00  0.00    +0.000 C 
ATOM     35  N   UNL     1       0.902  10.416  20.236  0.00  0.00    +0.000 N 
ENDBRANCH  23  35
ENDBRANCH   1  26
TORSDOF 5
ENDMDL
MODEL 6
REMARK VINA RESULT:      -8.2      3.430     10.496
REMARK  Name = 
REMARK  5 active torsions:
REMARK  status: ('A' for Active; 'I' for Inactive)
REMARK    1  A    between atoms: N_7  and  C_8
REMARK    2  A    between atoms: C_11  and  N_12
REMARK    3  A    between atoms: C_17  and  C_18
REMARK    4  A    between atoms: N_20  and  C_21
REMARK    5  A    between atoms: C_21  and  C_22
REMARK                            x       y       z     vdW  Elec       q    Type
REMARK                         _______ _______ _______ _____ _____    ______ ____
ROOT
ATOM      1  N   UNL     1       0.607   9.456  21.002  0.00  0.00    +0.000 N 
ATOM      2  C   UNL     1       1.138   9.927  22.187  0.00  0.00    +0.000 C 
ATOM      3  O   UNL     1       2.119   9.637  22.837  0.00  0.00    +0.000 OA
ATOM      4  C   UNL     1      -0.009  11.005  22.208  0.00  0.00    +0.000 C 
ATOM      5 CL   UNL     1      -1.343  10.434  23.285  0.00  0.00    +0.000 Cl
ATOM      6  C   UNL     1       0.115  10.776  20.642  0.00  0.00    +0.000 C 
ENDROOT
BRANCH   6   7
ATOM      7  C   UNL     1      -1.024  11.056  19.650  0.00  0.00    +0.000 A 
ATOM      8  C   UNL     1      -1.561  12.337  19.788  0.00  0.00    +0.000 A 
ATOM      9  N   UNL     1      -2.772  12.281  19.174  0.00  0.00    +0.000 N 
ATOM     10  C   UNL     1      -2.556  11.562  18.030  0.00  0.00    +0.000 A 
ATOM     11  C   UNL     1      -3.276  11.649  16.824  0.00  0.00    +0.000 A 
ATOM     12  C   UNL     1      -3.104  10.630  15.922  0.00  0.00    +0.000 A 
ATOM     13  C   UNL     1      -2.266   9.559  16.252  0.00  0.00    +0.000 A 
ATOM     14  C   UNL     1      -1.514   9.512  17.463  0.00  0.00    +0.000 A 
ATOM     15  C   UNL     1      -1.625  10.568  18.403  0.00  0.00    +0.000 A 
BRANCH   9  16
ATOM     16  C   UNL     1      -4.044  12.156  19.886  0.00  0.00    +0.000 C 
BRANCH  16  17
ATOM     17  C   UNL     1      -4.101  13.129  21.012  0.00  0.00    +0.000 A 
ATOM     18  C   UNL     1      -4.215  14.501  20.756  0.00  0.00    +0.000 A 
ATOM     19  C   UNL     1      -4.163  15.407  21.808  0.00  0.00    +0.000 A 
ATOM     20  C   UNL     1      -3.986  14.946  23.112  0.00  0.00    +0.000 A 
ATOM     21  C   UNL     1      -3.902  13.579  23.372  0.00  0.00    +0.000 A 
ATOM     22  C   UNL     1      -3.967  12.670  22.326  0.00  0.00    +0.000 A 
ENDBRANCH  16  17
ENDBRANCH   9  16
ENDBRANCH   6   7
BRANCH   1  26
ATOM     23  C   UNL     1       2.559   6.633  18.663  0.00  0.00    +0.000 A 
ATOM     24  C   UNL     1       2.279   7.917  18.169  0.00  0.00    +0.000 A 
ATOM     25  C   UNL     1       1.586   8.840  18.943  0.00  0.00    +0.000 A 
ATOM     26  C   UNL     1       1.165   8.484  20.215  0.00  0.00    +0.000 A 
ATOM     27  C   UNL     1       1.381   7.200  20.701  0.00  0.00    +0.000 A 
ATOM     28  C   UNL     1       2.048   6.277  19.910  0.00  0.00    +0.000 A 
BRANCH  23  35
ATOM     29  O   UNL     1       1.507   4.256  17.508  0.00  0.00    +0.000 OA
ATOM     30  C   UNL     1       2.713   4.505  17.478  0.00  0.00    +0.000 C 
ATOM     31  C   UNL     1       3.668   3.479  16.867  0.00  0.00    +0.000 C 
ATOM     32  O   UNL     1       5.061   3.660  17.058  0.00  0.00    +0.000 OA
ATOM     33  C   UNL     1       5.412   5.010  16.776  0.00  0.00    +0.000 C 
ATOM     34  C   UNL     1       4.744   5.925  17.787  0.00  0.00    +0.000 C 
ATOM     35  N   UNL     1       3.297   5.713  17.882  0.00  0.00    +0.000 N 
ENDBRANCH  23  35
ENDBRANCH   1  26
TORSDOF 5
ENDMDL
MODEL 7
REMARK VINA RESULT:      -8.2      4.636      8.775
REMARK  Name = 
REMARK  5 active torsions:
REMARK  status: ('A' for Active; 'I' for Inactive)
REMARK    1  A    between atoms: N_7  and  C_8
REMARK    2  A    between atoms: C_11  and  N_12
REMARK    3  A    between atoms: C_17  and  C_18
REMARK    4  A    between atoms: N_20  and  C_21
REMARK    5  A    between atoms: C_21  and  C_22
REMARK                            x       y       z     vdW  Elec       q    Type
REMARK                         _______ _______ _______ _____ _____    ______ ____
ROOT
ATOM      1  N   UNL     1       0.156  14.087  21.303  0.00  0.00    +0.000 N 
ATOM      2  C   UNL     1       1.294  14.714  21.773  0.00  0.00    +0.000 C 
ATOM      3  O   UNL     1       1.506  15.493  22.678  0.00  0.00    +0.000 OA
ATOM      4  C   UNL     1       2.116  13.898  20.707  0.00  0.00    +0.000 C 
ATOM      5 CL   UNL     1       2.404  14.937  19.256  0.00  0.00    +0.000 Cl
ATOM      6  C   UNL     1       0.906  12.897  20.935  0.00  0.00    +0.000 C 
ENDROOT
BRANCH   6   7
ATOM      7  C   UNL     1       0.460  11.854  19.899  0.00  0.00    +0.000 A 
ATOM      8  C   UNL     1       0.913  10.567  20.195  0.00  0.00    +0.000 A 
ATOM      9  N   UNL     1       0.809   9.879  19.027  0.00  0.00    +0.000 N 
ATOM     10  C   UNL     1      -0.392  10.263  18.495  0.00  0.00    +0.000 A 
ATOM     11  C   UNL     1      -1.214   9.517  17.631  0.00  0.00    +0.000 A 
ATOM     12  C   UNL     1      -2.204  10.200  16.970  0.00  0.00    +0.000 A 
ATOM     13  C   UNL     1      -2.323  11.582  17.158  0.00  0.00    +0.000 A 
ATOM     14  C   UNL     1      -1.504  12.310  18.071  0.00  0.00    +0.000 A 
ATOM     15  C   UNL     1      -0.500  11.636  18.810  0.00  0.00    +0.000 A 
BRANCH   9  16
ATOM     16  C   UNL     1       1.940   9.592  18.145  0.00  0.00    +0.000 C 
BRANCH  16  17
ATOM     17  C   UNL     1       2.424   8.200  18.363  0.00  0.00    +0.000 A 
ATOM     18  C   UNL     1       2.034   7.488  19.503  0.00  0.00    +0.000 A 
ATOM     19  C   UNL     1       2.572   6.230  19.749  0.00  0.00    +0.000 A 
ATOM     20  C   UNL     1       3.508   5.691  18.867  0.00  0.00    +0.000 A 
ATOM     21  C   UNL     1       3.875   6.387  17.716  0.00  0.00    +0.000 A 
ATOM     22  C   UNL     1       3.330   7.636  17.459  0.00  0.00    +0.000 A 
ENDBRANCH  16  17
ENDBRANCH   9  16
ENDBRANCH   6   7
BRANCH   1  26
ATOM     23  C   UNL     1      -3.688  14.157  22.877  0.00  0.00    +0.000 A 
ATOM     24  C   UNL     1      -3.463  14.328  21.501  0.00  0.00    +0.000 A 
ATOM     25  C   UNL     1      -2.171  14.348  20.990  0.00  0.00    +0.000 A 
ATOM     26  C   UNL     1      -1.095  14.200  21.851  0.00  0.00    +0.000 A 
ATOM     27  C   UNL     1      -1.292  14.087  23.222  0.00  0.00    +0.000 A 
ATOM     28  C   UNL     1      -2.583  14.098  23.726  0.00  0.00    +0.000 A 
BRANCH  23  35
ATOM     29  O   UNL     1      -4.822  11.936  24.246  0.00  0.00    +0.000 OA
ATOM     30  C   UNL     1      -5.507  12.907  23.917  0.00  0.00    +0.000 C 
ATOM     31  C   UNL     1      -7.011  12.882  24.194  0.00  0.00    +0.000 C 
ATOM     32  O   UNL     1      -7.820  13.881  23.597  0.00  0.00    +0.000 OA
ATOM     33  C   UNL     1      -7.223  15.159  23.788  0.00  0.00    +0.000 C 
ATOM     34  C   UNL     1      -5.901  15.212  23.043  0.00  0.00    +0.000 C 
ATOM     35  N   UNL     1      -5.007  14.102  23.382  0.00  0.00    +0.000 N 
ENDBRANCH  23  35
ENDBRANCH   1  26
TORSDOF 5
ENDMDL
MODEL 8
REMARK VINA RESULT:      -8.1      0.936      1.263
REMARK  Name = 
REMARK  5 active torsions:
REMARK  status: ('A' for Active; 'I' for Inactive)
REMARK    1  A    between atoms: N_7  and  C_8
REMARK    2  A    between atoms: C_11  and  N_12
REMARK    3  A    between atoms: C_17  and  C_18
REMARK    4  A    between atoms: N_20  and  C_21
REMARK    5  A    between atoms: C_21  and  C_22
REMARK                            x       y       z     vdW  Elec       q    Type
REMARK                         _______ _______ _______ _____ _____    ______ ____
ROOT
ATOM      1  N   UNL     1       2.247   5.039  19.662  0.00  0.00    +0.000 N 
ATOM      2  C   UNL     1       1.471   3.926  19.928  0.00  0.00    +0.000 C 
ATOM      3  O   UNL     1       0.334   3.774  20.320  0.00  0.00    +0.000 OA
ATOM      4  C   UNL     1       2.664   3.040  19.407  0.00  0.00    +0.000 C 
ATOM      5 CL   UNL     1       3.621   2.442  20.820  0.00  0.00    +0.000 Cl
ATOM      6  C   UNL     1       2.928   4.362  18.570  0.00  0.00    +0.000 C 
ENDROOT
BRANCH   6   7
ATOM      7  C   UNL     1       4.304   4.751  18.009  0.00  0.00    +0.000 A 
ATOM      8  C   UNL     1       4.279   5.001  16.635  0.00  0.00    +0.000 A 
ATOM      9  N   UNL     1       5.576   4.913  16.236  0.00  0.00    +0.000 N 
ATOM     10  C   UNL     1       6.291   5.555  17.211  0.00  0.00    +0.000 A 
ATOM     11  C   UNL     1       7.529   6.205  17.065  0.00  0.00    +0.000 A 
ATOM     12  C   UNL     1       8.216   6.503  18.215  0.00  0.00    +0.000 A 
ATOM     13  C   UNL     1       7.676   6.123  19.450  0.00  0.00    +0.000 A 
ATOM     14  C   UNL     1       6.399   5.502  19.576  0.00  0.00    +0.000 A 
ATOM     15  C   UNL     1       5.634   5.219  18.416  0.00  0.00    +0.000 A 
BRANCH   9  16
ATOM     16  C   UNL     1       6.145   3.746  15.562  0.00  0.00    +0.000 C 
BRANCH  16  17
ATOM     17  C   UNL     1       6.468   4.076  14.146  0.00  0.00    +0.000 A 
ATOM     18  C   UNL     1       5.859   3.371  13.100  0.00  0.00    +0.000 A 
ATOM     19  C   UNL     1       6.244   3.615  11.787  0.00  0.00    +0.000 A 
ATOM     20  C   UNL     1       7.243   4.551  11.519  0.00  0.00    +0.000 A 
ATOM     21  C   UNL     1       7.829   5.275  12.557  0.00  0.00    +0.000 A 
ATOM     22  C   UNL     1       7.438   5.044  13.868  0.00  0.00    +0.000 A 
ENDBRANCH  16  17
ENDBRANCH   9  16
ENDBRANCH   6   7
BRANCH   1  26
ATOM     23  C   UNL     1       1.214   9.036  20.119  0.00  0.00    +0.000 A 
ATOM     24  C   UNL     1       1.017   8.112  21.157  0.00  0.00    +0.000 A 
ATOM     25  C   UNL     1       1.324   6.768  20.980  0.00  0.00    +0.000 A 
ATOM     26  C   UNL     1       1.827   6.339  19.761  0.00  0.00    +0.000 A 
ATOM     27  C   UNL     1       1.975   7.226  18.702  0.00  0.00    +0.000 A 
ATOM     28  C   UNL     1       1.638   8.559  18.879  0.00  0.00    +0.000 A 
BRANCH  23  35
ATOM     29  O   UNL     1       2.003  11.141  18.376  0.00  0.00    +0.000 OA
ATOM     30  C   UNL     1       1.489  11.373  19.471  0.00  0.00    +0.000 C 
ATOM     31  C   UNL     1       1.336  12.824  19.928  0.00  0.00    +0.000 C 
ATOM     32  O   UNL     1       0.977  13.070  21.276  0.00  0.00    +0.000 OA
ATOM     33  C   UNL     1      -0.118  12.236  21.640  0.00  0.00    +0.000 C 
ATOM     34  C   UNL     1       0.321  10.783  21.598  0.00  0.00    +0.000 C 
ATOM     35  N   UNL     1       0.933  10.407  20.321  0.00  0.00    +0.000 N 
ENDBRANCH  23  35
ENDBRANCH   1  26
TORSDOF 5
ENDMDL
MODEL 9
REMARK VINA RESULT:      -8.1      3.808     10.632
REMARK  Name = 
REMARK  5 active torsions:
REMARK  status: ('A' for Active; 'I' for Inactive)
REMARK    1  A    between atoms: N_7  and  C_8
REMARK    2  A    between atoms: C_11  and  N_12
REMARK    3  A    between atoms: C_17  and  C_18
REMARK    4  A    between atoms: N_20  and  C_21
REMARK    5  A    between atoms: C_21  and  C_22
REMARK                            x       y       z     vdW  Elec       q    Type
REMARK                         _______ _______ _______ _____ _____    ______ ____
ROOT
ATOM      1  N   UNL     1       0.460   9.704  20.861  0.00  0.00    +0.000 N 
ATOM      2  C   UNL     1       0.982  10.255  22.016  0.00  0.00    +0.000 C 
ATOM      3  O   UNL     1       1.998  10.062  22.649  0.00  0.00    +0.000 OA
ATOM      4  C   UNL     1      -0.242  11.244  22.030  0.00  0.00    +0.000 C 
ATOM      5 CL   UNL     1      -1.504  10.613  23.161  0.00  0.00    +0.000 Cl
ATOM      6  C   UNL     1      -0.138  10.970  20.471  0.00  0.00    +0.000 C 
ENDROOT
BRANCH   6   7
ATOM      7  C   UNL     1      -1.319  11.129  19.500  0.00  0.00    +0.000 A 
ATOM      8  C   UNL     1      -2.040  12.305  19.711  0.00  0.00    +0.000 A 
ATOM      9  N   UNL     1      -3.237  12.101  19.099  0.00  0.00    +0.000 N 
ATOM     10  C   UNL     1      -2.929  11.486  17.916  0.00  0.00    +0.000 A 
ATOM     11  C   UNL     1      -3.668  11.529  16.721  0.00  0.00    +0.000 A 
ATOM     12  C   UNL     1      -3.357  10.598  15.762  0.00  0.00    +0.000 A 
ATOM     13  C   UNL     1      -2.363   9.649  16.029  0.00  0.00    +0.000 A 
ATOM     14  C   UNL     1      -1.598   9.650  17.233  0.00  0.00    +0.000 A 
ATOM     15  C   UNL     1      -1.854  10.624  18.230  0.00  0.00    +0.000 A 
BRANCH   9  16
ATOM     16  C   UNL     1      -4.466  11.747  19.808  0.00  0.00    +0.000 C 
BRANCH  16  17
ATOM     17  C   UNL     1      -5.543  12.727  19.494  0.00  0.00    +0.000 A 
ATOM     18  C   UNL     1      -5.536  13.997  20.084  0.00  0.00    +0.000 A 
ATOM     19  C   UNL     1      -6.598  14.866  19.865  0.00  0.00    +0.000 A 
ATOM     20  C   UNL     1      -7.672  14.464  19.071  0.00  0.00    +0.000 A 
ATOM     21  C   UNL     1      -7.667  13.211  18.460  0.00  0.00    +0.000 A 
ATOM     22  C   UNL     1      -6.601  12.346  18.664  0.00  0.00    +0.000 A 
ENDBRANCH  16  17
ENDBRANCH   9  16
ENDBRANCH   6   7
BRANCH   1  26
ATOM     23  C   UNL     1       2.565   6.956  18.565  0.00  0.00    +0.000 A 
ATOM     24  C   UNL     1       2.166   8.193  18.033  0.00  0.00    +0.000 A 
ATOM     25  C   UNL     1       1.424   9.087  18.794  0.00  0.00    +0.000 A 
ATOM     26  C   UNL     1       1.072   8.749  20.092  0.00  0.00    +0.000 A 
ATOM     27  C   UNL     1       1.406   7.508  20.618  0.00  0.00    +0.000 A 
ATOM     28  C   UNL     1       2.122   6.610  19.841  0.00  0.00    +0.000 A 
BRANCH  23  35
ATOM     29  O   UNL     1       1.753   4.363  17.724  0.00  0.00    +0.000 OA
ATOM     30  C   UNL     1       2.906   4.762  17.554  0.00  0.00    +0.000 C 
ATOM     31  C   UNL     1       3.937   3.814  16.938  0.00  0.00    +0.000 C 
ATOM     32  O   UNL     1       5.302   4.191  16.974  0.00  0.00    +0.000 OA
ATOM     33  C   UNL     1       5.438   5.541  16.545  0.00  0.00    +0.000 C 
ATOM     34  C   UNL     1       4.741   6.456  17.538  0.00  0.00    +0.000 C 
ATOM     35  N   UNL     1       3.351   6.069  17.794  0.00  0.00    +0.000 N 
ENDBRANCH  23  35
ENDBRANCH   1  26
TORSDOF 5
ENDMDL
