MODEL 1
REMARK VINA RESULT:      -6.2      0.000      0.000
REMARK  Name = 
REMARK  10 active torsions:
REMARK  status: ('A' for Active; 'I' for Inactive)
REMARK    1  A    between atoms: C_1  and  C_2
REMARK    2  A    between atoms: C_2  and  C_3
REMARK    3  A    between atoms: C_5  and  O_6
REMARK    4  A    between atoms: O_6  and  C_7
REMARK    5  A    between atoms: C_8  and  C_9
REMARK    6  A    between atoms: C_9  and  C_10
REMARK    7  A    between atoms: C_10  and  C_11
REMARK    8  A    between atoms: C_10  and  N_12
REMARK    9  A    between atoms: C_14  and  O_15
REMARK   10  A    between atoms: O_15  and  C_16
REMARK                            x       y       z     vdW  Elec       q    Type
REMARK                         _______ _______ _______ _____ _____    ______ ____
ROOT
ATOM      1  C   UNL     1       2.217   4.285  18.556  0.00  0.00    +0.000 A 
ATOM      2  C   UNL     1       2.242   5.693  18.588  0.00  0.00    +0.000 A 
ATOM      3  C   UNL     1       3.217   6.452  17.905  0.00  0.00    +0.000 A 
ATOM      4  C   UNL     1       4.200   5.765  17.157  0.00  0.00    +0.000 A 
ATOM      5  C   UNL     1       4.188   4.359  17.141  0.00  0.00    +0.000 A 
ATOM      6  C   UNL     1       3.225   3.602  17.814  0.00  0.00    +0.000 A 
ENDROOT
BRANCH   1   8
ATOM      7  C   UNL     1       1.390   3.532  20.802  0.00  0.00    +0.000 C 
ATOM      8  C   UNL     1       1.074   3.628  19.309  0.00  0.00    +0.000 C 
ENDBRANCH   1   8
BRANCH   3   9
ATOM      9  O   UNL     1       3.228   7.817  17.957  0.00  0.00    +0.000 OA
ATOM     10  C   UNL     1       2.177   8.699  17.734  0.00  0.00    +0.000 C 
ENDBRANCH   3   9
BRANCH   6  11
ATOM     11  O   UNL     1       3.368   2.252  17.678  0.00  0.00    +0.000 OA
ATOM     12  C   UNL     1       3.839   1.297  18.550  0.00  0.00    +0.000 C 
ENDBRANCH   6  11
BRANCH   4  13
ATOM     13  C   UNL     1       5.295   6.483  16.383  0.00  0.00    +0.000 C 
BRANCH  13  14
ATOM     14  C   UNL     1       6.726   5.986  16.747  0.00  0.00    +0.000 C 
ATOM     15  C   UNL     1       7.461   7.000  17.630  0.00  0.00    +0.000 C 
BRANCH  14  16
ATOM     16  N   UNL     1       7.525   5.712  15.551  0.00  0.00    +0.000 NA
ATOM     17  H   UNL     1       8.283   5.026  15.772  0.00  0.00    +0.000 HD
ATOM     18  H   UNL     1       7.955   6.596  15.194  0.00  0.00    +0.000 HD
ENDBRANCH  14  16
ENDBRANCH  13  14
ENDBRANCH   4  13
TORSDOF 6
ENDMDL
MODEL 2
REMARK VINA RESULT:      -6.2      2.036      2.968
REMARK  Name = 
REMARK  10 active torsions:
REMARK  status: ('A' for Active; 'I' for Inactive)
REMARK    1  A    between atoms: C_1  and  C_2
REMARK    2  A    between atoms: C_2  and  C_3
REMARK    3  A    between atoms: C_5  and  O_6
REMARK    4  A    between atoms: O_6  and  C_7
REMARK    5  A    between atoms: C_8  and  C_9
REMARK    6  A    between atoms: C_9  and  C_10
REMARK    7  A    between atoms: C_10  and  C_11
REMARK    8  A    between atoms: C_10  and  N_12
REMARK    9  A    between atoms: C_14  and  O_15
REMARK   10  A    between atoms: O_15  and  C_16
REMARK                            x       y       z     vdW  Elec       q    Type
REMARK                         _______ _______ _______ _____ _____    ______ ____
ROOT
ATOM      1  C   UNL     1       3.108   5.234  18.690  0.00  0.00    +0.000 A 
ATOM      2  C   UNL     1       4.402   5.784  18.600  0.00  0.00    +0.000 A 
ATOM      3  C   UNL     1       5.367   5.314  17.684  0.00  0.00    +0.000 A 
ATOM      4  C   UNL     1       5.012   4.252  16.820  0.00  0.00    +0.000 A 
ATOM      5  C   UNL     1       3.728   3.688  16.923  0.00  0.00    +0.000 A 
ATOM      6  C   UNL     1       2.768   4.150  17.827  0.00  0.00    +0.000 A 
ENDROOT
BRANCH   1   8
ATOM      7  C   UNL     1       2.010   5.001  20.933  0.00  0.00    +0.000 C 
ATOM      8  C   UNL     1       2.181   5.886  19.699  0.00  0.00    +0.000 C 
ENDBRANCH   1   8
BRANCH   3   9
ATOM      9  O   UNL     1       6.619   5.856  17.620  0.00  0.00    +0.000 OA
ATOM     10  C   UNL     1       7.599   5.884  18.606  0.00  0.00    +0.000 C 
ENDBRANCH   3   9
BRANCH   6  11
ATOM     11  O   UNL     1       1.577   3.486  17.778  0.00  0.00    +0.000 OA
ATOM     12  C   UNL     1       1.096   2.428  18.515  0.00  0.00    +0.000 C 
ENDBRANCH   6  11
BRANCH   4  13
ATOM     13  C   UNL     1       5.973   3.670  15.795  0.00  0.00    +0.000 C 
BRANCH  13  14
ATOM     14  C   UNL     1       6.163   4.583  14.548  0.00  0.00    +0.000 C 
ATOM     15  C   UNL     1       6.151   3.769  13.251  0.00  0.00    +0.000 C 
BRANCH  14  16
ATOM     16  N   UNL     1       7.405   5.355  14.626  0.00  0.00    +0.000 NA
ATOM     17  H   UNL     1       8.097   4.866  15.240  0.00  0.00    +0.000 HD
ATOM     18  H   UNL     1       7.215   6.307  15.015  0.00  0.00    +0.000 HD
ENDBRANCH  14  16
ENDBRANCH  13  14
ENDBRANCH   4  13
TORSDOF 6
ENDMDL
MODEL 3
REMARK VINA RESULT:      -6.2      2.487      5.538
REMARK  Name = 
REMARK  10 active torsions:
REMARK  status: ('A' for Active; 'I' for Inactive)
REMARK    1  A    between atoms: C_1  and  C_2
REMARK    2  A    between atoms: C_2  and  C_3
REMARK    3  A    between atoms: C_5  and  O_6
REMARK    4  A    between atoms: O_6  and  C_7
REMARK    5  A    between atoms: C_8  and  C_9
REMARK    6  A    between atoms: C_9  and  C_10
REMARK    7  A    between atoms: C_10  and  C_11
REMARK    8  A    between atoms: C_10  and  N_12
REMARK    9  A    between atoms: C_14  and  O_15
REMARK   10  A    between atoms: O_15  and  C_16
REMARK                            x       y       z     vdW  Elec       q    Type
REMARK                         _______ _______ _______ _____ _____    ______ ____
ROOT
ATOM      1  C   UNL     1       5.792   4.974  16.173  0.00  0.00    +0.000 A 
ATOM      2  C   UNL     1       4.786   4.001  16.333  0.00  0.00    +0.000 A 
ATOM      3  C   UNL     1       3.607   4.241  17.072  0.00  0.00    +0.000 A 
ATOM      4  C   UNL     1       3.434   5.511  17.667  0.00  0.00    +0.000 A 
ATOM      5  C   UNL     1       4.447   6.476  17.526  0.00  0.00    +0.000 A 
ATOM      6  C   UNL     1       5.616   6.245  16.795  0.00  0.00    +0.000 A 
ENDROOT
BRANCH   1   8
ATOM      7  C   UNL     1       6.511   4.148  13.916  0.00  0.00    +0.000 C 
ATOM      8  C   UNL     1       6.974   4.566  15.312  0.00  0.00    +0.000 C 
ENDBRANCH   1   8
BRANCH   3   9
ATOM      9  O   UNL     1       2.648   3.280  17.222  0.00  0.00    +0.000 OA
ATOM     10  C   UNL     1       2.702   2.116  17.982  0.00  0.00    +0.000 C 
ENDBRANCH   3   9
BRANCH   6  11
ATOM     11  O   UNL     1       6.480   7.300  16.760  0.00  0.00    +0.000 OA
ATOM     12  C   UNL     1       7.580   7.598  17.533  0.00  0.00    +0.000 C 
ENDBRANCH   6  11
BRANCH   4  13
ATOM     13  C   UNL     1       2.203   5.877  18.483  0.00  0.00    +0.000 C 
BRANCH  13  14
ATOM     14  C   UNL     1       2.416   5.715  20.016  0.00  0.00    +0.000 C 
ATOM     15  C   UNL     1       1.561   4.577  20.583  0.00  0.00    +0.000 C 
BRANCH  14  16
ATOM     16  N   UNL     1       2.119   6.954  20.739  0.00  0.00    +0.000 NA
ATOM     17  H   UNL     1       2.541   7.772  20.242  0.00  0.00    +0.000 HD
ATOM     18  H   UNL     1       2.505   6.906  21.710  0.00  0.00    +0.000 HD
ENDBRANCH  14  16
ENDBRANCH  13  14
ENDBRANCH   4  13
TORSDOF 6
ENDMDL
MODEL 4
REMARK VINA RESULT:      -6.2      2.023      3.318
REMARK  Name = 
REMARK  10 active torsions:
REMARK  status: ('A' for Active; 'I' for Inactive)
REMARK    1  A    between atoms: C_1  and  C_2
REMARK    2  A    between atoms: C_2  and  C_3
REMARK    3  A    between atoms: C_5  and  O_6
REMARK    4  A    between atoms: O_6  and  C_7
REMARK    5  A    between atoms: C_8  and  C_9
REMARK    6  A    between atoms: C_9  and  C_10
REMARK    7  A    between atoms: C_10  and  C_11
REMARK    8  A    between atoms: C_10  and  N_12
REMARK    9  A    between atoms: C_14  and  O_15
REMARK   10  A    between atoms: O_15  and  C_16
REMARK                            x       y       z     vdW  Elec       q    Type
REMARK                         _______ _______ _______ _____ _____    ______ ____
ROOT
ATOM      1  C   UNL     1       3.339   6.216  18.012  0.00  0.00    +0.000 A 
ATOM      2  C   UNL     1       4.541   6.863  17.660  0.00  0.00    +0.000 A 
ATOM      3  C   UNL     1       5.542   6.239  16.886  0.00  0.00    +0.000 A 
ATOM      4  C   UNL     1       5.322   4.914  16.444  0.00  0.00    +0.000 A 
ATOM      5  C   UNL     1       4.133   4.260  16.811  0.00  0.00    +0.000 A 
ATOM      6  C   UNL     1       3.137   4.873  17.577  0.00  0.00    +0.000 A 
ENDROOT
BRANCH   1   8
ATOM      7  C   UNL     1       2.082   8.383  18.121  0.00  0.00    +0.000 C 
ATOM      8  C   UNL     1       2.351   7.046  18.810  0.00  0.00    +0.000 C 
ENDBRANCH   1   8
BRANCH   3   9
ATOM      9  O   UNL     1       6.704   6.881  16.565  0.00  0.00    +0.000 OA
ATOM     10  C   UNL     1       7.590   7.540  17.411  0.00  0.00    +0.000 C 
ENDBRANCH   3   9
BRANCH   6  11
ATOM     11  O   UNL     1       2.050   4.087  17.827  0.00  0.00    +0.000 OA
ATOM     12  C   UNL     1       1.948   2.749  18.135  0.00  0.00    +0.000 C 
ENDBRANCH   6  11
BRANCH   4  13
ATOM     13  C   UNL     1       6.333   4.148  15.604  0.00  0.00    +0.000 C 
BRANCH  13  14
ATOM     14  C   UNL     1       6.492   4.722  14.166  0.00  0.00    +0.000 C 
ATOM     15  C   UNL     1       6.343   3.625  13.107  0.00  0.00    +0.000 C 
BRANCH  14  16
ATOM     16  N   UNL     1       7.780   5.397  13.990  0.00  0.00    +0.000 NA
ATOM     17  H   UNL     1       7.705   6.131  13.248  0.00  0.00    +0.000 HD
ATOM     18  H   UNL     1       8.515   4.706  13.716  0.00  0.00    +0.000 HD
ENDBRANCH  14  16
ENDBRANCH  13  14
ENDBRANCH   4  13
TORSDOF 6
ENDMDL
MODEL 5
REMARK VINA RESULT:      -6.2      2.603      3.345
REMARK  Name = 
REMARK  10 active torsions:
REMARK  status: ('A' for Active; 'I' for Inactive)
REMARK    1  A    between atoms: C_1  and  C_2
REMARK    2  A    between atoms: C_2  and  C_3
REMARK    3  A    between atoms: C_5  and  O_6
REMARK    4  A    between atoms: O_6  and  C_7
REMARK    5  A    between atoms: C_8  and  C_9
REMARK    6  A    between atoms: C_9  and  C_10
REMARK    7  A    between atoms: C_10  and  C_11
REMARK    8  A    between atoms: C_10  and  N_12
REMARK    9  A    between atoms: C_14  and  O_15
REMARK   10  A    between atoms: O_15  and  C_16
REMARK                            x       y       z     vdW  Elec       q    Type
REMARK                         _______ _______ _______ _____ _____    ______ ____
ROOT
ATOM      1  C   UNL     1       2.783   4.044  18.127  0.00  0.00    +0.000 A 
ATOM      2  C   UNL     1       3.560   3.790  16.979  0.00  0.00    +0.000 A 
ATOM      3  C   UNL     1       4.957   3.988  16.948  0.00  0.00    +0.000 A 
ATOM      4  C   UNL     1       5.597   4.453  18.119  0.00  0.00    +0.000 A 
ATOM      5  C   UNL     1       4.820   4.727  19.259  0.00  0.00    +0.000 A 
ATOM      6  C   UNL     1       3.436   4.532  19.297  0.00  0.00    +0.000 A 
ENDROOT
BRANCH   1   8
ATOM      7  C   UNL     1       0.962   2.413  18.689  0.00  0.00    +0.000 C 
ATOM      8  C   UNL     1       1.302   3.736  18.003  0.00  0.00    +0.000 C 
ENDBRANCH   1   8
BRANCH   3   9
ATOM      9  O   UNL     1       5.690   3.745  15.821  0.00  0.00    +0.000 OA
ATOM     10  C   UNL     1       5.658   4.422  14.607  0.00  0.00    +0.000 C 
ENDBRANCH   3   9
BRANCH   6  11
ATOM     11  O   UNL     1       2.853   4.843  20.490  0.00  0.00    +0.000 OA
ATOM     12  C   UNL     1       2.401   4.044  21.516  0.00  0.00    +0.000 C 
ENDBRANCH   6  11
BRANCH   4  13
ATOM     13  C   UNL     1       7.096   4.699  18.196  0.00  0.00    +0.000 C 
BRANCH  13  14
ATOM     14  C   UNL     1       7.477   5.845  19.179  0.00  0.00    +0.000 C 
ATOM     15  C   UNL     1       8.014   7.069  18.429  0.00  0.00    +0.000 C 
BRANCH  14  16
ATOM     16  N   UNL     1       8.465   5.407  20.167  0.00  0.00    +0.000 NA
ATOM     17  H   UNL     1       9.207   6.135  20.283  0.00  0.00    +0.000 HD
ATOM     18  H   UNL     1       8.909   4.511  19.860  0.00  0.00    +0.000 HD
ENDBRANCH  14  16
ENDBRANCH  13  14
ENDBRANCH   4  13
TORSDOF 6
ENDMDL
MODEL 6
REMARK VINA RESULT:      -6.1      2.669      4.787
REMARK  Name = 
REMARK  10 active torsions:
REMARK  status: ('A' for Active; 'I' for Inactive)
REMARK    1  A    between atoms: C_1  and  C_2
REMARK    2  A    between atoms: C_2  and  C_3
REMARK    3  A    between atoms: C_5  and  O_6
REMARK    4  A    between atoms: O_6  and  C_7
REMARK    5  A    between atoms: C_8  and  C_9
REMARK    6  A    between atoms: C_9  and  C_10
REMARK    7  A    between atoms: C_10  and  C_11
REMARK    8  A    between atoms: C_10  and  N_12
REMARK    9  A    between atoms: C_14  and  O_15
REMARK   10  A    between atoms: O_15  and  C_16
REMARK                            x       y       z     vdW  Elec       q    Type
REMARK                         _______ _______ _______ _____ _____    ______ ____
ROOT
ATOM      1  C   UNL     1       5.975   4.775  17.785  0.00  0.00    +0.000 A 
ATOM      2  C   UNL     1       5.171   5.305  18.813  0.00  0.00    +0.000 A 
ATOM      3  C   UNL     1       3.770   5.134  18.849  0.00  0.00    +0.000 A 
ATOM      4  C   UNL     1       3.157   4.395  17.811  0.00  0.00    +0.000 A 
ATOM      5  C   UNL     1       3.956   3.882  16.774  0.00  0.00    +0.000 A 
ATOM      6  C   UNL     1       5.343   4.047  16.733  0.00  0.00    +0.000 A 
ENDROOT
BRANCH   1   8
ATOM      7  C   UNL     1       7.772   5.841  19.172  0.00  0.00    +0.000 C 
ATOM      8  C   UNL     1       7.467   5.014  17.924  0.00  0.00    +0.000 C 
ENDBRANCH   1   8
BRANCH   3   9
ATOM      9  O   UNL     1       3.008   5.665  19.851  0.00  0.00    +0.000 OA
ATOM     10  C   UNL     1       2.339   6.884  19.873  0.00  0.00    +0.000 C 
ENDBRANCH   3   9
BRANCH   6  11
ATOM     11  O   UNL     1       5.951   3.474  15.655  0.00  0.00    +0.000 OA
ATOM     12  C   UNL     1       6.282   3.986  14.421  0.00  0.00    +0.000 C 
ENDBRANCH   6  11
BRANCH   4  13
ATOM     13  C   UNL     1       1.657   4.149  17.752  0.00  0.00    +0.000 C 
BRANCH  13  14
ATOM     14  C   UNL     1       1.221   2.852  18.495  0.00  0.00    +0.000 C 
ATOM     15  C   UNL     1       0.943   3.124  19.977  0.00  0.00    +0.000 C 
BRANCH  14  16
ATOM     16  N   UNL     1       2.226   1.794  18.375  0.00  0.00    +0.000 NA
ATOM     17  H   UNL     1       3.153   2.203  18.113  0.00  0.00    +0.000 HD
ATOM     18  H   UNL     1       1.937   1.103  17.645  0.00  0.00    +0.000 HD
ENDBRANCH  14  16
ENDBRANCH  13  14
ENDBRANCH   4  13
TORSDOF 6
ENDMDL
MODEL 7
REMARK VINA RESULT:      -6.0      2.577      5.065
REMARK  Name = 
REMARK  10 active torsions:
REMARK  status: ('A' for Active; 'I' for Inactive)
REMARK    1  A    between atoms: C_1  and  C_2
REMARK    2  A    between atoms: C_2  and  C_3
REMARK    3  A    between atoms: C_5  and  O_6
REMARK    4  A    between atoms: O_6  and  C_7
REMARK    5  A    between atoms: C_8  and  C_9
REMARK    6  A    between atoms: C_9  and  C_10
REMARK    7  A    between atoms: C_10  and  C_11
REMARK    8  A    between atoms: C_10  and  N_12
REMARK    9  A    between atoms: C_14  and  O_15
REMARK   10  A    between atoms: O_15  and  C_16
REMARK                            x       y       z     vdW  Elec       q    Type
REMARK                         _______ _______ _______ _____ _____    ______ ____
ROOT
ATOM      1  C   UNL     1       6.453   5.539  18.056  0.00  0.00    +0.000 A 
ATOM      2  C   UNL     1       5.443   5.448  19.034  0.00  0.00    +0.000 A 
ATOM      3  C   UNL     1       4.223   4.776  18.806  0.00  0.00    +0.000 A 
ATOM      4  C   UNL     1       4.015   4.168  17.548  0.00  0.00    +0.000 A 
ATOM      5  C   UNL     1       5.014   4.275  16.564  0.00  0.00    +0.000 A 
ATOM      6  C   UNL     1       6.225   4.938  16.783  0.00  0.00    +0.000 A 
ENDROOT
BRANCH   1   8
ATOM      7  C   UNL     1       7.814   7.633  17.818  0.00  0.00    +0.000 C 
ATOM      8  C   UNL     1       7.720   6.258  18.481  0.00  0.00    +0.000 C 
ENDBRANCH   1   8
BRANCH   3   9
ATOM      9  O   UNL     1       3.253   4.708  19.766  0.00  0.00    +0.000 OA
ATOM     10  C   UNL     1       2.251   5.630  20.048  0.00  0.00    +0.000 C 
ENDBRANCH   3   9
BRANCH   6  11
ATOM     11  O   UNL     1       7.075   4.933  15.716  0.00  0.00    +0.000 OA
ATOM     12  C   UNL     1       6.851   4.707  14.377  0.00  0.00    +0.000 C 
ENDBRANCH   6  11
BRANCH   4  13
ATOM     13  C   UNL     1       2.739   3.418  17.196  0.00  0.00    +0.000 C 
BRANCH  13  14
ATOM     14  C   UNL     1       2.635   2.029  17.892  0.00  0.00    +0.000 C 
ATOM     15  C   UNL     1       1.530   2.017  18.954  0.00  0.00    +0.000 C 
BRANCH  14  16
ATOM     16  N   UNL     1       3.905   1.634  18.507  0.00  0.00    +0.000 NA
ATOM     17  H   UNL     1       4.228   0.720  18.113  0.00  0.00    +0.000 HD
ATOM     18  H   UNL     1       3.791   1.541  19.542  0.00  0.00    +0.000 HD
ENDBRANCH  14  16
ENDBRANCH  13  14
ENDBRANCH   4  13
TORSDOF 6
ENDMDL
MODEL 8
REMARK VINA RESULT:      -5.9      2.577      4.901
REMARK  Name = 
REMARK  10 active torsions:
REMARK  status: ('A' for Active; 'I' for Inactive)
REMARK    1  A    between atoms: C_1  and  C_2
REMARK    2  A    between atoms: C_2  and  C_3
REMARK    3  A    between atoms: C_5  and  O_6
REMARK    4  A    between atoms: O_6  and  C_7
REMARK    5  A    between atoms: C_8  and  C_9
REMARK    6  A    between atoms: C_9  and  C_10
REMARK    7  A    between atoms: C_10  and  C_11
REMARK    8  A    between atoms: C_10  and  N_12
REMARK    9  A    between atoms: C_14  and  O_15
REMARK   10  A    between atoms: O_15  and  C_16
REMARK                            x       y       z     vdW  Elec       q    Type
REMARK                         _______ _______ _______ _____ _____    ______ ____
ROOT
ATOM      1  C   UNL     1       5.782   5.698  17.108  0.00  0.00    +0.000 A 
ATOM      2  C   UNL     1       4.918   6.410  17.964  0.00  0.00    +0.000 A 
ATOM      3  C   UNL     1       3.595   5.995  18.226  0.00  0.00    +0.000 A 
ATOM      4  C   UNL     1       3.126   4.814  17.606  0.00  0.00    +0.000 A 
ATOM      5  C   UNL     1       3.980   4.114  16.736  0.00  0.00    +0.000 A 
ATOM      6  C   UNL     1       5.292   4.519  16.473  0.00  0.00    +0.000 A 
ENDROOT
BRANCH   1   8
ATOM      7  C   UNL     1       7.751   6.649  18.337  0.00  0.00    +0.000 C 
ATOM      8  C   UNL     1       7.186   6.259  16.972  0.00  0.00    +0.000 C 
ENDBRANCH   1   8
BRANCH   3   9
ATOM      9  O   UNL     1       2.771   6.706  19.052  0.00  0.00    +0.000 OA
ATOM     10  C   UNL     1       2.188   7.948  18.829  0.00  0.00    +0.000 C 
ENDBRANCH   3   9
BRANCH   6  11
ATOM     11  O   UNL     1       5.973   3.711  15.610  0.00  0.00    +0.000 OA
ATOM     12  C   UNL     1       6.307   3.875  14.285  0.00  0.00    +0.000 C 
ENDBRANCH   6  11
BRANCH   4  13
ATOM     13  C   UNL     1       1.719   4.275  17.819  0.00  0.00    +0.000 C 
BRANCH  13  14
ATOM     14  C   UNL     1       1.567   3.473  19.145  0.00  0.00    +0.000 C 
ATOM     15  C   UNL     1       0.691   2.231  18.949  0.00  0.00    +0.000 C 
BRANCH  14  16
ATOM     16  N   UNL     1       1.008   4.299  20.217  0.00  0.00    +0.000 NA
ATOM     17  H   UNL     1       1.458   5.243  20.218  0.00  0.00    +0.000 HD
ATOM     18  H   UNL     1       1.166   3.842  21.144  0.00  0.00    +0.000 HD
ENDBRANCH  14  16
ENDBRANCH  13  14
ENDBRANCH   4  13
TORSDOF 6
ENDMDL
MODEL 9
REMARK VINA RESULT:      -5.9      2.701      5.535
REMARK  Name = 
REMARK  10 active torsions:
REMARK  status: ('A' for Active; 'I' for Inactive)
REMARK    1  A    between atoms: C_1  and  C_2
REMARK    2  A    between atoms: C_2  and  C_3
REMARK    3  A    between atoms: C_5  and  O_6
REMARK    4  A    between atoms: O_6  and  C_7
REMARK    5  A    between atoms: C_8  and  C_9
REMARK    6  A    between atoms: C_9  and  C_10
REMARK    7  A    between atoms: C_10  and  C_11
REMARK    8  A    between atoms: C_10  and  N_12
REMARK    9  A    between atoms: C_14  and  O_15
REMARK   10  A    between atoms: O_15  and  C_16
REMARK                            x       y       z     vdW  Elec       q    Type
REMARK                         _______ _______ _______ _____ _____    ______ ____
ROOT
ATOM      1  C   UNL     1       6.135   4.908  15.916  0.00  0.00    +0.000 A 
ATOM      2  C   UNL     1       5.104   4.004  16.239  0.00  0.00    +0.000 A 
ATOM      3  C   UNL     1       4.339   4.114  17.420  0.00  0.00    +0.000 A 
ATOM      4  C   UNL     1       4.620   5.179  18.306  0.00  0.00    +0.000 A 
ATOM      5  C   UNL     1       5.662   6.070  17.994  0.00  0.00    +0.000 A 
ATOM      6  C   UNL     1       6.423   5.967  16.826  0.00  0.00    +0.000 A 
ENDROOT
BRANCH   1   8
ATOM      7  C   UNL     1       5.936   3.863  13.644  0.00  0.00    +0.000 C 
ATOM      8  C   UNL     1       6.828   4.670  14.587  0.00  0.00    +0.000 C 
ENDBRANCH   1   8
BRANCH   3   9
ATOM      9  O   UNL     1       3.349   3.221  17.719  0.00  0.00    +0.000 OA
ATOM     10  C   UNL     1       3.466   1.864  17.999  0.00  0.00    +0.000 C 
ENDBRANCH   3   9
BRANCH   6  11
ATOM     11  O   UNL     1       7.385   6.924  16.690  0.00  0.00    +0.000 OA
ATOM     12  C   UNL     1       7.835   7.890  17.561  0.00  0.00    +0.000 C 
ENDBRANCH   6  11
BRANCH   4  13
ATOM     13  C   UNL     1       3.857   5.393  19.605  0.00  0.00    +0.000 C 
BRANCH  13  14
ATOM     14  C   UNL     1       2.471   6.072  19.395  0.00  0.00    +0.000 C 
ATOM     15  C   UNL     1       2.570   7.256  18.427  0.00  0.00    +0.000 C 
BRANCH  14  16
ATOM     16  N   UNL     1       1.891   6.524  20.661  0.00  0.00    +0.000 NA
ATOM     17  H   UNL     1       1.297   5.770  21.076  0.00  0.00    +0.000 HD
ATOM     18  H   UNL     1       1.305   7.376  20.505  0.00  0.00    +0.000 HD
ENDBRANCH  14  16
ENDBRANCH  13  14
ENDBRANCH   4  13
TORSDOF 6
ENDMDL
