MODEL 1
REMARK VINA RESULT:      -7.0      0.000      0.000
REMARK  Name = 
REMARK  1 active torsions:
REMARK  status: ('A' for Active; 'I' for Inactive)
REMARK    1  A    between atoms: C_6  and  C_7
REMARK                            x       y       z     vdW  Elec       q    Type
REMARK                         _______ _______ _______ _____ _____    ______ ____
ROOT
ATOM      1  C   UNL     1       1.124   3.575  18.756  0.00  0.00    +0.000 A 
ATOM      2  C   UNL     1       1.689   2.738  19.721  0.00  0.00    +0.000 A 
ATOM      3  C   UNL     1       3.074   2.569  19.818  0.00  0.00    +0.000 A 
ATOM      4  C   UNL     1       3.857   3.278  18.904  0.00  0.00    +0.000 A 
ATOM      5  N   UNL     1       5.210   3.362  18.718  0.00  0.00    +0.000 N 
ATOM      6  C   UNL     1       5.452   4.195  17.651  0.00  0.00    +0.000 A 
ATOM      7  N   UNL     1       4.320   4.676  17.169  0.00  0.00    +0.000 NA
ATOM      8  C   UNL     1       3.325   4.116  17.932  0.00  0.00    +0.000 A 
ATOM      9  C   UNL     1       1.933   4.273  17.849  0.00  0.00    +0.000 A 
ATOM     10  H   UNL     1       5.912   2.876  19.258  0.00  0.00    +0.000 HD
ENDROOT
BRANCH   6  11
ATOM     11  C   UNL     1       6.845   4.488  17.159  0.00  0.00    +0.000 C 
ATOM     12  C   UNL     1       7.005   5.906  16.633  0.00  0.00    +0.000 C 
ATOM     13  C   UNL     1       7.184   6.730  17.895  0.00  0.00    +0.000 C 
ATOM     14  C   UNL     1       7.849   5.774  18.876  0.00  0.00    +0.000 C 
ATOM     15  N   UNL     1       7.830   4.444  18.253  0.00  0.00    +0.000 NA
ATOM     16  H   UNL     1       7.493   3.763  18.941  0.00  0.00    +0.000 HD
ENDBRANCH   6  11
TORSDOF 1
ENDMDL
MODEL 2
REMARK VINA RESULT:      -6.8      1.173      1.393
REMARK  Name = 
REMARK  1 active torsions:
REMARK  status: ('A' for Active; 'I' for Inactive)
REMARK    1  A    between atoms: C_6  and  C_7
REMARK                            x       y       z     vdW  Elec       q    Type
REMARK                         _______ _______ _______ _____ _____    ______ ____
ROOT
ATOM      1  C   UNL     1       1.083   3.471  20.515  0.00  0.00    +0.000 A 
ATOM      2  C   UNL     1       2.048   2.751  21.223  0.00  0.00    +0.000 A 
ATOM      3  C   UNL     1       3.343   2.580  20.722  0.00  0.00    +0.000 A 
ATOM      4  C   UNL     1       3.616   3.166  19.484  0.00  0.00    +0.000 A 
ATOM      5  N   UNL     1       4.748   3.212  18.716  0.00  0.00    +0.000 N 
ATOM      6  C   UNL     1       4.464   3.907  17.564  0.00  0.00    +0.000 A 
ATOM      7  N   UNL     1       3.215   4.338  17.575  0.00  0.00    +0.000 NA
ATOM      8  C   UNL     1       2.677   3.885  18.755  0.00  0.00    +0.000 A 
ATOM      9  C   UNL     1       1.384   4.045  19.272  0.00  0.00    +0.000 A 
ATOM     10  H   UNL     1       5.635   2.788  18.945  0.00  0.00    +0.000 HD
ENDROOT
BRANCH   6  11
ATOM     11  C   UNL     1       5.489   4.124  16.482  0.00  0.00    +0.000 C 
ATOM     12  C   UNL     1       5.345   5.470  15.786  0.00  0.00    +0.000 C 
ATOM     13  C   UNL     1       6.024   6.433  16.742  0.00  0.00    +0.000 C 
ATOM     14  C   UNL     1       7.089   5.590  17.431  0.00  0.00    +0.000 C 
ATOM     15  N   UNL     1       6.854   4.197  17.030  0.00  0.00    +0.000 NA
ATOM     16  H   UNL     1       6.879   3.605  17.866  0.00  0.00    +0.000 HD
ENDBRANCH   6  11
TORSDOF 1
ENDMDL
MODEL 3
REMARK VINA RESULT:      -6.8      1.154      5.021
REMARK  Name = 
REMARK  1 active torsions:
REMARK  status: ('A' for Active; 'I' for Inactive)
REMARK    1  A    between atoms: C_6  and  C_7
REMARK                            x       y       z     vdW  Elec       q    Type
REMARK                         _______ _______ _______ _____ _____    ______ ____
ROOT
ATOM      1  C   UNL     1       7.268   7.366  17.443  0.00  0.00    +0.000 A 
ATOM      2  C   UNL     1       7.943   6.736  18.492  0.00  0.00    +0.000 A 
ATOM      3  C   UNL     1       7.488   5.527  19.029  0.00  0.00    +0.000 A 
ATOM      4  C   UNL     1       6.330   4.988  18.462  0.00  0.00    +0.000 A 
ATOM      5  N   UNL     1       5.625   3.843  18.721  0.00  0.00    +0.000 N 
ATOM      6  C   UNL     1       4.539   3.803  17.878  0.00  0.00    +0.000 A 
ATOM      7  N   UNL     1       4.536   4.848  17.070  0.00  0.00    +0.000 NA
ATOM      8  C   UNL     1       5.637   5.591  17.421  0.00  0.00    +0.000 A 
ATOM      9  C   UNL     1       6.107   6.804  16.896  0.00  0.00    +0.000 A 
ATOM     10  H   UNL     1       5.850   3.157  19.425  0.00  0.00    +0.000 HD
ENDROOT
BRANCH   6  11
ATOM     11  C   UNL     1       3.534   2.682  17.914  0.00  0.00    +0.000 C 
ATOM     12  C   UNL     1       3.045   2.365  19.320  0.00  0.00    +0.000 C 
ATOM     13  C   UNL     1       1.995   3.431  19.574  0.00  0.00    +0.000 C 
ATOM     14  C   UNL     1       1.435   3.742  18.192  0.00  0.00    +0.000 C 
ATOM     15  N   UNL     1       2.287   3.044  17.220  0.00  0.00    +0.000 NA
ATOM     16  H   UNL     1       2.534   3.697  16.470  0.00  0.00    +0.000 HD
ENDBRANCH   6  11
TORSDOF 1
ENDMDL
MODEL 4
REMARK VINA RESULT:      -6.7      0.715      1.697
REMARK  Name = 
REMARK  1 active torsions:
REMARK  status: ('A' for Active; 'I' for Inactive)
REMARK    1  A    between atoms: C_6  and  C_7
REMARK                            x       y       z     vdW  Elec       q    Type
REMARK                         _______ _______ _______ _____ _____    ______ ____
ROOT
ATOM      1  C   UNL     1       1.640   2.965  20.786  0.00  0.00    +0.000 A 
ATOM      2  C   UNL     1       0.887   3.534  19.755  0.00  0.00    +0.000 A 
ATOM      3  C   UNL     1       1.497   4.051  18.607  0.00  0.00    +0.000 A 
ATOM      4  C   UNL     1       2.891   3.967  18.548  0.00  0.00    +0.000 A 
ATOM      5  N   UNL     1       3.797   4.350  17.597  0.00  0.00    +0.000 N 
ATOM      6  C   UNL     1       5.059   4.053  18.056  0.00  0.00    +0.000 A 
ATOM      7  N   UNL     1       5.000   3.468  19.239  0.00  0.00    +0.000 NA
ATOM      8  C   UNL     1       3.666   3.410  19.557  0.00  0.00    +0.000 A 
ATOM      9  C   UNL     1       3.037   2.898  20.701  0.00  0.00    +0.000 A 
ATOM     10  H   UNL     1       3.579   4.795  16.718  0.00  0.00    +0.000 HD
ENDROOT
BRANCH   6  11
ATOM     11  C   UNL     1       6.299   4.368  17.260  0.00  0.00    +0.000 C 
ATOM     12  C   UNL     1       6.286   5.770  16.668  0.00  0.00    +0.000 C 
ATOM     13  C   UNL     1       6.707   6.646  17.833  0.00  0.00    +0.000 C 
ATOM     14  C   UNL     1       7.606   5.749  18.672  0.00  0.00    +0.000 C 
ATOM     15  N   UNL     1       7.500   4.396  18.111  0.00  0.00    +0.000 NA
ATOM     16  H   UNL     1       7.348   3.732  18.876  0.00  0.00    +0.000 HD
ENDBRANCH   6  11
TORSDOF 1
ENDMDL
MODEL 5
REMARK VINA RESULT:      -6.7      2.095      5.133
REMARK  Name = 
REMARK  1 active torsions:
REMARK  status: ('A' for Active; 'I' for Inactive)
REMARK    1  A    between atoms: C_6  and  C_7
REMARK                            x       y       z     vdW  Elec       q    Type
REMARK                         _______ _______ _______ _____ _____    ______ ____
ROOT
ATOM      1  C   UNL     1       5.295   6.545  15.855  0.00  0.00    +0.000 A 
ATOM      2  C   UNL     1       5.747   5.430  15.145  0.00  0.00    +0.000 A 
ATOM      3  C   UNL     1       5.472   4.129  15.580  0.00  0.00    +0.000 A 
ATOM      4  C   UNL     1       4.726   4.008  16.755  0.00  0.00    +0.000 A 
ATOM      5  N   UNL     1       4.272   2.919  17.450  0.00  0.00    +0.000 N 
ATOM      6  C   UNL     1       3.600   3.365  18.564  0.00  0.00    +0.000 A 
ATOM      7  N   UNL     1       3.571   4.685  18.595  0.00  0.00    +0.000 NA
ATOM      8  C   UNL     1       4.266   5.097  17.484  0.00  0.00    +0.000 A 
ATOM      9  C   UNL     1       4.552   6.394  17.033  0.00  0.00    +0.000 A 
ATOM     10  H   UNL     1       4.425   1.953  17.201  0.00  0.00    +0.000 HD
ENDROOT
BRANCH   6  11
ATOM     11  C   UNL     1       2.989   2.420  19.566  0.00  0.00    +0.000 C 
ATOM     12  C   UNL     1       2.216   3.135  20.664  0.00  0.00    +0.000 C 
ATOM     13  C   UNL     1       0.881   3.442  20.010  0.00  0.00    +0.000 C 
ATOM     14  C   UNL     1       0.692   2.319  18.999  0.00  0.00    +0.000 C 
ATOM     15  N   UNL     1       1.955   1.570  18.953  0.00  0.00    +0.000 NA
ATOM     16  H   UNL     1       2.217   1.427  17.973  0.00  0.00    +0.000 HD
ENDBRANCH   6  11
TORSDOF 1
ENDMDL
MODEL 6
REMARK VINA RESULT:      -6.6      1.509      1.883
REMARK  Name = 
REMARK  1 active torsions:
REMARK  status: ('A' for Active; 'I' for Inactive)
REMARK    1  A    between atoms: C_6  and  C_7
REMARK                            x       y       z     vdW  Elec       q    Type
REMARK                         _______ _______ _______ _____ _____    ______ ____
ROOT
ATOM      1  C   UNL     1       1.000   3.149  19.197  0.00  0.00    +0.000 A 
ATOM      2  C   UNL     1       1.325   3.630  20.468  0.00  0.00    +0.000 A 
ATOM      3  C   UNL     1       2.424   4.472  20.669  0.00  0.00    +0.000 A 
ATOM      4  C   UNL     1       3.174   4.802  19.537  0.00  0.00    +0.000 A 
ATOM      5  N   UNL     1       4.279   5.591  19.361  0.00  0.00    +0.000 N 
ATOM      6  C   UNL     1       4.630   5.557  18.032  0.00  0.00    +0.000 A 
ATOM      7  N   UNL     1       3.782   4.813  17.345  0.00  0.00    +0.000 NA
ATOM      8  C   UNL     1       2.877   4.338  18.262  0.00  0.00    +0.000 A 
ATOM      9  C   UNL     1       1.772   3.494  18.080  0.00  0.00    +0.000 A 
ATOM     10  H   UNL     1       4.767   6.094  20.087  0.00  0.00    +0.000 HD
ENDROOT
BRANCH   6  11
ATOM     11  C   UNL     1       5.825   6.301  17.497  0.00  0.00    +0.000 C 
ATOM     12  C   UNL     1       7.105   6.004  18.264  0.00  0.00    +0.000 C 
ATOM     13  C   UNL     1       7.562   4.678  17.684  0.00  0.00    +0.000 C 
ATOM     14  C   UNL     1       7.045   4.698  16.252  0.00  0.00    +0.000 C 
ATOM     15  N   UNL     1       6.168   5.870  16.131  0.00  0.00    +0.000 NA
ATOM     16  H   UNL     1       5.298   5.585  15.673  0.00  0.00    +0.000 HD
ENDBRANCH   6  11
TORSDOF 1
ENDMDL
MODEL 7
REMARK VINA RESULT:      -6.6      1.294      5.049
REMARK  Name = 
REMARK  1 active torsions:
REMARK  status: ('A' for Active; 'I' for Inactive)
REMARK    1  A    between atoms: C_6  and  C_7
REMARK                            x       y       z     vdW  Elec       q    Type
REMARK                         _______ _______ _______ _____ _____    ______ ____
ROOT
ATOM      1  C   UNL     1       6.327   6.732  16.828  0.00  0.00    +0.000 A 
ATOM      2  C   UNL     1       7.236   6.451  17.851  0.00  0.00    +0.000 A 
ATOM      3  C   UNL     1       7.012   5.412  18.760  0.00  0.00    +0.000 A 
ATOM      4  C   UNL     1       5.837   4.675  18.590  0.00  0.00    +0.000 A 
ATOM      5  N   UNL     1       5.312   3.608  19.267  0.00  0.00    +0.000 N 
ATOM      6  C   UNL     1       4.106   3.279  18.693  0.00  0.00    +0.000 A 
ATOM      7  N   UNL     1       3.853   4.062  17.660  0.00  0.00    +0.000 NA
ATOM      8  C   UNL     1       4.913   4.932  17.585  0.00  0.00    +0.000 A 
ATOM      9  C   UNL     1       5.154   5.979  16.684  0.00  0.00    +0.000 A 
ATOM     10  H   UNL     1       5.728   3.153  20.067  0.00  0.00    +0.000 HD
ENDROOT
BRANCH   6  11
ATOM     11  C   UNL     1       3.247   2.157  19.214  0.00  0.00    +0.000 C 
ATOM     12  C   UNL     1       2.519   2.513  20.502  0.00  0.00    +0.000 C 
ATOM     13  C   UNL     1       1.326   3.318  20.019  0.00  0.00    +0.000 C 
ATOM     14  C   UNL     1       1.030   2.757  18.635  0.00  0.00    +0.000 C 
ATOM     15  N   UNL     1       2.136   1.851  18.297  0.00  0.00    +0.000 NA
ATOM     16  H   UNL     1       2.457   2.063  17.347  0.00  0.00    +0.000 HD
ENDBRANCH   6  11
TORSDOF 1
ENDMDL
MODEL 8
REMARK VINA RESULT:      -6.6      1.462      5.201
REMARK  Name = 
REMARK  1 active torsions:
REMARK  status: ('A' for Active; 'I' for Inactive)
REMARK    1  A    between atoms: C_6  and  C_7
REMARK                            x       y       z     vdW  Elec       q    Type
REMARK                         _______ _______ _______ _____ _____    ______ ____
ROOT
ATOM      1  C   UNL     1       7.044   5.920  16.896  0.00  0.00    +0.000 A 
ATOM      2  C   UNL     1       6.714   5.174  15.762  0.00  0.00    +0.000 A 
ATOM      3  C   UNL     1       5.788   4.127  15.823  0.00  0.00    +0.000 A 
ATOM      4  C   UNL     1       5.217   3.870  17.071  0.00  0.00    +0.000 A 
ATOM      5  N   UNL     1       4.289   2.954  17.489  0.00  0.00    +0.000 N 
ATOM      6  C   UNL     1       4.094   3.118  18.840  0.00  0.00    +0.000 A 
ATOM      7  N   UNL     1       4.825   4.119  19.299  0.00  0.00    +0.000 NA
ATOM      8  C   UNL     1       5.526   4.592  18.217  0.00  0.00    +0.000 A 
ATOM      9  C   UNL     1       6.457   5.638  18.137  0.00  0.00    +0.000 A 
ATOM     10  H   UNL     1       3.842   2.259  16.909  0.00  0.00    +0.000 HD
ENDROOT
BRANCH   6  11
ATOM     11  C   UNL     1       3.149   2.250  19.628  0.00  0.00    +0.000 C 
ATOM     12  C   UNL     1       2.353   3.026  20.667  0.00  0.00    +0.000 C 
ATOM     13  C   UNL     1       1.235   3.655  19.855  0.00  0.00    +0.000 C 
ATOM     14  C   UNL     1       1.007   2.677  18.711  0.00  0.00    +0.000 C 
ATOM     15  N   UNL     1       2.089   1.685  18.776  0.00  0.00    +0.000 NA
ATOM     16  H   UNL     1       2.483   1.565  17.837  0.00  0.00    +0.000 HD
ENDBRANCH   6  11
TORSDOF 1
ENDMDL
MODEL 9
REMARK VINA RESULT:      -6.6      1.138      5.261
REMARK  Name = 
REMARK  1 active torsions:
REMARK  status: ('A' for Active; 'I' for Inactive)
REMARK    1  A    between atoms: C_6  and  C_7
REMARK                            x       y       z     vdW  Elec       q    Type
REMARK                         _______ _______ _______ _____ _____    ______ ____
ROOT
ATOM      1  C   UNL     1       7.952   6.727  18.662  0.00  0.00    +0.000 A 
ATOM      2  C   UNL     1       7.435   7.268  17.483  0.00  0.00    +0.000 A 
ATOM      3  C   UNL     1       6.310   6.717  16.860  0.00  0.00    +0.000 A 
ATOM      4  C   UNL     1       5.736   5.603  17.478  0.00  0.00    +0.000 A 
ATOM      5  N   UNL     1       4.649   4.833  17.164  0.00  0.00    +0.000 N 
ATOM      6  C   UNL     1       4.536   3.836  18.105  0.00  0.00    +0.000 A 
ATOM      7  N   UNL     1       5.477   3.954  19.024  0.00  0.00    +0.000 NA
ATOM      8  C   UNL     1       6.229   5.041  18.649  0.00  0.00    +0.000 A 
ATOM      9  C   UNL     1       7.358   5.606  19.259  0.00  0.00    +0.000 A 
ATOM     10  H   UNL     1       4.045   4.960  16.365  0.00  0.00    +0.000 HD
ENDROOT
BRANCH   6  11
ATOM     11  C   UNL     1       3.453   2.792  18.044  0.00  0.00    +0.000 C 
ATOM     12  C   UNL     1       2.762   2.571  19.382  0.00  0.00    +0.000 C 
ATOM     13  C   UNL     1       1.772   3.718  19.459  0.00  0.00    +0.000 C 
ATOM     14  C   UNL     1       1.422   4.010  18.006  0.00  0.00    +0.000 C 
ATOM     15  N   UNL     1       2.338   3.213  17.179  0.00  0.00    +0.000 NA
ATOM     16  H   UNL     1       2.729   3.814  16.447  0.00  0.00    +0.000 HD
ENDBRANCH   6  11
TORSDOF 1
ENDMDL
