MODEL 1
REMARK VINA RESULT:      -7.2      0.000      0.000
REMARK  Name = 
REMARK  7 active torsions:
REMARK  status: ('A' for Active; 'I' for Inactive)
REMARK    1  A    between atoms: C_1  and  C_2
REMARK    2  A    between atoms: N_4  and  C_5
REMARK    3  A    between atoms: C_12  and  C_13
REMARK    4  A    between atoms: C_14  and  C_15
REMARK    5  A    between atoms: C_22  and  C_23
REMARK    6  A    between atoms: N_25  and  C_26
REMARK    7  A    between atoms: C_30  and  C_31
REMARK                            x       y       z     vdW  Elec       q    Type
REMARK                         _______ _______ _______ _____ _____    ______ ____
ROOT
ATOM      1  C   UNL     1       1.051  13.351  21.098  0.00  0.00    +0.000 A 
ATOM      2  N   UNL     1       2.296  12.931  20.868  0.00  0.00    +0.000 NA
ATOM      3  N   UNL     1       3.175  13.894  21.300  0.00  0.00    +0.000 NA
ATOM      4  C   UNL     1       2.466  14.822  21.843  0.00  0.00    +0.000 A 
ATOM      5  C   UNL     1       2.931  15.994  22.511  0.00  0.00    +0.000 A 
ATOM      6  N   UNL     1       2.098  16.839  23.054  0.00  0.00    +0.000 NA
ATOM      7  C   UNL     1       0.744  16.513  23.065  0.00  0.00    +0.000 A 
ATOM      8  C   UNL     1       0.212  15.394  22.512  0.00  0.00    +0.000 A 
ATOM      9  N   UNL     1       1.110  14.550  21.804  0.00  0.00    +0.000 N 
ENDROOT
BRANCH   1  16
ATOM     10  C   UNL     1      -0.736  11.157  22.752  0.00  0.00    +0.000 C 
ATOM     11  C   UNL     1      -0.881  11.561  21.321  0.00  0.00    +0.000 A 
ATOM     12  N   UNL     1      -1.853  11.060  20.524  0.00  0.00    +0.000 NA
ATOM     13  N   UNL     1      -1.636  11.639  19.291  0.00  0.00    +0.000 N 
ATOM     14  C   UNL     1      -0.660  12.617  19.369  0.00  0.00    +0.000 A 
ATOM     15  C   UNL     1      -0.294  13.563  18.274  0.00  0.00    +0.000 C 
ATOM     16  C   UNL     1      -0.110  12.524  20.638  0.00  0.00    +0.000 A 
BRANCH  13  17
ATOM     17  C   UNL     1      -2.353  11.179  18.120  0.00  0.00    +0.000 A 
ATOM     18  C   UNL     1      -1.778  10.228  17.262  0.00  0.00    +0.000 A 
ATOM     19  C   UNL     1      -2.451   9.828  16.092  0.00  0.00    +0.000 A 
ATOM     20  C   UNL     1      -3.679  10.392  15.765  0.00  0.00    +0.000 A 
ATOM     21  F   UNL     1      -4.287  10.055  14.619  0.00  0.00    +0.000 F 
ATOM     22  C   UNL     1      -4.270  11.325  16.604  0.00  0.00    +0.000 A 
ATOM     23  C   UNL     1      -3.612  11.711  17.780  0.00  0.00    +0.000 A 
ENDBRANCH  13  17
ENDBRANCH   1  16
BRANCH   8  24
ATOM     24  C   UNL     1      -1.174  14.918  22.849  0.00  0.00    +0.000 C 
ATOM     25  O   UNL     1      -1.296  14.573  24.034  0.00  0.00    +0.000 OA
ATOM     26  N   UNL     1      -2.232  14.813  21.971  0.00  0.00    +0.000 N 
ATOM     27  H   UNL     1      -2.174  15.244  21.057  0.00  0.00    +0.000 HD
BRANCH  26  28
ATOM     28  C   UNL     1      -3.450  14.064  22.265  0.00  0.00    +0.000 A 
ATOM     29  C   UNL     1      -3.785  13.563  23.532  0.00  0.00    +0.000 A 
ATOM     30  C   UNL     1      -4.940  12.815  23.716  0.00  0.00    +0.000 A 
ATOM     31  N   UNL     1      -5.777  12.490  22.719  0.00  0.00    +0.000 NA
ATOM     32  C   UNL     1      -5.459  12.933  21.473  0.00  0.00    +0.000 A 
ATOM     33  C   UNL     1      -4.328  13.744  21.223  0.00  0.00    +0.000 A 
BRANCH  32  34
ATOM     34  C   UNL     1      -6.318  12.444  20.314  0.00  0.00    +0.000 C 
ATOM     35  F   UNL     1      -7.661  12.451  20.564  0.00  0.00    +0.000 F 
ATOM     36  F   UNL     1      -6.147  13.175  19.177  0.00  0.00    +0.000 F 
ATOM     37  F   UNL     1      -6.018  11.156  19.971  0.00  0.00    +0.000 F 
ENDBRANCH  32  34
ENDBRANCH  26  28
ENDBRANCH   8  24
TORSDOF 5
ENDMDL
MODEL 2
REMARK VINA RESULT:      -7.2      2.711      5.069
REMARK  Name = 
REMARK  7 active torsions:
REMARK  status: ('A' for Active; 'I' for Inactive)
REMARK    1  A    between atoms: C_1  and  C_2
REMARK    2  A    between atoms: N_4  and  C_5
REMARK    3  A    between atoms: C_12  and  C_13
REMARK    4  A    between atoms: C_14  and  C_15
REMARK    5  A    between atoms: C_22  and  C_23
REMARK    6  A    between atoms: N_25  and  C_26
REMARK    7  A    between atoms: C_30  and  C_31
REMARK                            x       y       z     vdW  Elec       q    Type
REMARK                         _______ _______ _______ _____ _____    ______ ____
ROOT
ATOM      1  C   UNL     1      -1.507  14.862  23.612  0.00  0.00    +0.000 A 
ATOM      2  N   UNL     1      -1.140  14.909  24.894  0.00  0.00    +0.000 NA
ATOM      3  N   UNL     1      -2.109  15.573  25.607  0.00  0.00    +0.000 NA
ATOM      4  C   UNL     1      -3.058  15.839  24.778  0.00  0.00    +0.000 A 
ATOM      5  C   UNL     1      -4.317  16.447  25.064  0.00  0.00    +0.000 A 
ATOM      6  N   UNL     1      -5.210  16.624  24.129  0.00  0.00    +0.000 NA
ATOM      7  C   UNL     1      -4.951  16.102  22.864  0.00  0.00    +0.000 A 
ATOM      8  C   UNL     1      -3.813  15.455  22.511  0.00  0.00    +0.000 A 
ATOM      9  N   UNL     1      -2.791  15.390  23.497  0.00  0.00    +0.000 N 
ENDROOT
BRANCH   1  16
ATOM     10  C   UNL     1       0.785  16.308  21.769  0.00  0.00    +0.000 C 
ATOM     11  C   UNL     1       0.396  14.866  21.777  0.00  0.00    +0.000 A 
ATOM     12  N   UNL     1       1.018  13.945  21.006  0.00  0.00    +0.000 NA
ATOM     13  N   UNL     1       0.361  12.760  21.265  0.00  0.00    +0.000 N 
ATOM     14  C   UNL     1      -0.532  12.909  22.312  0.00  0.00    +0.000 A 
ATOM     15  C   UNL     1      -1.283  11.802  22.973  0.00  0.00    +0.000 C 
ATOM     16  C   UNL     1      -0.583  14.265  22.596  0.00  0.00    +0.000 A 
BRANCH  13  17
ATOM     17  C   UNL     1       0.609  11.583  20.459  0.00  0.00    +0.000 A 
ATOM     18  C   UNL     1       0.663  10.312  21.053  0.00  0.00    +0.000 A 
ATOM     19  C   UNL     1       0.964   9.178  20.277  0.00  0.00    +0.000 A 
ATOM     20  C   UNL     1       1.234   9.311  18.919  0.00  0.00    +0.000 A 
ATOM     21  F   UNL     1       1.582   8.237  18.197  0.00  0.00    +0.000 F 
ATOM     22  C   UNL     1       1.175  10.555  18.310  0.00  0.00    +0.000 A 
ATOM     23  C   UNL     1       0.856  11.685  19.076  0.00  0.00    +0.000 A 
ENDBRANCH  13  17
ENDBRANCH   1  16
BRANCH   8  24
ATOM     24  C   UNL     1      -3.723  14.617  21.266  0.00  0.00    +0.000 C 
ATOM     25  O   UNL     1      -3.029  15.136  20.378  0.00  0.00    +0.000 OA
ATOM     26  N   UNL     1      -4.355  13.410  21.054  0.00  0.00    +0.000 N 
ATOM     27  H   UNL     1      -4.781  12.919  21.830  0.00  0.00    +0.000 HD
BRANCH  26  28
ATOM     28  C   UNL     1      -4.490  12.793  19.737  0.00  0.00    +0.000 A 
ATOM     29  C   UNL     1      -5.618  12.927  18.913  0.00  0.00    +0.000 A 
ATOM     30  C   UNL     1      -5.688  12.264  17.694  0.00  0.00    +0.000 A 
ATOM     31  N   UNL     1      -4.729  11.440  17.245  0.00  0.00    +0.000 NA
ATOM     32  C   UNL     1      -3.639  11.264  18.040  0.00  0.00    +0.000 A 
ATOM     33  C   UNL     1      -3.478  11.948  19.267  0.00  0.00    +0.000 A 
BRANCH  32  34
ATOM     34  C   UNL     1      -2.620  10.217  17.612  0.00  0.00    +0.000 C 
ATOM     35  F   UNL     1      -1.941   9.635  18.644  0.00  0.00    +0.000 F 
ATOM     36  F   UNL     1      -3.173   9.191  16.906  0.00  0.00    +0.000 F 
ATOM     37  F   UNL     1      -1.660  10.747  16.798  0.00  0.00    +0.000 F 
ENDBRANCH  32  34
ENDBRANCH  26  28
ENDBRANCH   8  24
TORSDOF 5
ENDMDL
MODEL 3
REMARK VINA RESULT:      -7.1      1.409      2.004
REMARK  Name = 
REMARK  7 active torsions:
REMARK  status: ('A' for Active; 'I' for Inactive)
REMARK    1  A    between atoms: C_1  and  C_2
REMARK    2  A    between atoms: N_4  and  C_5
REMARK    3  A    between atoms: C_12  and  C_13
REMARK    4  A    between atoms: C_14  and  C_15
REMARK    5  A    between atoms: C_22  and  C_23
REMARK    6  A    between atoms: N_25  and  C_26
REMARK    7  A    between atoms: C_30  and  C_31
REMARK                            x       y       z     vdW  Elec       q    Type
REMARK                         _______ _______ _______ _____ _____    ______ ____
ROOT
ATOM      1  C   UNL     1       1.086  13.219  21.004  0.00  0.00    +0.000 A 
ATOM      2  N   UNL     1       2.396  12.965  20.965  0.00  0.00    +0.000 NA
ATOM      3  N   UNL     1       3.070  14.041  21.487  0.00  0.00    +0.000 NA
ATOM      4  C   UNL     1       2.176  14.874  21.894  0.00  0.00    +0.000 A 
ATOM      5  C   UNL     1       2.385  16.106  22.584  0.00  0.00    +0.000 A 
ATOM      6  N   UNL     1       1.380  16.840  22.976  0.00  0.00    +0.000 NA
ATOM      7  C   UNL     1       0.092  16.337  22.807  0.00  0.00    +0.000 A 
ATOM      8  C   UNL     1      -0.205  15.150  22.221  0.00  0.00    +0.000 A 
ATOM      9  N   UNL     1       0.887  14.424  21.673  0.00  0.00    +0.000 N 
ENDROOT
BRANCH   1  16
ATOM     10  C   UNL     1       0.161  10.273  22.105  0.00  0.00    +0.000 C 
ATOM     11  C   UNL     1      -0.278  10.960  20.854  0.00  0.00    +0.000 A 
ATOM     12  N   UNL     1      -1.193  10.419  20.016  0.00  0.00    +0.000 NA
ATOM     13  N   UNL     1      -1.303  11.321  18.977  0.00  0.00    +0.000 N 
ATOM     14  C   UNL     1      -0.606  12.484  19.257  0.00  0.00    +0.000 A 
ATOM     15  C   UNL     1      -0.646  13.734  18.443  0.00  0.00    +0.000 C 
ATOM     16  C   UNL     1       0.121  12.238  20.412  0.00  0.00    +0.000 A 
BRANCH  13  17
ATOM     17  C   UNL     1      -2.035  10.982  17.775  0.00  0.00    +0.000 A 
ATOM     18  C   UNL     1      -3.243  11.631  17.471  0.00  0.00    +0.000 A 
ATOM     19  C   UNL     1      -3.982  11.257  16.333  0.00  0.00    +0.000 A 
ATOM     20  C   UNL     1      -3.534  10.225  15.516  0.00  0.00    +0.000 A 
ATOM     21  F   UNL     1      -4.272   9.830  14.469  0.00  0.00    +0.000 F 
ATOM     22  C   UNL     1      -2.339   9.579  15.792  0.00  0.00    +0.000 A 
ATOM     23  C   UNL     1      -1.589   9.961  16.913  0.00  0.00    +0.000 A 
ENDBRANCH  13  17
ENDBRANCH   1  16
BRANCH   8  24
ATOM     24  C   UNL     1      -1.552  14.499  22.374  0.00  0.00    +0.000 C 
ATOM     25  O   UNL     1      -1.618  13.743  23.355  0.00  0.00    +0.000 OA
ATOM     26  N   UNL     1      -2.628  14.651  21.525  0.00  0.00    +0.000 N 
ATOM     27  H   UNL     1      -2.622  15.384  20.829  0.00  0.00    +0.000 HD
BRANCH  26  28
ATOM     28  C   UNL     1      -3.793  13.771  21.539  0.00  0.00    +0.000 A 
ATOM     29  C   UNL     1      -4.320  13.138  20.402  0.00  0.00    +0.000 A 
ATOM     30  C   UNL     1      -5.464  12.356  20.493  0.00  0.00    +0.000 A 
ATOM     31  N   UNL     1      -6.154  12.185  21.630  0.00  0.00    +0.000 NA
ATOM     32  C   UNL     1      -5.686  12.815  22.741  0.00  0.00    +0.000 A 
ATOM     33  C   UNL     1      -4.498  13.582  22.733  0.00  0.00    +0.000 A 
BRANCH  32  34
ATOM     34  C   UNL     1      -6.544  12.751  23.998  0.00  0.00    +0.000 C 
ATOM     35  F   UNL     1      -5.911  12.222  25.087  0.00  0.00    +0.000 F 
ATOM     36  F   UNL     1      -7.004  13.971  24.392  0.00  0.00    +0.000 F 
ATOM     37  F   UNL     1      -7.656  11.980  23.814  0.00  0.00    +0.000 F 
ENDBRANCH  32  34
ENDBRANCH  26  28
ENDBRANCH   8  24
TORSDOF 5
ENDMDL
MODEL 4
REMARK VINA RESULT:      -7.1      2.750      4.860
REMARK  Name = 
REMARK  7 active torsions:
REMARK  status: ('A' for Active; 'I' for Inactive)
REMARK    1  A    between atoms: C_1  and  C_2
REMARK    2  A    between atoms: N_4  and  C_5
REMARK    3  A    between atoms: C_12  and  C_13
REMARK    4  A    between atoms: C_14  and  C_15
REMARK    5  A    between atoms: C_22  and  C_23
REMARK    6  A    between atoms: N_25  and  C_26
REMARK    7  A    between atoms: C_30  and  C_31
REMARK                            x       y       z     vdW  Elec       q    Type
REMARK                         _______ _______ _______ _____ _____    ______ ____
ROOT
ATOM      1  C   UNL     1      -2.123  15.451  22.823  0.00  0.00    +0.000 A 
ATOM      2  N   UNL     1      -1.386  15.661  23.915  0.00  0.00    +0.000 NA
ATOM      3  N   UNL     1      -2.170  16.265  24.868  0.00  0.00    +0.000 NA
ATOM      4  C   UNL     1      -3.358  16.335  24.376  0.00  0.00    +0.000 A 
ATOM      5  C   UNL     1      -4.540  16.808  25.022  0.00  0.00    +0.000 A 
ATOM      6  N   UNL     1      -5.695  16.788  24.416  0.00  0.00    +0.000 NA
ATOM      7  C   UNL     1      -5.770  16.187  23.162  0.00  0.00    +0.000 A 
ATOM      8  C   UNL     1      -4.717  15.654  22.494  0.00  0.00    +0.000 A 
ATOM      9  N   UNL     1      -3.441  15.805  23.101  0.00  0.00    +0.000 N 
ENDROOT
BRANCH   1  16
ATOM     10  C   UNL     1      -1.618  16.836  19.895  0.00  0.00    +0.000 C 
ATOM     11  C   UNL     1      -1.274  15.446  20.320  0.00  0.00    +0.000 A 
ATOM     12  N   UNL     1      -0.641  14.575  19.499  0.00  0.00    +0.000 NA
ATOM     13  N   UNL     1      -0.536  13.409  20.229  0.00  0.00    +0.000 N 
ATOM     14  C   UNL     1      -0.934  13.609  21.539  0.00  0.00    +0.000 A 
ATOM     15  C   UNL     1      -0.790  12.620  22.647  0.00  0.00    +0.000 C 
ATOM     16  C   UNL     1      -1.485  14.880  21.594  0.00  0.00    +0.000 A 
BRANCH  13  17
ATOM     17  C   UNL     1      -0.102  12.179  19.602  0.00  0.00    +0.000 A 
ATOM     18  C   UNL     1       1.214  12.045  19.132  0.00  0.00    +0.000 A 
ATOM     19  C   UNL     1       1.616  10.870  18.469  0.00  0.00    +0.000 A 
ATOM     20  C   UNL     1       0.703   9.843  18.252  0.00  0.00    +0.000 A 
ATOM     21  F   UNL     1       1.073   8.753  17.565  0.00  0.00    +0.000 F 
ATOM     22  C   UNL     1      -0.598   9.950  18.717  0.00  0.00    +0.000 A 
ATOM     23  C   UNL     1      -0.997  11.110  19.396  0.00  0.00    +0.000 A 
ENDBRANCH  13  17
ENDBRANCH   1  16
BRANCH   8  24
ATOM     24  C   UNL     1      -4.900  14.721  21.329  0.00  0.00    +0.000 C 
ATOM     25  O   UNL     1      -5.070  15.313  20.252  0.00  0.00    +0.000 OA
ATOM     26  N   UNL     1      -4.927  13.343  21.389  0.00  0.00    +0.000 N 
ATOM     27  H   UNL     1      -4.629  12.868  22.231  0.00  0.00    +0.000 HD
BRANCH  26  28
ATOM     28  C   UNL     1      -5.411  12.500  20.300  0.00  0.00    +0.000 A 
ATOM     29  C   UNL     1      -6.666  11.873  20.282  0.00  0.00    +0.000 A 
ATOM     30  C   UNL     1      -7.030  11.044  19.228  0.00  0.00    +0.000 A 
ATOM     31  N   UNL     1      -6.218  10.757  18.200  0.00  0.00    +0.000 NA
ATOM     32  C   UNL     1      -4.981  11.323  18.209  0.00  0.00    +0.000 A 
ATOM     33  C   UNL     1      -4.565  12.218  19.221  0.00  0.00    +0.000 A 
BRANCH  32  34
ATOM     34  C   UNL     1      -4.001  10.884  17.129  0.00  0.00    +0.000 C 
ATOM     35  F   UNL     1      -4.541  10.796  15.878  0.00  0.00    +0.000 F 
ATOM     36  F   UNL     1      -2.928  11.716  17.012  0.00  0.00    +0.000 F 
ATOM     37  F   UNL     1      -3.481   9.648  17.389  0.00  0.00    +0.000 F 
ENDBRANCH  32  34
ENDBRANCH  26  28
ENDBRANCH   8  24
TORSDOF 5
ENDMDL
MODEL 5
REMARK VINA RESULT:      -7.1      2.086      5.125
REMARK  Name = 
REMARK  7 active torsions:
REMARK  status: ('A' for Active; 'I' for Inactive)
REMARK    1  A    between atoms: C_1  and  C_2
REMARK    2  A    between atoms: N_4  and  C_5
REMARK    3  A    between atoms: C_12  and  C_13
REMARK    4  A    between atoms: C_14  and  C_15
REMARK    5  A    between atoms: C_22  and  C_23
REMARK    6  A    between atoms: N_25  and  C_26
REMARK    7  A    between atoms: C_30  and  C_31
REMARK                            x       y       z     vdW  Elec       q    Type
REMARK                         _______ _______ _______ _____ _____    ______ ____
ROOT
ATOM      1  C   UNL     1       0.884  13.548  21.471  0.00  0.00    +0.000 A 
ATOM      2  N   UNL     1       1.392  14.612  22.096  0.00  0.00    +0.000 NA
ATOM      3  N   UNL     1       2.507  15.034  21.416  0.00  0.00    +0.000 NA
ATOM      4  C   UNL     1       2.608  14.285  20.374  0.00  0.00    +0.000 A 
ATOM      5  C   UNL     1       3.560  14.390  19.316  0.00  0.00    +0.000 A 
ATOM      6  N   UNL     1       3.524  13.583  18.291  0.00  0.00    +0.000 NA
ATOM      7  C   UNL     1       2.462  12.686  18.196  0.00  0.00    +0.000 A 
ATOM      8  C   UNL     1       1.475  12.555  19.117  0.00  0.00    +0.000 A 
ATOM      9  N   UNL     1       1.600  13.341  20.295  0.00  0.00    +0.000 N 
ENDROOT
BRANCH   1  16
ATOM     10  C   UNL     1       0.494  10.363  22.143  0.00  0.00    +0.000 C 
ATOM     11  C   UNL     1      -0.495  11.466  22.337  0.00  0.00    +0.000 A 
ATOM     12  N   UNL     1      -1.714  11.254  22.885  0.00  0.00    +0.000 NA
ATOM     13  N   UNL     1      -2.335  12.487  22.861  0.00  0.00    +0.000 N 
ATOM     14  C   UNL     1      -1.449  13.478  22.475  0.00  0.00    +0.000 A 
ATOM     15  C   UNL     1      -1.724  14.944  22.506  0.00  0.00    +0.000 C 
ATOM     16  C   UNL     1      -0.294  12.833  22.058  0.00  0.00    +0.000 A 
BRANCH  13  17
ATOM     17  C   UNL     1      -3.743  12.614  23.171  0.00  0.00    +0.000 A 
ATOM     18  C   UNL     1      -4.203  12.423  24.484  0.00  0.00    +0.000 A 
ATOM     19  C   UNL     1      -5.579  12.488  24.770  0.00  0.00    +0.000 A 
ATOM     20  C   UNL     1      -6.496  12.718  23.750  0.00  0.00    +0.000 A 
ATOM     21  F   UNL     1      -7.810  12.717  24.016  0.00  0.00    +0.000 F 
ATOM     22  C   UNL     1      -6.062  12.920  22.448  0.00  0.00    +0.000 A 
ATOM     23  C   UNL     1      -4.691  12.876  22.162  0.00  0.00    +0.000 A 
ENDBRANCH  13  17
ENDBRANCH   1  16
BRANCH   8  24
ATOM     24  C   UNL     1       0.187  11.842  18.811  0.00  0.00    +0.000 C 
ATOM     25  O   UNL     1       0.285  10.607  18.880  0.00  0.00    +0.000 OA
ATOM     26  N   UNL     1      -1.002  12.436  18.445  0.00  0.00    +0.000 N 
ATOM     27  H   UNL     1      -1.120  13.436  18.548  0.00  0.00    +0.000 HD
BRANCH  26  28
ATOM     28  C   UNL     1      -2.123  11.703  17.863  0.00  0.00    +0.000 A 
ATOM     29  C   UNL     1      -2.006  10.788  16.805  0.00  0.00    +0.000 A 
ATOM     30  C   UNL     1      -3.131  10.171  16.275  0.00  0.00    +0.000 A 
ATOM     31  N   UNL     1      -4.380  10.423  16.694  0.00  0.00    +0.000 NA
ATOM     32  C   UNL     1      -4.526  11.332  17.696  0.00  0.00    +0.000 A 
ATOM     33  C   UNL     1      -3.422  11.959  18.318  0.00  0.00    +0.000 A 
BRANCH  32  34
ATOM     34  C   UNL     1      -5.945  11.737  18.074  0.00  0.00    +0.000 C 
ATOM     35  F   UNL     1      -6.056  12.325  19.302  0.00  0.00    +0.000 F 
ATOM     36  F   UNL     1      -6.502  12.613  17.192  0.00  0.00    +0.000 F 
ATOM     37  F   UNL     1      -6.787  10.663  18.107  0.00  0.00    +0.000 F 
ENDBRANCH  32  34
ENDBRANCH  26  28
ENDBRANCH   8  24
TORSDOF 5
ENDMDL
MODEL 6
REMARK VINA RESULT:      -7.0      0.149      1.032
REMARK  Name = 
REMARK  7 active torsions:
REMARK  status: ('A' for Active; 'I' for Inactive)
REMARK    1  A    between atoms: C_1  and  C_2
REMARK    2  A    between atoms: N_4  and  C_5
REMARK    3  A    between atoms: C_12  and  C_13
REMARK    4  A    between atoms: C_14  and  C_15
REMARK    5  A    between atoms: C_22  and  C_23
REMARK    6  A    between atoms: N_25  and  C_26
REMARK    7  A    between atoms: C_30  and  C_31
REMARK                            x       y       z     vdW  Elec       q    Type
REMARK                         _______ _______ _______ _____ _____    ______ ____
ROOT
ATOM      1  C   UNL     1       1.013  13.438  21.162  0.00  0.00    +0.000 A 
ATOM      2  N   UNL     1       2.265  13.040  20.930  0.00  0.00    +0.000 NA
ATOM      3  N   UNL     1       3.128  13.992  21.415  0.00  0.00    +0.000 NA
ATOM      4  C   UNL     1       2.403  14.888  21.989  0.00  0.00    +0.000 A 
ATOM      5  C   UNL     1       2.848  16.034  22.714  0.00  0.00    +0.000 A 
ATOM      6  N   UNL     1       1.999  16.846  23.283  0.00  0.00    +0.000 NA
ATOM      7  C   UNL     1       0.649  16.506  23.262  0.00  0.00    +0.000 A 
ATOM      8  C   UNL     1       0.135  15.408  22.655  0.00  0.00    +0.000 A 
ATOM      9  N   UNL     1       1.051  14.605  21.921  0.00  0.00    +0.000 N 
ENDROOT
BRANCH   1  16
ATOM     10  C   UNL     1      -0.843  11.236  22.729  0.00  0.00    +0.000 C 
ATOM     11  C   UNL     1      -0.933  11.654  21.298  0.00  0.00    +0.000 A 
ATOM     12  N   UNL     1      -1.877  11.165  20.460  0.00  0.00    +0.000 NA
ATOM     13  N   UNL     1      -1.613  11.754  19.241  0.00  0.00    +0.000 N 
ATOM     14  C   UNL     1      -0.636  12.727  19.365  0.00  0.00    +0.000 A 
ATOM     15  C   UNL     1      -0.225  13.681  18.293  0.00  0.00    +0.000 C 
ATOM     16  C   UNL     1      -0.134  12.619  20.652  0.00  0.00    +0.000 A 
BRANCH  13  17
ATOM     17  C   UNL     1      -2.287  11.308  18.040  0.00  0.00    +0.000 A 
ATOM     18  C   UNL     1      -3.572  11.780  17.729  0.00  0.00    +0.000 A 
ATOM     19  C   UNL     1      -4.249  11.299  16.593  0.00  0.00    +0.000 A 
ATOM     20  C   UNL     1      -3.659  10.333  15.784  0.00  0.00    +0.000 A 
ATOM     21  F   UNL     1      -4.333   9.832  14.739  0.00  0.00    +0.000 F 
ATOM     22  C   UNL     1      -2.387   9.862  16.067  0.00  0.00    +0.000 A 
ATOM     23  C   UNL     1      -1.700  10.353  17.186  0.00  0.00    +0.000 A 
ENDBRANCH  13  17
ENDBRANCH   1  16
BRANCH   8  24
ATOM     24  C   UNL     1      -1.249  14.904  22.953  0.00  0.00    +0.000 C 
ATOM     25  O   UNL     1      -1.361  14.431  24.095  0.00  0.00    +0.000 OA
ATOM     26  N   UNL     1      -2.317  14.899  22.080  0.00  0.00    +0.000 N 
ATOM     27  H   UNL     1      -2.267  15.426  21.218  0.00  0.00    +0.000 HD
BRANCH  26  28
ATOM     28  C   UNL     1      -3.536  14.127  22.304  0.00  0.00    +0.000 A 
ATOM     29  C   UNL     1      -3.924  13.604  23.547  0.00  0.00    +0.000 A 
ATOM     30  C   UNL     1      -5.075  12.835  23.664  0.00  0.00    +0.000 A 
ATOM     31  N   UNL     1      -5.857  12.512  22.623  0.00  0.00    +0.000 NA
ATOM     32  C   UNL     1      -5.486  12.976  21.400  0.00  0.00    +0.000 A 
ATOM     33  C   UNL     1      -4.357  13.807  21.216  0.00  0.00    +0.000 A 
BRANCH  32  34
ATOM     34  C   UNL     1      -6.278  12.489  20.194  0.00  0.00    +0.000 C 
ATOM     35  F   UNL     1      -5.970  11.221  19.790  0.00  0.00    +0.000 F 
ATOM     36  F   UNL     1      -7.625  12.495  20.402  0.00  0.00    +0.000 F 
ATOM     37  F   UNL     1      -6.072  13.280  19.099  0.00  0.00    +0.000 F 
ENDBRANCH  32  34
ENDBRANCH  26  28
ENDBRANCH   8  24
TORSDOF 5
ENDMDL
MODEL 7
REMARK VINA RESULT:      -7.0      0.916      1.292
REMARK  Name = 
REMARK  7 active torsions:
REMARK  status: ('A' for Active; 'I' for Inactive)
REMARK    1  A    between atoms: C_1  and  C_2
REMARK    2  A    between atoms: N_4  and  C_5
REMARK    3  A    between atoms: C_12  and  C_13
REMARK    4  A    between atoms: C_14  and  C_15
REMARK    5  A    between atoms: C_22  and  C_23
REMARK    6  A    between atoms: N_25  and  C_26
REMARK    7  A    between atoms: C_30  and  C_31
REMARK                            x       y       z     vdW  Elec       q    Type
REMARK                         _______ _______ _______ _____ _____    ______ ____
ROOT
ATOM      1  C   UNL     1       1.022  13.167  20.988  0.00  0.00    +0.000 A 
ATOM      2  N   UNL     1       2.312  12.833  21.064  0.00  0.00    +0.000 NA
ATOM      3  N   UNL     1       3.016  13.902  21.562  0.00  0.00    +0.000 NA
ATOM      4  C   UNL     1       2.151  14.813  21.845  0.00  0.00    +0.000 A 
ATOM      5  C   UNL     1       2.389  16.076  22.466  0.00  0.00    +0.000 A 
ATOM      6  N   UNL     1       1.408  16.894  22.733  0.00  0.00    +0.000 NA
ATOM      7  C   UNL     1       0.106  16.457  22.501  0.00  0.00    +0.000 A 
ATOM      8  C   UNL     1      -0.225  15.252  21.974  0.00  0.00    +0.000 A 
ATOM      9  N   UNL     1       0.854  14.426  21.559  0.00  0.00    +0.000 N 
ENDROOT
BRANCH   1  16
ATOM     10  C   UNL     1       0.065  10.221  22.062  0.00  0.00    +0.000 C 
ATOM     11  C   UNL     1      -0.373  10.928  20.821  0.00  0.00    +0.000 A 
ATOM     12  N   UNL     1      -1.300  10.409  19.983  0.00  0.00    +0.000 NA
ATOM     13  N   UNL     1      -1.405  11.324  18.956  0.00  0.00    +0.000 N 
ATOM     14  C   UNL     1      -0.691  12.474  19.244  0.00  0.00    +0.000 A 
ATOM     15  C   UNL     1      -0.720  13.733  18.445  0.00  0.00    +0.000 C 
ATOM     16  C   UNL     1       0.040  12.206  20.392  0.00  0.00    +0.000 A 
BRANCH  13  17
ATOM     17  C   UNL     1      -2.150  11.008  17.755  0.00  0.00    +0.000 A 
ATOM     18  C   UNL     1      -3.392  11.615  17.507  0.00  0.00    +0.000 A 
ATOM     19  C   UNL     1      -4.140  11.261  16.370  0.00  0.00    +0.000 A 
ATOM     20  C   UNL     1      -3.666  10.290  15.495  0.00  0.00    +0.000 A 
ATOM     21  F   UNL     1      -4.411   9.911  14.447  0.00  0.00    +0.000 F 
ATOM     22  C   UNL     1      -2.437   9.686  15.714  0.00  0.00    +0.000 A 
ATOM     23  C   UNL     1      -1.679  10.050  16.836  0.00  0.00    +0.000 A 
ENDBRANCH  13  17
ENDBRANCH   1  16
BRANCH   8  24
ATOM     24  C   UNL     1      -1.618  14.694  22.069  0.00  0.00    +0.000 C 
ATOM     25  O   UNL     1      -2.467  15.406  21.510  0.00  0.00    +0.000 OA
ATOM     26  N   UNL     1      -1.987  13.540  22.728  0.00  0.00    +0.000 N 
ATOM     27  H   UNL     1      -1.279  12.888  23.038  0.00  0.00    +0.000 HD
BRANCH  26  28
ATOM     28  C   UNL     1      -3.370  13.208  23.055  0.00  0.00    +0.000 A 
ATOM     29  C   UNL     1      -3.844  12.985  24.357  0.00  0.00    +0.000 A 
ATOM     30  C   UNL     1      -5.167  12.621  24.577  0.00  0.00    +0.000 A 
ATOM     31  N   UNL     1      -6.053  12.424  23.590  0.00  0.00    +0.000 NA
ATOM     32  C   UNL     1      -5.612  12.600  22.315  0.00  0.00    +0.000 A 
ATOM     33  C   UNL     1      -4.295  13.020  22.021  0.00  0.00    +0.000 A 
BRANCH  32  34
ATOM     34  C   UNL     1      -6.565  12.231  21.186  0.00  0.00    +0.000 C 
ATOM     35  F   UNL     1      -7.137  13.300  20.558  0.00  0.00    +0.000 F 
ATOM     36  F   UNL     1      -5.970  11.497  20.204  0.00  0.00    +0.000 F 
ATOM     37  F   UNL     1      -7.608  11.470  21.631  0.00  0.00    +0.000 F 
ENDBRANCH  32  34
ENDBRANCH  26  28
ENDBRANCH   8  24
TORSDOF 5
ENDMDL
MODEL 8
REMARK VINA RESULT:      -6.9      3.673      6.434
REMARK  Name = 
REMARK  7 active torsions:
REMARK  status: ('A' for Active; 'I' for Inactive)
REMARK    1  A    between atoms: C_1  and  C_2
REMARK    2  A    between atoms: N_4  and  C_5
REMARK    3  A    between atoms: C_12  and  C_13
REMARK    4  A    between atoms: C_14  and  C_15
REMARK    5  A    between atoms: C_22  and  C_23
REMARK    6  A    between atoms: N_25  and  C_26
REMARK    7  A    between atoms: C_30  and  C_31
REMARK                            x       y       z     vdW  Elec       q    Type
REMARK                         _______ _______ _______ _____ _____    ______ ____
ROOT
ATOM      1  C   UNL     1       0.675  16.798  19.855  0.00  0.00    +0.000 A 
ATOM      2  N   UNL     1       0.077  17.922  19.454  0.00  0.00    +0.000 NA
ATOM      3  N   UNL     1       0.702  18.374  18.318  0.00  0.00    +0.000 NA
ATOM      4  C   UNL     1       1.594  17.496  18.015  0.00  0.00    +0.000 A 
ATOM      5  C   UNL     1       2.444  17.481  16.869  0.00  0.00    +0.000 A 
ATOM      6  N   UNL     1       3.283  16.503  16.662  0.00  0.00    +0.000 NA
ATOM      7  C   UNL     1       3.250  15.414  17.529  0.00  0.00    +0.000 A 
ATOM      8  C   UNL     1       2.436  15.307  18.609  0.00  0.00    +0.000 A 
ATOM      9  N   UNL     1       1.625  16.437  18.903  0.00  0.00    +0.000 N 
ENDROOT
BRANCH   1  16
ATOM     10  C   UNL     1       2.420  16.085  22.537  0.00  0.00    +0.000 C 
ATOM     11  C   UNL     1       0.975  15.804  22.286  0.00  0.00    +0.000 A 
ATOM     12  N   UNL     1       0.179  15.227  23.216  0.00  0.00    +0.000 NA
ATOM     13  N   UNL     1      -1.052  15.105  22.606  0.00  0.00    +0.000 N 
ATOM     14  C   UNL     1      -1.066  15.759  21.386  0.00  0.00    +0.000 A 
ATOM     15  C   UNL     1      -2.273  15.981  20.537  0.00  0.00    +0.000 C 
ATOM     16  C   UNL     1       0.242  16.140  21.129  0.00  0.00    +0.000 A 
BRANCH  13  17
ATOM     17  C   UNL     1      -2.111  14.333  23.221  0.00  0.00    +0.000 A 
ATOM     18  C   UNL     1      -2.702  14.763  24.420  0.00  0.00    +0.000 A 
ATOM     19  C   UNL     1      -3.689  13.980  25.047  0.00  0.00    +0.000 A 
ATOM     20  C   UNL     1      -4.068  12.761  24.495  0.00  0.00    +0.000 A 
ATOM     21  F   UNL     1      -4.963  11.988  25.128  0.00  0.00    +0.000 F 
ATOM     22  C   UNL     1      -3.506  12.322  23.306  0.00  0.00    +0.000 A 
ATOM     23  C   UNL     1      -2.537  13.109  22.668  0.00  0.00    +0.000 A 
ENDBRANCH  13  17
ENDBRANCH   1  16
BRANCH   8  24
ATOM     24  C   UNL     1       2.187  13.993  19.295  0.00  0.00    +0.000 C 
ATOM     25  O   UNL     1       3.101  13.666  20.069  0.00  0.00    +0.000 OA
ATOM     26  N   UNL     1       1.100  13.167  19.099  0.00  0.00    +0.000 N 
ATOM     27  H   UNL     1       0.290  13.509  18.598  0.00  0.00    +0.000 HD
BRANCH  26  28
ATOM     28  C   UNL     1       1.053  11.778  19.545  0.00  0.00    +0.000 A 
ATOM     29  C   UNL     1       1.276  10.671  18.710  0.00  0.00    +0.000 A 
ATOM     30  C   UNL     1       1.162   9.378  19.203  0.00  0.00    +0.000 A 
ATOM     31  N   UNL     1       0.803   9.097  20.465  0.00  0.00    +0.000 NA
ATOM     32  C   UNL     1       0.548  10.150  21.287  0.00  0.00    +0.000 A 
ATOM     33  C   UNL     1       0.695  11.492  20.867  0.00  0.00    +0.000 A 
BRANCH  32  34
ATOM     34  C   UNL     1      -0.006   9.840  22.672  0.00  0.00    +0.000 C 
ATOM     35  F   UNL     1      -0.571  10.910  23.305  0.00  0.00    +0.000 F 
ATOM     36  F   UNL     1      -0.961   8.869  22.659  0.00  0.00    +0.000 F 
ATOM     37  F   UNL     1       0.967   9.389  23.517  0.00  0.00    +0.000 F 
ENDBRANCH  32  34
ENDBRANCH  26  28
ENDBRANCH   8  24
TORSDOF 5
ENDMDL
MODEL 9
REMARK VINA RESULT:      -6.9      2.729      6.057
REMARK  Name = 
REMARK  7 active torsions:
REMARK  status: ('A' for Active; 'I' for Inactive)
REMARK    1  A    between atoms: C_1  and  C_2
REMARK    2  A    between atoms: N_4  and  C_5
REMARK    3  A    between atoms: C_12  and  C_13
REMARK    4  A    between atoms: C_14  and  C_15
REMARK    5  A    between atoms: C_22  and  C_23
REMARK    6  A    between atoms: N_25  and  C_26
REMARK    7  A    between atoms: C_30  and  C_31
REMARK                            x       y       z     vdW  Elec       q    Type
REMARK                         _______ _______ _______ _____ _____    ______ ____
ROOT
ATOM      1  C   UNL     1      -2.408  14.165  23.224  0.00  0.00    +0.000 A 
ATOM      2  N   UNL     1      -2.238  14.557  24.489  0.00  0.00    +0.000 NA
ATOM      3  N   UNL     1      -3.398  15.147  24.928  0.00  0.00    +0.000 NA
ATOM      4  C   UNL     1      -4.253  15.033  23.972  0.00  0.00    +0.000 A 
ATOM      5  C   UNL     1      -5.627  15.420  23.984  0.00  0.00    +0.000 A 
ATOM      6  N   UNL     1      -6.397  15.211  22.952  0.00  0.00    +0.000 NA
ATOM      7  C   UNL     1      -5.876  14.497  21.876  0.00  0.00    +0.000 A 
ATOM      8  C   UNL     1      -4.604  14.033  21.797  0.00  0.00    +0.000 A 
ATOM      9  N   UNL     1      -3.735  14.386  22.865  0.00  0.00    +0.000 N 
ENDROOT
BRANCH   1  16
ATOM     10  C   UNL     1      -1.274  11.090  23.242  0.00  0.00    +0.000 C 
ATOM     11  C   UNL     1      -0.740  12.256  22.476  0.00  0.00    +0.000 A 
ATOM     12  N   UNL     1       0.307  12.144  21.626  0.00  0.00    +0.000 NA
ATOM     13  N   UNL     1       0.518  13.421  21.149  0.00  0.00    +0.000 N 
ATOM     14  C   UNL     1      -0.494  14.274  21.557  0.00  0.00    +0.000 A 
ATOM     15  C   UNL     1      -0.683  15.678  21.089  0.00  0.00    +0.000 C 
ATOM     16  C   UNL     1      -1.260  13.567  22.471  0.00  0.00    +0.000 A 
BRANCH  13  17
ATOM     17  C   UNL     1       1.698  13.738  20.373  0.00  0.00    +0.000 A 
ATOM     18  C   UNL     1       2.784  14.400  20.967  0.00  0.00    +0.000 A 
ATOM     19  C   UNL     1       3.904  14.760  20.195  0.00  0.00    +0.000 A 
ATOM     20  C   UNL     1       3.933  14.484  18.833  0.00  0.00    +0.000 A 
ATOM     21  F   UNL     1       4.974  14.885  18.089  0.00  0.00    +0.000 F 
ATOM     22  C   UNL     1       2.876  13.821  18.228  0.00  0.00    +0.000 A 
ATOM     23  C   UNL     1       1.766  13.443  18.997  0.00  0.00    +0.000 A 
ENDBRANCH  13  17
ENDBRANCH   1  16
BRANCH   8  24
ATOM     24  C   UNL     1      -4.196  12.986  20.799  0.00  0.00    +0.000 C 
ATOM     25  O   UNL     1      -4.653  11.862  21.057  0.00  0.00    +0.000 OA
ATOM     26  N   UNL     1      -3.368  13.179  19.712  0.00  0.00    +0.000 N 
ATOM     27  H   UNL     1      -3.133  14.118  19.417  0.00  0.00    +0.000 HD
BRANCH  26  28
ATOM     28  C   UNL     1      -2.757  12.086  18.962  0.00  0.00    +0.000 A 
ATOM     29  C   UNL     1      -1.530  11.490  19.290  0.00  0.00    +0.000 A 
ATOM     30  C   UNL     1      -0.993  10.488  18.491  0.00  0.00    +0.000 A 
ATOM     31  N   UNL     1      -1.570  10.054  17.361  0.00  0.00    +0.000 NA
ATOM     32  C   UNL     1      -2.745  10.638  17.000  0.00  0.00    +0.000 A 
ATOM     33  C   UNL     1      -3.374  11.626  17.792  0.00  0.00    +0.000 A 
BRANCH  32  34
ATOM     34  C   UNL     1      -3.328  10.263  15.644  0.00  0.00    +0.000 C 
ATOM     35  F   UNL     1      -3.333   8.922  15.384  0.00  0.00    +0.000 F 
ATOM     36  F   UNL     1      -4.616  10.677  15.484  0.00  0.00    +0.000 F 
ATOM     37  F   UNL     1      -2.629  10.830  14.617  0.00  0.00    +0.000 F 
ENDBRANCH  32  34
ENDBRANCH  26  28
ENDBRANCH   8  24
TORSDOF 5
ENDMDL
