MODEL 1
REMARK VINA RESULT:      -7.1      0.000      0.000
REMARK  Name = 
REMARK  10 active torsions:
REMARK  status: ('A' for Active; 'I' for Inactive)
REMARK    1  A    between atoms: C_1  and  C_2
REMARK    2  A    between atoms: C_2  and  C_3
REMARK    3  A    between atoms: C_2  and  C_4
REMARK    4  A    between atoms: C_4  and  C_5
REMARK    5  A    between atoms: C_5  and  N_6
REMARK    6  A    between atoms: N_6  and  C_7
REMARK    7  A    between atoms: N_6  and  C_8
REMARK    8  A    between atoms: C_8  and  C_9
REMARK    9  A    between atoms: N_11  and  C_12
REMARK   10  A    between atoms: C_17  and  O_18
REMARK                            x       y       z     vdW  Elec       q    Type
REMARK                         _______ _______ _______ _____ _____    ______ ____
ROOT
ATOM      1  C   UNL     1       6.238   5.410  17.805  0.00  0.00    +0.000 A 
ATOM      2  C   UNL     1       4.890   5.410  18.092  0.00  0.00    +0.000 A 
ATOM      3  N   UNL     1       4.755   4.448  19.047  0.00  0.00    +0.000 N 
ATOM      4  N   UNL     1       5.939   3.871  19.329  0.00  0.00    +0.000 NA
ATOM      5  N   UNL     1       6.855   4.451  18.568  0.00  0.00    +0.000 NA
ENDROOT
BRANCH   3   6
ATOM      6  C   UNL     1       3.569   4.048  19.792  0.00  0.00    +0.000 C 
ATOM      7  C   UNL     1       2.573   5.212  19.911  0.00  0.00    +0.000 C 
ATOM      8  C   UNL     1       1.298   4.805  20.646  0.00  0.00    +0.000 C 
ATOM      9  C   UNL     1       0.655   3.578  20.012  0.00  0.00    +0.000 C 
ATOM     10  C   UNL     1       1.635   2.413  19.947  0.00  0.00    +0.000 C 
ATOM     11  C   UNL     1       2.916   2.787  19.197  0.00  0.00    +0.000 C 
BRANCH  11  12
ATOM     12  O   UNL     1       3.788   1.655  19.238  0.00  0.00    +0.000 OA
ATOM     13  H   UNL     1       4.589   1.849  18.719  0.00  0.00    +0.000 HD
ENDBRANCH  11  12
ENDBRANCH   3   6
BRANCH   1  14
ATOM     14  C   UNL     1       7.030   6.257  16.866  0.00  0.00    +0.000 C 
BRANCH  14  15
ATOM     15  N   UNL     1       6.639   6.042  15.452  0.00  0.00    +0.000 NA
ATOM     16  C   UNL     1       5.240   6.457  15.292  0.00  0.00    +0.000 C 
BRANCH  15  17
ATOM     17  C   UNL     1       6.823   4.630  15.058  0.00  0.00    +0.000 C 
BRANCH  17  18
ATOM     18  C   UNL     1       5.701   4.064  14.166  0.00  0.00    +0.000 C 
BRANCH  18  20
ATOM     19  C   UNL     1       5.009   3.234  11.860  0.00  0.00    +0.000 C 
ATOM     20  C   UNL     1       6.175   3.480  12.820  0.00  0.00    +0.000 C 
ATOM     21  C   UNL     1       7.190   4.423  12.170  0.00  0.00    +0.000 C 
ENDBRANCH  18  20
ENDBRANCH  17  18
ENDBRANCH  15  17
ENDBRANCH  14  15
ENDBRANCH   1  14
TORSDOF 7
ENDMDL
MODEL 2
REMARK VINA RESULT:      -7.0      1.451      2.001
REMARK  Name = 
REMARK  10 active torsions:
REMARK  status: ('A' for Active; 'I' for Inactive)
REMARK    1  A    between atoms: C_1  and  C_2
REMARK    2  A    between atoms: C_2  and  C_3
REMARK    3  A    between atoms: C_2  and  C_4
REMARK    4  A    between atoms: C_4  and  C_5
REMARK    5  A    between atoms: C_5  and  N_6
REMARK    6  A    between atoms: N_6  and  C_7
REMARK    7  A    between atoms: N_6  and  C_8
REMARK    8  A    between atoms: C_8  and  C_9
REMARK    9  A    between atoms: N_11  and  C_12
REMARK   10  A    between atoms: C_17  and  O_18
REMARK                            x       y       z     vdW  Elec       q    Type
REMARK                         _______ _______ _______ _____ _____    ______ ____
ROOT
ATOM      1  C   UNL     1       6.074   4.117  16.954  0.00  0.00    +0.000 A 
ATOM      2  C   UNL     1       4.716   3.882  16.959  0.00  0.00    +0.000 A 
ATOM      3  N   UNL     1       4.370   3.968  18.274  0.00  0.00    +0.000 N 
ATOM      4  N   UNL     1       5.444   4.225  19.046  0.00  0.00    +0.000 NA
ATOM      5  N   UNL     1       6.496   4.313  18.245  0.00  0.00    +0.000 NA
ENDROOT
BRANCH   3   6
ATOM      6  C   UNL     1       3.052   3.885  18.888  0.00  0.00    +0.000 C 
ATOM      7  C   UNL     1       2.563   2.429  18.953  0.00  0.00    +0.000 C 
ATOM      8  C   UNL     1       1.203   2.310  19.637  0.00  0.00    +0.000 C 
ATOM      9  C   UNL     1       1.211   2.962  21.014  0.00  0.00    +0.000 C 
ATOM     10  C   UNL     1       1.645   4.419  20.931  0.00  0.00    +0.000 C 
ATOM     11  C   UNL     1       3.016   4.569  20.267  0.00  0.00    +0.000 C 
BRANCH  11  12
ATOM     12  O   UNL     1       3.309   5.966  20.186  0.00  0.00    +0.000 OA
ATOM     13  H   UNL     1       3.653   6.170  19.298  0.00  0.00    +0.000 HD
ENDBRANCH  11  12
ENDBRANCH   3   6
BRANCH   1  14
ATOM     14  C   UNL     1       7.042   4.192  15.822  0.00  0.00    +0.000 C 
BRANCH  14  15
ATOM     15  N   UNL     1       6.775   5.348  14.932  0.00  0.00    +0.000 NA
ATOM     16  C   UNL     1       5.518   5.975  15.355  0.00  0.00    +0.000 C 
BRANCH  15  17
ATOM     17  C   UNL     1       6.708   4.925  13.518  0.00  0.00    +0.000 C 
BRANCH  17  18
ATOM     18  C   UNL     1       6.122   3.516  13.299  0.00  0.00    +0.000 C 
BRANCH  18  20
ATOM     19  C   UNL     1       6.097   1.711  11.503  0.00  0.00    +0.000 C 
ATOM     20  C   UNL     1       5.789   3.173  11.833  0.00  0.00    +0.000 C 
ATOM     21  C   UNL     1       4.313   3.467  11.551  0.00  0.00    +0.000 C 
ENDBRANCH  18  20
ENDBRANCH  17  18
ENDBRANCH  15  17
ENDBRANCH  14  15
ENDBRANCH   1  14
TORSDOF 7
ENDMDL
MODEL 3
REMARK VINA RESULT:      -6.9      1.053      1.353
REMARK  Name = 
REMARK  10 active torsions:
REMARK  status: ('A' for Active; 'I' for Inactive)
REMARK    1  A    between atoms: C_1  and  C_2
REMARK    2  A    between atoms: C_2  and  C_3
REMARK    3  A    between atoms: C_2  and  C_4
REMARK    4  A    between atoms: C_4  and  C_5
REMARK    5  A    between atoms: C_5  and  N_6
REMARK    6  A    between atoms: N_6  and  C_7
REMARK    7  A    between atoms: N_6  and  C_8
REMARK    8  A    between atoms: C_8  and  C_9
REMARK    9  A    between atoms: N_11  and  C_12
REMARK   10  A    between atoms: C_17  and  O_18
REMARK                            x       y       z     vdW  Elec       q    Type
REMARK                         _______ _______ _______ _____ _____    ______ ____
ROOT
ATOM      1  C   UNL     1       6.261   4.408  17.296  0.00  0.00    +0.000 A 
ATOM      2  C   UNL     1       4.961   4.114  17.647  0.00  0.00    +0.000 A 
ATOM      3  N   UNL     1       4.954   4.221  19.006  0.00  0.00    +0.000 N 
ATOM      4  N   UNL     1       6.173   4.546  19.477  0.00  0.00    +0.000 NA
ATOM      5  N   UNL     1       6.984   4.658  18.435  0.00  0.00    +0.000 NA
ENDROOT
BRANCH   3   6
ATOM      6  C   UNL     1       3.838   4.098  19.934  0.00  0.00    +0.000 C 
ATOM      7  C   UNL     1       2.568   4.745  19.360  0.00  0.00    +0.000 C 
ATOM      8  C   UNL     1       1.370   4.587  20.294  0.00  0.00    +0.000 C 
ATOM      9  C   UNL     1       1.139   3.127  20.664  0.00  0.00    +0.000 C 
ATOM     10  C   UNL     1       2.388   2.510  21.281  0.00  0.00    +0.000 C 
ATOM     11  C   UNL     1       3.602   2.636  20.357  0.00  0.00    +0.000 C 
BRANCH  11  12
ATOM     12  O   UNL     1       4.727   2.083  21.043  0.00  0.00    +0.000 OA
ATOM     13  H   UNL     1       4.461   1.834  21.946  0.00  0.00    +0.000 HD
ENDBRANCH  11  12
ENDBRANCH   3   6
BRANCH   1  14
ATOM     14  C   UNL     1       6.907   4.495  15.955  0.00  0.00    +0.000 C 
BRANCH  14  15
ATOM     15  N   UNL     1       6.346   5.593  15.131  0.00  0.00    +0.000 NA
ATOM     16  C   UNL     1       5.556   6.468  16.006  0.00  0.00    +0.000 C 
BRANCH  15  17
ATOM     17  C   UNL     1       5.520   5.060  14.028  0.00  0.00    +0.000 C 
BRANCH  17  18
ATOM     18  C   UNL     1       5.910   3.643  13.564  0.00  0.00    +0.000 C 
BRANCH  18  20
ATOM     19  C   UNL     1       6.687   2.211  11.608  0.00  0.00    +0.000 C 
ATOM     20  C   UNL     1       5.858   3.422  12.039  0.00  0.00    +0.000 C 
ATOM     21  C   UNL     1       4.407   3.243  11.587  0.00  0.00    +0.000 C 
ENDBRANCH  18  20
ENDBRANCH  17  18
ENDBRANCH  15  17
ENDBRANCH  14  15
ENDBRANCH   1  14
TORSDOF 7
ENDMDL
MODEL 4
REMARK VINA RESULT:      -6.9      1.368      1.918
REMARK  Name = 
REMARK  10 active torsions:
REMARK  status: ('A' for Active; 'I' for Inactive)
REMARK    1  A    between atoms: C_1  and  C_2
REMARK    2  A    between atoms: C_2  and  C_3
REMARK    3  A    between atoms: C_2  and  C_4
REMARK    4  A    between atoms: C_4  and  C_5
REMARK    5  A    between atoms: C_5  and  N_6
REMARK    6  A    between atoms: N_6  and  C_7
REMARK    7  A    between atoms: N_6  and  C_8
REMARK    8  A    between atoms: C_8  and  C_9
REMARK    9  A    between atoms: N_11  and  C_12
REMARK   10  A    between atoms: C_17  and  O_18
REMARK                            x       y       z     vdW  Elec       q    Type
REMARK                         _______ _______ _______ _____ _____    ______ ____
ROOT
ATOM      1  C   UNL     1       5.189   4.554  16.449  0.00  0.00    +0.000 A 
ATOM      2  C   UNL     1       4.039   4.354  17.181  0.00  0.00    +0.000 A 
ATOM      3  N   UNL     1       4.486   4.180  18.457  0.00  0.00    +0.000 N 
ATOM      4  N   UNL     1       5.830   4.251  18.517  0.00  0.00    +0.000 NA
ATOM      5  N   UNL     1       6.271   4.475  17.289  0.00  0.00    +0.000 NA
ENDROOT
BRANCH   3   6
ATOM      6  C   UNL     1       3.723   4.005  19.685  0.00  0.00    +0.000 C 
ATOM      7  C   UNL     1       2.321   4.621  19.557  0.00  0.00    +0.000 C 
ATOM      8  C   UNL     1       1.483   4.409  20.816  0.00  0.00    +0.000 C 
ATOM      9  C   UNL     1       1.416   2.936  21.200  0.00  0.00    +0.000 C 
ATOM     10  C   UNL     1       2.810   2.348  21.376  0.00  0.00    +0.000 C 
ATOM     11  C   UNL     1       3.668   2.529  20.122  0.00  0.00    +0.000 C 
BRANCH  11  12
ATOM     12  O   UNL     1       4.965   1.999  20.403  0.00  0.00    +0.000 OA
ATOM     13  H   UNL     1       4.872   1.098  20.762  0.00  0.00    +0.000 HD
ENDBRANCH  11  12
ENDBRANCH   3   6
BRANCH   1  14
ATOM     14  C   UNL     1       5.377   4.835  14.996  0.00  0.00    +0.000 C 
BRANCH  14  15
ATOM     15  N   UNL     1       6.667   4.310  14.485  0.00  0.00    +0.000 NA
ATOM     16  C   UNL     1       7.565   5.446  14.244  0.00  0.00    +0.000 C 
BRANCH  15  17
ATOM     17  C   UNL     1       6.468   3.520  13.252  0.00  0.00    +0.000 C 
BRANCH  17  18
ATOM     18  C   UNL     1       5.072   3.670  12.615  0.00  0.00    +0.000 C 
BRANCH  18  20
ATOM     19  C   UNL     1       5.505   1.599  11.200  0.00  0.00    +0.000 C 
ATOM     20  C   UNL     1       4.917   3.010  11.230  0.00  0.00    +0.000 C 
ATOM     21  C   UNL     1       3.439   2.964  10.837  0.00  0.00    +0.000 C 
ENDBRANCH  18  20
ENDBRANCH  17  18
ENDBRANCH  15  17
ENDBRANCH  14  15
ENDBRANCH   1  14
TORSDOF 7
ENDMDL
MODEL 5
REMARK VINA RESULT:      -6.8      1.790      2.152
REMARK  Name = 
REMARK  10 active torsions:
REMARK  status: ('A' for Active; 'I' for Inactive)
REMARK    1  A    between atoms: C_1  and  C_2
REMARK    2  A    between atoms: C_2  and  C_3
REMARK    3  A    between atoms: C_2  and  C_4
REMARK    4  A    between atoms: C_4  and  C_5
REMARK    5  A    between atoms: C_5  and  N_6
REMARK    6  A    between atoms: N_6  and  C_7
REMARK    7  A    between atoms: N_6  and  C_8
REMARK    8  A    between atoms: C_8  and  C_9
REMARK    9  A    between atoms: N_11  and  C_12
REMARK   10  A    between atoms: C_17  and  O_18
REMARK                            x       y       z     vdW  Elec       q    Type
REMARK                         _______ _______ _______ _____ _____    ______ ____
ROOT
ATOM      1  C   UNL     1       5.849   5.002  17.241  0.00  0.00    +0.000 A 
ATOM      2  C   UNL     1       4.975   4.169  17.908  0.00  0.00    +0.000 A 
ATOM      3  N   UNL     1       3.830   4.901  18.004  0.00  0.00    +0.000 N 
ATOM      4  N   UNL     1       3.981   6.119  17.448  0.00  0.00    +0.000 NA
ATOM      5  N   UNL     1       5.219   6.192  16.982  0.00  0.00    +0.000 NA
ENDROOT
BRANCH   3   6
ATOM      6  C   UNL     1       2.533   4.517  18.543  0.00  0.00    +0.000 C 
ATOM      7  C   UNL     1       2.194   3.062  18.182  0.00  0.00    +0.000 C 
ATOM      8  C   UNL     1       0.859   2.619  18.777  0.00  0.00    +0.000 C 
ATOM      9  C   UNL     1       0.814   2.848  20.283  0.00  0.00    +0.000 C 
ATOM     10  C   UNL     1       1.100   4.304  20.626  0.00  0.00    +0.000 C 
ATOM     11  C   UNL     1       2.442   4.772  20.059  0.00  0.00    +0.000 C 
BRANCH  11  12
ATOM     12  O   UNL     1       2.592   6.156  20.385  0.00  0.00    +0.000 OA
ATOM     13  H   UNL     1       2.241   6.696  19.654  0.00  0.00    +0.000 HD
ENDBRANCH  11  12
ENDBRANCH   3   6
BRANCH   1  14
ATOM     14  C   UNL     1       7.255   4.777  16.798  0.00  0.00    +0.000 C 
BRANCH  14  15
ATOM     15  N   UNL     1       7.339   4.396  15.368  0.00  0.00    +0.000 NA
ATOM     16  C   UNL     1       7.503   5.619  14.573  0.00  0.00    +0.000 C 
BRANCH  15  17
ATOM     17  C   UNL     1       6.136   3.647  14.947  0.00  0.00    +0.000 C 
BRANCH  17  18
ATOM     18  C   UNL     1       5.497   4.148  13.636  0.00  0.00    +0.000 C 
BRANCH  18  20
ATOM     19  C   UNL     1       4.430   3.238  11.512  0.00  0.00    +0.000 C 
ATOM     20  C   UNL     1       5.649   3.194  12.435  0.00  0.00    +0.000 C 
ATOM     21  C   UNL     1       6.910   3.547  11.643  0.00  0.00    +0.000 C 
ENDBRANCH  18  20
ENDBRANCH  17  18
ENDBRANCH  15  17
ENDBRANCH  14  15
ENDBRANCH   1  14
TORSDOF 7
ENDMDL
MODEL 6
REMARK VINA RESULT:      -6.7      1.718      2.251
REMARK  Name = 
REMARK  10 active torsions:
REMARK  status: ('A' for Active; 'I' for Inactive)
REMARK    1  A    between atoms: C_1  and  C_2
REMARK    2  A    between atoms: C_2  and  C_3
REMARK    3  A    between atoms: C_2  and  C_4
REMARK    4  A    between atoms: C_4  and  C_5
REMARK    5  A    between atoms: C_5  and  N_6
REMARK    6  A    between atoms: N_6  and  C_7
REMARK    7  A    between atoms: N_6  and  C_8
REMARK    8  A    between atoms: C_8  and  C_9
REMARK    9  A    between atoms: N_11  and  C_12
REMARK   10  A    between atoms: C_17  and  O_18
REMARK                            x       y       z     vdW  Elec       q    Type
REMARK                         _______ _______ _______ _____ _____    ______ ____
ROOT
ATOM      1  C   UNL     1       5.230   5.355  16.666  0.00  0.00    +0.000 A 
ATOM      2  C   UNL     1       4.993   4.180  17.348  0.00  0.00    +0.000 A 
ATOM      3  N   UNL     1       3.832   4.418  18.022  0.00  0.00    +0.000 N 
ATOM      4  N   UNL     1       3.380   5.665  17.790  0.00  0.00    +0.000 NA
ATOM      5  N   UNL     1       4.233   6.250  16.963  0.00  0.00    +0.000 NA
ENDROOT
BRANCH   3   6
ATOM      6  C   UNL     1       3.047   3.515  18.853  0.00  0.00    +0.000 C 
ATOM      7  C   UNL     1       3.602   3.461  20.285  0.00  0.00    +0.000 C 
ATOM      8  C   UNL     1       2.768   2.558  21.191  0.00  0.00    +0.000 C 
ATOM      9  C   UNL     1       1.297   2.954  21.173  0.00  0.00    +0.000 C 
ATOM     10  C   UNL     1       0.743   2.953  19.754  0.00  0.00    +0.000 C 
ATOM     11  C   UNL     1       1.549   3.867  18.827  0.00  0.00    +0.000 C 
BRANCH  11  12
ATOM     12  O   UNL     1       0.990   3.756  17.516  0.00  0.00    +0.000 OA
ATOM     13  H   UNL     1       0.861   2.814  17.302  0.00  0.00    +0.000 HD
ENDBRANCH  11  12
ENDBRANCH   3   6
BRANCH   1  14
ATOM     14  C   UNL     1       6.325   5.725  15.724  0.00  0.00    +0.000 C 
BRANCH  14  15
ATOM     15  N   UNL     1       6.721   4.593  14.851  0.00  0.00    +0.000 NA
ATOM     16  C   UNL     1       7.886   5.007  14.059  0.00  0.00    +0.000 C 
BRANCH  15  17
ATOM     17  C   UNL     1       5.604   4.180  13.977  0.00  0.00    +0.000 C 
BRANCH  17  18
ATOM     18  C   UNL     1       6.033   3.688  12.581  0.00  0.00    +0.000 C 
BRANCH  18  20
ATOM     19  C   UNL     1       4.061   3.151  11.062  0.00  0.00    +0.000 C 
ATOM     20  C   UNL     1       5.143   2.581  11.981  0.00  0.00    +0.000 C 
ATOM     21  C   UNL     1       6.005   1.580  11.207  0.00  0.00    +0.000 C 
ENDBRANCH  18  20
ENDBRANCH  17  18
ENDBRANCH  15  17
ENDBRANCH  14  15
ENDBRANCH   1  14
TORSDOF 7
ENDMDL
MODEL 7
REMARK VINA RESULT:      -6.7      1.831      2.425
REMARK  Name = 
REMARK  10 active torsions:
REMARK  status: ('A' for Active; 'I' for Inactive)
REMARK    1  A    between atoms: C_1  and  C_2
REMARK    2  A    between atoms: C_2  and  C_3
REMARK    3  A    between atoms: C_2  and  C_4
REMARK    4  A    between atoms: C_4  and  C_5
REMARK    5  A    between atoms: C_5  and  N_6
REMARK    6  A    between atoms: N_6  and  C_7
REMARK    7  A    between atoms: N_6  and  C_8
REMARK    8  A    between atoms: C_8  and  C_9
REMARK    9  A    between atoms: N_11  and  C_12
REMARK   10  A    between atoms: C_17  and  O_18
REMARK                            x       y       z     vdW  Elec       q    Type
REMARK                         _______ _______ _______ _____ _____    ______ ____
ROOT
ATOM      1  C   UNL     1       4.266   6.284  16.981  0.00  0.00    +0.000 A 
ATOM      2  C   UNL     1       3.767   5.097  17.472  0.00  0.00    +0.000 A 
ATOM      3  N   UNL     1       2.764   5.482  18.311  0.00  0.00    +0.000 N 
ATOM      4  N   UNL     1       2.652   6.824  18.354  0.00  0.00    +0.000 NA
ATOM      5  N   UNL     1       3.573   7.325  17.545  0.00  0.00    +0.000 NA
ENDROOT
BRANCH   3   6
ATOM      6  C   UNL     1       1.823   4.661  19.061  0.00  0.00    +0.000 C 
ATOM      7  C   UNL     1       1.544   3.336  18.333  0.00  0.00    +0.000 C 
ATOM      8  C   UNL     1       0.597   2.436  19.123  0.00  0.00    +0.000 C 
ATOM      9  C   UNL     1       1.102   2.202  20.541  0.00  0.00    +0.000 C 
ATOM     10  C   UNL     1       1.325   3.520  21.271  0.00  0.00    +0.000 C 
ATOM     11  C   UNL     1       2.287   4.437  20.512  0.00  0.00    +0.000 C 
BRANCH  11  12
ATOM     12  O   UNL     1       2.387   5.661  21.243  0.00  0.00    +0.000 OA
ATOM     13  H   UNL     1       2.575   6.389  20.624  0.00  0.00    +0.000 HD
ENDBRANCH  11  12
ENDBRANCH   3   6
BRANCH   1  14
ATOM     14  C   UNL     1       5.353   6.544  15.993  0.00  0.00    +0.000 C 
BRANCH  14  15
ATOM     15  N   UNL     1       6.339   5.438  15.939  0.00  0.00    +0.000 NA
ATOM     16  C   UNL     1       7.555   5.870  16.638  0.00  0.00    +0.000 C 
BRANCH  15  17
ATOM     17  C   UNL     1       6.636   5.059  14.542  0.00  0.00    +0.000 C 
BRANCH  17  18
ATOM     18  C   UNL     1       5.834   3.849  14.023  0.00  0.00    +0.000 C 
BRANCH  18  20
ATOM     19  C   UNL     1       4.906   3.295  11.718  0.00  0.00    +0.000 C 
ATOM     20  C   UNL     1       6.164   3.424  12.578  0.00  0.00    +0.000 C 
ATOM     21  C   UNL     1       7.124   4.433  11.944  0.00  0.00    +0.000 C 
ENDBRANCH  18  20
ENDBRANCH  17  18
ENDBRANCH  15  17
ENDBRANCH  14  15
ENDBRANCH   1  14
TORSDOF 7
ENDMDL
MODEL 8
REMARK VINA RESULT:      -6.7      2.235      3.650
REMARK  Name = 
REMARK  10 active torsions:
REMARK  status: ('A' for Active; 'I' for Inactive)
REMARK    1  A    between atoms: C_1  and  C_2
REMARK    2  A    between atoms: C_2  and  C_3
REMARK    3  A    between atoms: C_2  and  C_4
REMARK    4  A    between atoms: C_4  and  C_5
REMARK    5  A    between atoms: C_5  and  N_6
REMARK    6  A    between atoms: N_6  and  C_7
REMARK    7  A    between atoms: N_6  and  C_8
REMARK    8  A    between atoms: C_8  and  C_9
REMARK    9  A    between atoms: N_11  and  C_12
REMARK   10  A    between atoms: C_17  and  O_18
REMARK                            x       y       z     vdW  Elec       q    Type
REMARK                         _______ _______ _______ _____ _____    ______ ____
ROOT
ATOM      1  C   UNL     1       6.019   4.412  17.476  0.00  0.00    +0.000 A 
ATOM      2  C   UNL     1       4.774   3.826  17.383  0.00  0.00    +0.000 A 
ATOM      3  N   UNL     1       4.493   3.443  18.660  0.00  0.00    +0.000 N 
ATOM      4  N   UNL     1       5.502   3.755  19.496  0.00  0.00    +0.000 NA
ATOM      5  N   UNL     1       6.446   4.345  18.778  0.00  0.00    +0.000 NA
ENDROOT
BRANCH   3   6
ATOM      6  C   UNL     1       3.281   2.838  19.195  0.00  0.00    +0.000 C 
ATOM      7  C   UNL     1       3.106   3.176  20.684  0.00  0.00    +0.000 C 
ATOM      8  C   UNL     1       1.817   2.593  21.258  0.00  0.00    +0.000 C 
ATOM      9  C   UNL     1       0.601   3.012  20.441  0.00  0.00    +0.000 C 
ATOM     10  C   UNL     1       0.763   2.625  18.976  0.00  0.00    +0.000 C 
ATOM     11  C   UNL     1       2.038   3.213  18.368  0.00  0.00    +0.000 C 
BRANCH  11  12
ATOM     12  O   UNL     1       2.127   2.751  17.018  0.00  0.00    +0.000 OA
ATOM     13  H   UNL     1       1.282   2.338  16.764  0.00  0.00    +0.000 HD
ENDBRANCH  11  12
ENDBRANCH   3   6
BRANCH   1  14
ATOM     14  C   UNL     1       6.866   5.061  16.434  0.00  0.00    +0.000 C 
BRANCH  14  15
ATOM     15  N   UNL     1       6.549   6.500  16.269  0.00  0.00    +0.000 NA
ATOM     16  C   UNL     1       7.213   7.245  17.346  0.00  0.00    +0.000 C 
BRANCH  15  17
ATOM     17  C   UNL     1       5.089   6.728  16.289  0.00  0.00    +0.000 C 
BRANCH  17  18
ATOM     18  C   UNL     1       4.568   7.425  17.562  0.00  0.00    +0.000 C 
BRANCH  18  20
ATOM     19  C   UNL     1       2.862   6.620  19.272  0.00  0.00    +0.000 C 
ATOM     20  C   UNL     1       3.075   7.186  17.867  0.00  0.00    +0.000 C 
ATOM     21  C   UNL     1       2.295   8.493  17.711  0.00  0.00    +0.000 C 
ENDBRANCH  18  20
ENDBRANCH  17  18
ENDBRANCH  15  17
ENDBRANCH  14  15
ENDBRANCH   1  14
TORSDOF 7
ENDMDL
MODEL 9
REMARK VINA RESULT:      -6.6      2.171      3.809
REMARK  Name = 
REMARK  10 active torsions:
REMARK  status: ('A' for Active; 'I' for Inactive)
REMARK    1  A    between atoms: C_1  and  C_2
REMARK    2  A    between atoms: C_2  and  C_3
REMARK    3  A    between atoms: C_2  and  C_4
REMARK    4  A    between atoms: C_4  and  C_5
REMARK    5  A    between atoms: C_5  and  N_6
REMARK    6  A    between atoms: N_6  and  C_7
REMARK    7  A    between atoms: N_6  and  C_8
REMARK    8  A    between atoms: C_8  and  C_9
REMARK    9  A    between atoms: N_11  and  C_12
REMARK   10  A    between atoms: C_17  and  O_18
REMARK                            x       y       z     vdW  Elec       q    Type
REMARK                         _______ _______ _______ _____ _____    ______ ____
ROOT
ATOM      1  C   UNL     1       4.545   5.985  16.400  0.00  0.00    +0.000 A 
ATOM      2  C   UNL     1       3.838   4.892  16.856  0.00  0.00    +0.000 A 
ATOM      3  N   UNL     1       3.101   5.384  17.892  0.00  0.00    +0.000 N 
ATOM      4  N   UNL     1       3.342   6.696  18.083  0.00  0.00    +0.000 NA
ATOM      5  N   UNL     1       4.231   7.073  17.175  0.00  0.00    +0.000 NA
ENDROOT
BRANCH   3   6
ATOM      6  C   UNL     1       2.104   4.714  18.714  0.00  0.00    +0.000 C 
ATOM      7  C   UNL     1       1.799   3.307  18.174  0.00  0.00    +0.000 C 
ATOM      8  C   UNL     1       0.791   2.563  19.047  0.00  0.00    +0.000 C 
ATOM      9  C   UNL     1       1.236   2.522  20.504  0.00  0.00    +0.000 C 
ATOM     10  C   UNL     1       1.484   3.924  21.044  0.00  0.00    +0.000 C 
ATOM     11  C   UNL     1       2.507   4.688  20.200  0.00  0.00    +0.000 C 
BRANCH  11  12
ATOM     12  O   UNL     1       2.628   6.001  20.750  0.00  0.00    +0.000 OA
ATOM     13  H   UNL     1       3.383   6.022  21.366  0.00  0.00    +0.000 HD
ENDBRANCH  11  12
ENDBRANCH   3   6
BRANCH   1  14
ATOM     14  C   UNL     1       5.504   6.114  15.265  0.00  0.00    +0.000 C 
BRANCH  14  15
ATOM     15  N   UNL     1       6.805   5.463  15.553  0.00  0.00    +0.000 NA
ATOM     16  C   UNL     1       7.272   4.804  14.327  0.00  0.00    +0.000 C 
BRANCH  15  17
ATOM     17  C   UNL     1       6.680   4.495  16.662  0.00  0.00    +0.000 C 
BRANCH  17  18
ATOM     18  C   UNL     1       7.847   4.522  17.669  0.00  0.00    +0.000 C 
BRANCH  18  20
ATOM     19  C   UNL     1       7.856   6.994  18.281  0.00  0.00    +0.000 C 
ATOM     20  C   UNL     1       7.704   5.562  18.799  0.00  0.00    +0.000 C 
ATOM     21  C   UNL     1       6.346   5.402  19.487  0.00  0.00    +0.000 C 
ENDBRANCH  18  20
ENDBRANCH  17  18
ENDBRANCH  15  17
ENDBRANCH  14  15
ENDBRANCH   1  14
TORSDOF 7
ENDMDL
