MODEL 1
REMARK VINA RESULT:      -5.6      0.000      0.000
REMARK  Name = 
REMARK  3 active torsions:
REMARK  status: ('A' for Active; 'I' for Inactive)
REMARK    1  A    between atoms: C_1  and  C_2
REMARK    2  A    between atoms: C_2  and  C_7
REMARK    3  A    between atoms: N_3  and  N_4
REMARK                            x       y       z     vdW  Elec       q    Type
REMARK                         _______ _______ _______ _____ _____    ______ ____
ROOT
ATOM      1  C   UNL     1       2.595   3.350  17.471  0.00  0.00    +0.000 C 
ATOM      2  C   UNL     1       3.759   3.825  18.324  0.00  0.00    +0.000 C 
ATOM      3  N   UNL     1       3.730   3.969  19.621  0.00  0.00    +0.000 NA
ENDROOT
BRANCH   2   4
ATOM      4  C   UNL     1       5.044   4.134  17.598  0.00  0.00    +0.000 A 
ATOM      5  C   UNL     1       5.153   3.994  16.211  0.00  0.00    +0.000 A 
ATOM      6  C   UNL     1       6.370   4.267  15.610  0.00  0.00    +0.000 A 
ATOM      7  N   UNL     1       7.463   4.671  16.287  0.00  0.00    +0.000 NA
ATOM      8  C   UNL     1       7.337   4.811  17.623  0.00  0.00    +0.000 A 
ATOM      9  C   UNL     1       6.164   4.561  18.316  0.00  0.00    +0.000 A 
ENDBRANCH   2   4
BRANCH   3  10
ATOM     10  N   UNL     1       2.590   3.700  20.307  0.00  0.00    +0.000 N 
ATOM     11  C   UNL     1       2.594   2.840  21.373  0.00  0.00    +0.000 C 
ATOM     12  O   UNL     1       1.592   2.560  22.019  0.00  0.00    +0.000 OA
ATOM     13  H   UNL     1       1.697   4.110  20.073  0.00  0.00    +0.000 HD
ENDBRANCH   3  10
TORSDOF 2
ENDMDL
MODEL 2
REMARK VINA RESULT:      -5.6      0.660      1.508
REMARK  Name = 
REMARK  3 active torsions:
REMARK  status: ('A' for Active; 'I' for Inactive)
REMARK    1  A    between atoms: C_1  and  C_2
REMARK    2  A    between atoms: C_2  and  C_7
REMARK    3  A    between atoms: N_3  and  N_4
REMARK                            x       y       z     vdW  Elec       q    Type
REMARK                         _______ _______ _______ _____ _____    ______ ____
ROOT
ATOM      1  C   UNL     1       2.603   4.744  18.187  0.00  0.00    +0.000 C 
ATOM      2  C   UNL     1       3.785   3.841  18.502  0.00  0.00    +0.000 C 
ATOM      3  N   UNL     1       3.769   2.854  19.356  0.00  0.00    +0.000 NA
ENDROOT
BRANCH   2   4
ATOM      4  C   UNL     1       5.061   4.116  17.748  0.00  0.00    +0.000 A 
ATOM      5  C   UNL     1       6.203   4.601  18.393  0.00  0.00    +0.000 A 
ATOM      6  C   UNL     1       7.333   4.861  17.635  0.00  0.00    +0.000 A 
ATOM      7  N   UNL     1       7.401   4.664  16.304  0.00  0.00    +0.000 NA
ATOM      8  C   UNL     1       6.293   4.186  15.700  0.00  0.00    +0.000 A 
ATOM      9  C   UNL     1       5.115   3.897  16.369  0.00  0.00    +0.000 A 
ENDBRANCH   2   4
BRANCH   3  10
ATOM     10  N   UNL     1       2.637   2.579  20.052  0.00  0.00    +0.000 N 
ATOM     11  C   UNL     1       2.571   2.791  21.404  0.00  0.00    +0.000 C 
ATOM     12  O   UNL     1       1.576   2.555  22.077  0.00  0.00    +0.000 OA
ATOM     13  H   UNL     1       1.800   2.213  19.621  0.00  0.00    +0.000 HD
ENDBRANCH   3  10
TORSDOF 2
ENDMDL
MODEL 3
REMARK VINA RESULT:      -5.5      1.798      2.320
REMARK  Name = 
REMARK  3 active torsions:
REMARK  status: ('A' for Active; 'I' for Inactive)
REMARK    1  A    between atoms: C_1  and  C_2
REMARK    2  A    between atoms: C_2  and  C_7
REMARK    3  A    between atoms: N_3  and  N_4
REMARK                            x       y       z     vdW  Elec       q    Type
REMARK                         _______ _______ _______ _____ _____    ______ ____
ROOT
ATOM      1  C   UNL     1       3.102   5.841  17.981  0.00  0.00    +0.000 C 
ATOM      2  C   UNL     1       3.663   4.518  17.487  0.00  0.00    +0.000 C 
ATOM      3  N   UNL     1       2.999   3.397  17.426  0.00  0.00    +0.000 NA
ENDROOT
BRANCH   2   4
ATOM      4  C   UNL     1       5.098   4.528  17.024  0.00  0.00    +0.000 A 
ATOM      5  C   UNL     1       6.160   4.590  17.932  0.00  0.00    +0.000 A 
ATOM      6  C   UNL     1       7.454   4.626  17.437  0.00  0.00    +0.000 A 
ATOM      7  N   UNL     1       7.753   4.594  16.124  0.00  0.00    +0.000 NA
ATOM      8  C   UNL     1       6.716   4.523  15.263  0.00  0.00    +0.000 A 
ATOM      9  C   UNL     1       5.389   4.485  15.658  0.00  0.00    +0.000 A 
ENDBRANCH   2   4
BRANCH   3  10
ATOM     10  N   UNL     1       1.706   3.353  17.836  0.00  0.00    +0.000 N 
ATOM     11  C   UNL     1       1.256   2.344  18.646  0.00  0.00    +0.000 C 
ATOM     12  O   UNL     1       0.099   2.257  19.038  0.00  0.00    +0.000 OA
ATOM     13  H   UNL     1       1.020   4.046  17.571  0.00  0.00    +0.000 HD
ENDBRANCH   3  10
TORSDOF 2
ENDMDL
MODEL 4
REMARK VINA RESULT:      -5.5      3.625      5.313
REMARK  Name = 
REMARK  3 active torsions:
REMARK  status: ('A' for Active; 'I' for Inactive)
REMARK    1  A    between atoms: C_1  and  C_2
REMARK    2  A    between atoms: C_2  and  C_7
REMARK    3  A    between atoms: N_3  and  N_4
REMARK                            x       y       z     vdW  Elec       q    Type
REMARK                         _______ _______ _______ _____ _____    ______ ____
ROOT
ATOM      1  C   UNL     1       3.436   7.132  17.796  0.00  0.00    +0.000 C 
ATOM      2  C   UNL     1       4.097   5.821  17.405  0.00  0.00    +0.000 C 
ATOM      3  N   UNL     1       5.282   5.707  16.869  0.00  0.00    +0.000 NA
ENDROOT
BRANCH   2   4
ATOM      4  C   UNL     1       3.310   4.563  17.677  0.00  0.00    +0.000 A 
ATOM      5  C   UNL     1       1.953   4.606  18.011  0.00  0.00    +0.000 A 
ATOM      6  C   UNL     1       1.298   3.416  18.278  0.00  0.00    +0.000 A 
ATOM      7  N   UNL     1       1.891   2.208  18.226  0.00  0.00    +0.000 NA
ATOM      8  C   UNL     1       3.199   2.184  17.892  0.00  0.00    +0.000 A 
ATOM      9  C   UNL     1       3.942   3.319  17.609  0.00  0.00    +0.000 A 
ENDBRANCH   2   4
BRANCH   3  10
ATOM     10  N   UNL     1       6.017   6.818  16.610  0.00  0.00    +0.000 N 
ATOM     11  C   UNL     1       7.120   7.125  17.361  0.00  0.00    +0.000 C 
ATOM     12  O   UNL     1       7.812   8.117  17.171  0.00  0.00    +0.000 OA
ATOM     13  H   UNL     1       5.794   7.464  15.867  0.00  0.00    +0.000 HD
ENDBRANCH   3  10
TORSDOF 2
ENDMDL
MODEL 5
REMARK VINA RESULT:      -5.5      1.440      1.872
REMARK  Name = 
REMARK  3 active torsions:
REMARK  status: ('A' for Active; 'I' for Inactive)
REMARK    1  A    between atoms: C_1  and  C_2
REMARK    2  A    between atoms: C_2  and  C_7
REMARK    3  A    between atoms: N_3  and  N_4
REMARK                            x       y       z     vdW  Elec       q    Type
REMARK                         _______ _______ _______ _____ _____    ______ ____
ROOT
ATOM      1  C   UNL     1       3.282   2.175  17.823  0.00  0.00    +0.000 C 
ATOM      2  C   UNL     1       3.750   3.487  18.429  0.00  0.00    +0.000 C 
ATOM      3  N   UNL     1       3.687   3.794  19.696  0.00  0.00    +0.000 NA
ENDROOT
BRANCH   2   4
ATOM      4  C   UNL     1       4.343   4.495  17.476  0.00  0.00    +0.000 A 
ATOM      5  C   UNL     1       4.260   5.869  17.718  0.00  0.00    +0.000 A 
ATOM      6  C   UNL     1       4.799   6.740  16.787  0.00  0.00    +0.000 A 
ATOM      7  N   UNL     1       5.412   6.340  15.655  0.00  0.00    +0.000 NA
ATOM      8  C   UNL     1       5.491   5.009  15.443  0.00  0.00    +0.000 A 
ATOM      9  C   UNL     1       4.982   4.059  16.312  0.00  0.00    +0.000 A 
ENDBRANCH   2   4
BRANCH   3  10
ATOM     10  N   UNL     1       3.159   2.911  20.580  0.00  0.00    +0.000 N 
ATOM     11  C   UNL     1       2.122   3.269  21.401  0.00  0.00    +0.000 C 
ATOM     12  O   UNL     1       1.614   2.511  22.218  0.00  0.00    +0.000 OA
ATOM     13  H   UNL     1       3.494   1.963  20.679  0.00  0.00    +0.000 HD
ENDBRANCH   3  10
TORSDOF 2
ENDMDL
MODEL 6
REMARK VINA RESULT:      -5.5      1.442      1.584
REMARK  Name = 
REMARK  3 active torsions:
REMARK  status: ('A' for Active; 'I' for Inactive)
REMARK    1  A    between atoms: C_1  and  C_2
REMARK    2  A    between atoms: C_2  and  C_7
REMARK    3  A    between atoms: N_3  and  N_4
REMARK                            x       y       z     vdW  Elec       q    Type
REMARK                         _______ _______ _______ _____ _____    ______ ____
ROOT
ATOM      1  C   UNL     1       2.443   2.656  17.599  0.00  0.00    +0.000 C 
ATOM      2  C   UNL     1       3.440   3.604  18.243  0.00  0.00    +0.000 C 
ATOM      3  N   UNL     1       3.730   3.638  19.515  0.00  0.00    +0.000 NA
ENDROOT
BRANCH   2   4
ATOM      4  C   UNL     1       4.149   4.564  17.320  0.00  0.00    +0.000 A 
ATOM      5  C   UNL     1       4.896   4.113  16.228  0.00  0.00    +0.000 A 
ATOM      6  C   UNL     1       5.546   5.048  15.439  0.00  0.00    +0.000 A 
ATOM      7  N   UNL     1       5.494   6.376  15.656  0.00  0.00    +0.000 NA
ATOM      8  C   UNL     1       4.760   6.794  16.709  0.00  0.00    +0.000 A 
ATOM      9  C   UNL     1       4.075   5.939  17.558  0.00  0.00    +0.000 A 
ENDBRANCH   2   4
BRANCH   3  10
ATOM     10  N   UNL     1       3.111   2.789  20.373  0.00  0.00    +0.000 N 
ATOM     11  C   UNL     1       2.255   3.257  21.335  0.00  0.00    +0.000 C 
ATOM     12  O   UNL     1       1.676   2.534  22.135  0.00  0.00    +0.000 OA
ATOM     13  H   UNL     1       3.243   1.788  20.350  0.00  0.00    +0.000 HD
ENDBRANCH   3  10
TORSDOF 2
ENDMDL
MODEL 7
REMARK VINA RESULT:      -5.5      1.451      1.824
REMARK  Name = 
REMARK  3 active torsions:
REMARK  status: ('A' for Active; 'I' for Inactive)
REMARK    1  A    between atoms: C_1  and  C_2
REMARK    2  A    between atoms: C_2  and  C_7
REMARK    3  A    between atoms: N_3  and  N_4
REMARK                            x       y       z     vdW  Elec       q    Type
REMARK                         _______ _______ _______ _____ _____    ______ ____
ROOT
ATOM      1  C   UNL     1       1.535   4.088  17.884  0.00  0.00    +0.000 C 
ATOM      2  C   UNL     1       2.868   4.547  18.451  0.00  0.00    +0.000 C 
ATOM      3  N   UNL     1       3.180   4.562  19.719  0.00  0.00    +0.000 NA
ENDROOT
BRANCH   2   4
ATOM      4  C   UNL     1       3.903   5.005  17.454  0.00  0.00    +0.000 A 
ATOM      5  C   UNL     1       4.267   6.350  17.341  0.00  0.00    +0.000 A 
ATOM      6  C   UNL     1       5.201   6.706  16.384  0.00  0.00    +0.000 A 
ATOM      7  N   UNL     1       5.793   5.826  15.553  0.00  0.00    +0.000 NA
ATOM      8  C   UNL     1       5.437   4.530  15.683  0.00  0.00    +0.000 A 
ATOM      9  C   UNL     1       4.511   4.075  16.607  0.00  0.00    +0.000 A 
ENDBRANCH   2   4
BRANCH   3  10
ATOM     10  N   UNL     1       2.272   4.157  20.643  0.00  0.00    +0.000 N 
ATOM     11  C   UNL     1       2.446   2.990  21.340  0.00  0.00    +0.000 C 
ATOM     12  O   UNL     1       1.655   2.580  22.179  0.00  0.00    +0.000 OA
ATOM     13  H   UNL     1       1.438   4.682  20.863  0.00  0.00    +0.000 HD
ENDBRANCH   3  10
TORSDOF 2
ENDMDL
MODEL 8
REMARK VINA RESULT:      -5.5      3.628      5.330
REMARK  Name = 
REMARK  3 active torsions:
REMARK  status: ('A' for Active; 'I' for Inactive)
REMARK    1  A    between atoms: C_1  and  C_2
REMARK    2  A    between atoms: C_2  and  C_7
REMARK    3  A    between atoms: N_3  and  N_4
REMARK                            x       y       z     vdW  Elec       q    Type
REMARK                         _______ _______ _______ _____ _____    ______ ____
ROOT
ATOM      1  C   UNL     1       3.448   7.135  17.747  0.00  0.00    +0.000 C 
ATOM      2  C   UNL     1       4.129   5.820  17.406  0.00  0.00    +0.000 C 
ATOM      3  N   UNL     1       5.326   5.704  16.899  0.00  0.00    +0.000 NA
ENDROOT
BRANCH   2   4
ATOM      4  C   UNL     1       3.349   4.562  17.698  0.00  0.00    +0.000 A 
ATOM      5  C   UNL     1       3.936   3.297  17.599  0.00  0.00    +0.000 A 
ATOM      6  C   UNL     1       3.154   2.182  17.852  0.00  0.00    +0.000 A 
ATOM      7  N   UNL     1       1.854   2.244  18.197  0.00  0.00    +0.000 NA
ATOM      8  C   UNL     1       1.307   3.474  18.297  0.00  0.00    +0.000 A 
ATOM      9  C   UNL     1       2.003   4.648  18.063  0.00  0.00    +0.000 A 
ENDBRANCH   2   4
BRANCH   3  10
ATOM     10  N   UNL     1       6.055   6.815  16.624  0.00  0.00    +0.000 N 
ATOM     11  C   UNL     1       7.152   7.143  17.376  0.00  0.00    +0.000 C 
ATOM     12  O   UNL     1       7.839   8.136  17.172  0.00  0.00    +0.000 OA
ATOM     13  H   UNL     1       5.834   7.446  15.867  0.00  0.00    +0.000 HD
ENDBRANCH   3  10
TORSDOF 2
ENDMDL
MODEL 9
REMARK VINA RESULT:      -5.4      3.448      4.731
REMARK  Name = 
REMARK  3 active torsions:
REMARK  status: ('A' for Active; 'I' for Inactive)
REMARK    1  A    between atoms: C_1  and  C_2
REMARK    2  A    between atoms: C_2  and  C_7
REMARK    3  A    between atoms: N_3  and  N_4
REMARK                            x       y       z     vdW  Elec       q    Type
REMARK                         _______ _______ _______ _____ _____    ______ ____
ROOT
ATOM      1  C   UNL     1       5.054   4.061  16.443  0.00  0.00    +0.000 C 
ATOM      2  C   UNL     1       6.489   4.308  16.011  0.00  0.00    +0.000 C 
ATOM      3  N   UNL     1       7.499   4.474  16.821  0.00  0.00    +0.000 NA
ENDROOT
BRANCH   2   4
ATOM      4  C   UNL     1       6.747   4.349  14.526  0.00  0.00    +0.000 A 
ATOM      5  C   UNL     1       7.659   5.249  13.965  0.00  0.00    +0.000 A 
ATOM      6  C   UNL     1       7.825   5.253  12.590  0.00  0.00    +0.000 A 
ATOM      7  N   UNL     1       7.163   4.429  11.754  0.00  0.00    +0.000 NA
ATOM      8  C   UNL     1       6.296   3.560  12.314  0.00  0.00    +0.000 A 
ATOM      9  C   UNL     1       6.057   3.480  13.676  0.00  0.00    +0.000 A 
ENDBRANCH   2   4
BRANCH   3  10
ATOM     10  N   UNL     1       7.302   4.444  18.164  0.00  0.00    +0.000 N 
ATOM     11  C   UNL     1       7.702   5.486  18.959  0.00  0.00    +0.000 C 
ATOM     12  O   UNL     1       7.552   5.505  20.174  0.00  0.00    +0.000 OA
ATOM     13  H   UNL     1       6.860   3.670  18.638  0.00  0.00    +0.000 HD
ENDBRANCH   3  10
TORSDOF 2
ENDMDL
