MODEL 1
REMARK VINA RESULT:      -8.4      0.000      0.000
REMARK  Name = 
REMARK  9 active torsions:
REMARK  status: ('A' for Active; 'I' for Inactive)
REMARK    1  A    between atoms: C_1  and  C_2
REMARK    2  A    between atoms: C_2  and  C_3
REMARK    3  A    between atoms: C_3  and  C_4
REMARK    4  A    between atoms: C_4  and  N_5
REMARK    5  A    between atoms: C_6  and  N_7
REMARK    6  A    between atoms: C_8  and  C_9
REMARK    7  A    between atoms: N_11  and  C_12
REMARK    8  A    between atoms: C_12  and  C_13
REMARK    9  A    between atoms: C_13  and  N_14
REMARK                            x       y       z     vdW  Elec       q    Type
REMARK                         _______ _______ _______ _____ _____    ______ ____
ROOT
ATOM      1  N   UNL     1       5.792   4.891  15.789  0.00  0.00    +0.000 N 
ATOM      2  C   UNL     1       5.868   6.304  15.860  0.00  0.00    +0.000 A 
ATOM      3  C   UNL     1       6.121   6.422  17.217  0.00  0.00    +0.000 A 
ATOM      4  C   UNL     1       5.084   5.648  17.712  0.00  0.00    +0.000 A 
ATOM      5  N   UNL     1       4.512   5.771  18.918  0.00  0.00    +0.000 NA
ATOM      6  C   UNL     1       3.522   4.951  19.121  0.00  0.00    +0.000 A 
ATOM      7  C   UNL     1       2.768   5.292  20.228  0.00  0.00    +0.000 A 
ATOM      8  C   UNL     1       1.634   4.580  20.546  0.00  0.00    +0.000 A 
ATOM      9  C   UNL     1       1.303   3.493  19.748  0.00  0.00    +0.000 A 
ATOM     10  C   UNL     1       2.104   3.140  18.630  0.00  0.00    +0.000 A 
ATOM     11  C   UNL     1       3.237   3.860  18.236  0.00  0.00    +0.000 A 
ATOM     12  N   UNL     1       3.995   3.587  17.081  0.00  0.00    +0.000 NA
ATOM     13  C   UNL     1       4.902   4.571  16.825  0.00  0.00    +0.000 A 
ENDROOT
BRANCH   3  14
ATOM     14  C   UNL     1       7.310   6.717  17.990  0.00  0.00    +0.000 C 
ATOM     15  O   UNL     1       7.814   5.926  18.778  0.00  0.00    +0.000 OA
ATOM     16  N   UNL     1       7.724   8.034  17.843  0.00  0.00    +0.000 N 
ATOM     17  H   UNL     1       7.189   8.637  17.222  0.00  0.00    +0.000 HD
BRANCH  16  18
ATOM     18  C   UNL     1       8.711   8.678  18.672  0.00  0.00    +0.000 C 
BRANCH  18  19
ATOM     19  C   UNL     1       8.820  10.163  18.332  0.00  0.00    +0.000 C 
BRANCH  19  20
ATOM     20  N   UNL     1      10.083  10.803  18.719  0.00  0.00    +0.000 NA
ATOM     21  C   UNL     1       9.904  11.479  20.027  0.00  0.00    +0.000 C 
ATOM     22  C   UNL     1       9.116  12.801  19.952  0.00  0.00    +0.000 C 
ATOM     23  O   UNL     1       9.723  13.711  19.029  0.00  0.00    +0.000 OA
ATOM     24  C   UNL     1       9.786  13.127  17.722  0.00  0.00    +0.000 C 
ATOM     25  C   UNL     1      10.568  11.803  17.742  0.00  0.00    +0.000 C 
ENDBRANCH  19  20
ENDBRANCH  18  19
ENDBRANCH  16  18
ENDBRANCH   3  14
BRANCH   2  26
ATOM     26  N   UNL     1       4.926   6.920  15.068  0.00  0.00    +0.000 N 
ATOM     27  H   UNL     1       5.258   7.235  14.153  0.00  0.00    +0.000 HD
ATOM     28  H   UNL     1       4.121   6.321  14.853  0.00  0.00    +0.000 HD
ENDBRANCH   2  26
BRANCH   1  29
ATOM     29  C   UNL     1       6.667   4.346  14.774  0.00  0.00    +0.000 C 
BRANCH  29  30
ATOM     30  C   UNL     1       6.546   4.338  13.262  0.00  0.00    +0.000 C 
BRANCH  30  32
ATOM     31  C   UNL     1       4.663   3.465  11.749  0.00  0.00    +0.000 C 
ATOM     32  C   UNL     1       5.872   3.144  12.614  0.00  0.00    +0.000 C 
ENDBRANCH  30  32
ENDBRANCH  29  30
ENDBRANCH   1  29
TORSDOF 8
ENDMDL
MODEL 2
REMARK VINA RESULT:      -8.2      0.673      1.054
REMARK  Name = 
REMARK  9 active torsions:
REMARK  status: ('A' for Active; 'I' for Inactive)
REMARK    1  A    between atoms: C_1  and  C_2
REMARK    2  A    between atoms: C_2  and  C_3
REMARK    3  A    between atoms: C_3  and  C_4
REMARK    4  A    between atoms: C_4  and  N_5
REMARK    5  A    between atoms: C_6  and  N_7
REMARK    6  A    between atoms: C_8  and  C_9
REMARK    7  A    between atoms: N_11  and  C_12
REMARK    8  A    between atoms: C_12  and  C_13
REMARK    9  A    between atoms: C_13  and  N_14
REMARK                            x       y       z     vdW  Elec       q    Type
REMARK                         _______ _______ _______ _____ _____    ______ ____
ROOT
ATOM      1  N   UNL     1       5.650   4.989  15.722  0.00  0.00    +0.000 N 
ATOM      2  C   UNL     1       5.738   6.402  15.763  0.00  0.00    +0.000 A 
ATOM      3  C   UNL     1       6.000   6.546  17.115  0.00  0.00    +0.000 A 
ATOM      4  C   UNL     1       4.960   5.792  17.633  0.00  0.00    +0.000 A 
ATOM      5  N   UNL     1       4.395   5.945  18.839  0.00  0.00    +0.000 NA
ATOM      6  C   UNL     1       3.400   5.139  19.065  0.00  0.00    +0.000 A 
ATOM      7  C   UNL     1       2.655   5.509  20.169  0.00  0.00    +0.000 A 
ATOM      8  C   UNL     1       1.517   4.814  20.508  0.00  0.00    +0.000 A 
ATOM      9  C   UNL     1       1.172   3.713  19.735  0.00  0.00    +0.000 A 
ATOM     10  C   UNL     1       1.963   3.330  18.620  0.00  0.00    +0.000 A 
ATOM     11  C   UNL     1       3.101   4.032  18.205  0.00  0.00    +0.000 A 
ATOM     12  N   UNL     1       3.849   3.728  17.051  0.00  0.00    +0.000 NA
ATOM     13  C   UNL     1       4.763   4.698  16.769  0.00  0.00    +0.000 A 
ENDROOT
BRANCH   3  14
ATOM     14  C   UNL     1       7.196   6.848  17.876  0.00  0.00    +0.000 C 
ATOM     15  O   UNL     1       7.712   6.060  18.659  0.00  0.00    +0.000 OA
ATOM     16  N   UNL     1       7.604   8.166  17.722  0.00  0.00    +0.000 N 
ATOM     17  H   UNL     1       7.059   8.766  17.106  0.00  0.00    +0.000 HD
BRANCH  16  18
ATOM     18  C   UNL     1       8.597   8.815  18.539  0.00  0.00    +0.000 C 
BRANCH  18  19
ATOM     19  C   UNL     1       8.949  10.190  17.975  0.00  0.00    +0.000 C 
BRANCH  19  20
ATOM     20  N   UNL     1       9.076  11.261  18.972  0.00  0.00    +0.000 NA
ATOM     21  C   UNL     1       9.031  12.574  18.282  0.00  0.00    +0.000 C 
ATOM     22  C   UNL     1      10.330  12.943  17.540  0.00  0.00    +0.000 C 
ATOM     23  O   UNL     1      11.456  12.912  18.425  0.00  0.00    +0.000 OA
ATOM     24  C   UNL     1      11.599  11.608  19.003  0.00  0.00    +0.000 C 
ATOM     25  C   UNL     1      10.326  11.194  19.761  0.00  0.00    +0.000 C 
ENDBRANCH  19  20
ENDBRANCH  18  19
ENDBRANCH  16  18
ENDBRANCH   3  14
BRANCH   2  26
ATOM     26  N   UNL     1       4.797   7.010  14.963  0.00  0.00    +0.000 N 
ATOM     27  H   UNL     1       4.335   6.400  14.285  0.00  0.00    +0.000 HD
ATOM     28  H   UNL     1       4.025   7.431  15.493  0.00  0.00    +0.000 HD
ENDBRANCH   2  26
BRANCH   1  29
ATOM     29  C   UNL     1       6.514   4.415  14.713  0.00  0.00    +0.000 C 
BRANCH  29  30
ATOM     30  C   UNL     1       6.241   3.356  13.662  0.00  0.00    +0.000 C 
BRANCH  30  32
ATOM     31  C   UNL     1       4.617   3.277  11.674  0.00  0.00    +0.000 C 
ATOM     32  C   UNL     1       5.910   3.825  12.258  0.00  0.00    +0.000 C 
ENDBRANCH  30  32
ENDBRANCH  29  30
ENDBRANCH   1  29
TORSDOF 8
ENDMDL
MODEL 3
REMARK VINA RESULT:      -7.9      1.681      4.754
REMARK  Name = 
REMARK  9 active torsions:
REMARK  status: ('A' for Active; 'I' for Inactive)
REMARK    1  A    between atoms: C_1  and  C_2
REMARK    2  A    between atoms: C_2  and  C_3
REMARK    3  A    between atoms: C_3  and  C_4
REMARK    4  A    between atoms: C_4  and  N_5
REMARK    5  A    between atoms: C_6  and  N_7
REMARK    6  A    between atoms: C_8  and  C_9
REMARK    7  A    between atoms: N_11  and  C_12
REMARK    8  A    between atoms: C_12  and  C_13
REMARK    9  A    between atoms: C_13  and  N_14
REMARK                            x       y       z     vdW  Elec       q    Type
REMARK                         _______ _______ _______ _____ _____    ______ ____
ROOT
ATOM      1  N   UNL     1       6.047   4.696  17.971  0.00  0.00    +0.000 N 
ATOM      2  C   UNL     1       7.333   5.202  18.280  0.00  0.00    +0.000 A 
ATOM      3  C   UNL     1       7.370   6.232  17.354  0.00  0.00    +0.000 A 
ATOM      4  C   UNL     1       7.039   5.525  16.210  0.00  0.00    +0.000 A 
ATOM      5  N   UNL     1       7.382   5.847  14.954  0.00  0.00    +0.000 NA
ATOM      6  C   UNL     1       6.988   4.989  14.060  0.00  0.00    +0.000 A 
ATOM      7  C   UNL     1       7.599   5.178  12.835  0.00  0.00    +0.000 A 
ATOM      8  C   UNL     1       7.359   4.310  11.794  0.00  0.00    +0.000 A 
ATOM      9  C   UNL     1       6.458   3.275  12.004  0.00  0.00    +0.000 A 
ATOM     10  C   UNL     1       5.819   3.110  13.261  0.00  0.00    +0.000 A 
ATOM     11  C   UNL     1       6.066   3.935  14.365  0.00  0.00    +0.000 A 
ATOM     12  N   UNL     1       5.515   3.738  15.646  0.00  0.00    +0.000 NA
ATOM     13  C   UNL     1       6.093   4.551  16.576  0.00  0.00    +0.000 A 
ENDROOT
BRANCH   3  14
ATOM     14  C   UNL     1       7.218   7.670  17.452  0.00  0.00    +0.000 C 
ATOM     15  O   UNL     1       6.304   8.287  16.920  0.00  0.00    +0.000 OA
ATOM     16  N   UNL     1       8.293   8.274  18.091  0.00  0.00    +0.000 N 
ATOM     17  H   UNL     1       9.045   7.677  18.429  0.00  0.00    +0.000 HD
BRANCH  16  18
ATOM     18  C   UNL     1       8.540   9.693  18.110  0.00  0.00    +0.000 C 
BRANCH  18  19
ATOM     19  C   UNL     1       9.304  10.093  19.370  0.00  0.00    +0.000 C 
BRANCH  19  20
ATOM     20  N   UNL     1      10.332  11.123  19.177  0.00  0.00    +0.000 NA
ATOM     21  C   UNL     1      10.669  11.725  20.491  0.00  0.00    +0.000 C 
ATOM     22  C   UNL     1       9.611  12.708  21.026  0.00  0.00    +0.000 C 
ATOM     23  O   UNL     1       9.352  13.752  20.081  0.00  0.00    +0.000 OA
ATOM     24  C   UNL     1       8.895  13.199  18.841  0.00  0.00    +0.000 C 
ATOM     25  C   UNL     1       9.921  12.211  18.261  0.00  0.00    +0.000 C 
ENDBRANCH  19  20
ENDBRANCH  18  19
ENDBRANCH  16  18
ENDBRANCH   3  14
BRANCH   2  26
ATOM     26  N   UNL     1       8.242   4.201  18.542  0.00  0.00    +0.000 N 
ATOM     27  H   UNL     1       8.931   4.411  19.267  0.00  0.00    +0.000 HD
ATOM     28  H   UNL     1       7.804   3.327  18.855  0.00  0.00    +0.000 HD
ENDBRANCH   2  26
BRANCH   1  29
ATOM     29  C   UNL     1       5.203   4.592  19.141  0.00  0.00    +0.000 C 
BRANCH  29  30
ATOM     30  C   UNL     1       3.923   5.319  19.506  0.00  0.00    +0.000 C 
BRANCH  30  32
ATOM     31  C   UNL     1       2.983   7.243  18.087  0.00  0.00    +0.000 C 
ATOM     32  C   UNL     1       3.009   5.750  18.374  0.00  0.00    +0.000 C 
ENDBRANCH  30  32
ENDBRANCH  29  30
ENDBRANCH   1  29
TORSDOF 8
ENDMDL
MODEL 4
REMARK VINA RESULT:      -7.7      1.569      4.748
REMARK  Name = 
REMARK  9 active torsions:
REMARK  status: ('A' for Active; 'I' for Inactive)
REMARK    1  A    between atoms: C_1  and  C_2
REMARK    2  A    between atoms: C_2  and  C_3
REMARK    3  A    between atoms: C_3  and  C_4
REMARK    4  A    between atoms: C_4  and  N_5
REMARK    5  A    between atoms: C_6  and  N_7
REMARK    6  A    between atoms: C_8  and  C_9
REMARK    7  A    between atoms: N_11  and  C_12
REMARK    8  A    between atoms: C_12  and  C_13
REMARK    9  A    between atoms: C_13  and  N_14
REMARK                            x       y       z     vdW  Elec       q    Type
REMARK                         _______ _______ _______ _____ _____    ______ ____
ROOT
ATOM      1  N   UNL     1       5.733   5.202  18.158  0.00  0.00    +0.000 N 
ATOM      2  C   UNL     1       7.051   5.560  18.534  0.00  0.00    +0.000 A 
ATOM      3  C   UNL     1       7.282   6.517  17.559  0.00  0.00    +0.000 A 
ATOM      4  C   UNL     1       6.939   5.787  16.433  0.00  0.00    +0.000 A 
ATOM      5  N   UNL     1       7.404   5.984  15.191  0.00  0.00    +0.000 NA
ATOM      6  C   UNL     1       6.961   5.128  14.318  0.00  0.00    +0.000 A 
ATOM      7  C   UNL     1       7.671   5.162  13.132  0.00  0.00    +0.000 A 
ATOM      8  C   UNL     1       7.391   4.268  12.125  0.00  0.00    +0.000 A 
ATOM      9  C   UNL     1       6.352   3.369  12.323  0.00  0.00    +0.000 A 
ATOM     10  C   UNL     1       5.614   3.365  13.537  0.00  0.00    +0.000 A 
ATOM     11  C   UNL     1       5.892   4.220  14.610  0.00  0.00    +0.000 A 
ATOM     12  N   UNL     1       5.237   4.174  15.855  0.00  0.00    +0.000 NA
ATOM     13  C   UNL     1       5.852   4.965  16.780  0.00  0.00    +0.000 A 
ENDROOT
BRANCH   3  14
ATOM     14  C   UNL     1       7.312   7.966  17.568  0.00  0.00    +0.000 C 
ATOM     15  O   UNL     1       6.542   8.659  16.915  0.00  0.00    +0.000 OA
ATOM     16  N   UNL     1       8.391   8.470  18.283  0.00  0.00    +0.000 N 
ATOM     17  H   UNL     1       9.022   7.806  18.726  0.00  0.00    +0.000 HD
BRANCH  16  18
ATOM     18  C   UNL     1       8.820   9.845  18.255  0.00  0.00    +0.000 C 
BRANCH  18  19
ATOM     19  C   UNL     1       9.461  10.239  19.584  0.00  0.00    +0.000 C 
BRANCH  19  20
ATOM     20  N   UNL     1       9.670  11.680  19.774  0.00  0.00    +0.000 NA
ATOM     21  C   UNL     1       9.726  12.341  18.447  0.00  0.00    +0.000 C 
ATOM     22  C   UNL     1      11.049  12.125  17.688  0.00  0.00    +0.000 C 
ATOM     23  O   UNL     1      12.169  12.548  18.474  0.00  0.00    +0.000 OA
ATOM     24  C   UNL     1      12.212  11.823  19.710  0.00  0.00    +0.000 C 
ATOM     25  C   UNL     1      10.911  12.010  20.509  0.00  0.00    +0.000 C 
ENDBRANCH  19  20
ENDBRANCH  18  19
ENDBRANCH  16  18
ENDBRANCH   3  14
BRANCH   2  26
ATOM     26  N   UNL     1       7.802   4.472  18.916  0.00  0.00    +0.000 N 
ATOM     27  H   UNL     1       7.340   3.564  18.825  0.00  0.00    +0.000 HD
ATOM     28  H   UNL     1       8.670   4.369  18.378  0.00  0.00    +0.000 HD
ENDBRANCH   2  26
BRANCH   1  29
ATOM     29  C   UNL     1       4.807   5.279  19.267  0.00  0.00    +0.000 C 
BRANCH  29  30
ATOM     30  C   UNL     1       3.322   4.980  19.339  0.00  0.00    +0.000 C 
BRANCH  30  32
ATOM     31  C   UNL     1       1.409   4.247  17.789  0.00  0.00    +0.000 C 
ATOM     32  C   UNL     1       2.767   3.929  18.396  0.00  0.00    +0.000 C 
ENDBRANCH  30  32
ENDBRANCH  29  30
ENDBRANCH   1  29
TORSDOF 8
ENDMDL
MODEL 5
REMARK VINA RESULT:      -7.6      4.182      6.932
REMARK  Name = 
REMARK  9 active torsions:
REMARK  status: ('A' for Active; 'I' for Inactive)
REMARK    1  A    between atoms: C_1  and  C_2
REMARK    2  A    between atoms: C_2  and  C_3
REMARK    3  A    between atoms: C_3  and  C_4
REMARK    4  A    between atoms: C_4  and  N_5
REMARK    5  A    between atoms: C_6  and  N_7
REMARK    6  A    between atoms: C_8  and  C_9
REMARK    7  A    between atoms: N_11  and  C_12
REMARK    8  A    between atoms: C_12  and  C_13
REMARK    9  A    between atoms: C_13  and  N_14
REMARK                            x       y       z     vdW  Elec       q    Type
REMARK                         _______ _______ _______ _____ _____    ______ ____
ROOT
ATOM      1  N   UNL     1       5.384   6.369  16.303  0.00  0.00    +0.000 N 
ATOM      2  C   UNL     1       6.197   5.872  17.351  0.00  0.00    +0.000 A 
ATOM      3  C   UNL     1       5.218   5.190  18.055  0.00  0.00    +0.000 A 
ATOM      4  C   UNL     1       4.277   6.199  18.179  0.00  0.00    +0.000 A 
ATOM      5  N   UNL     1       3.359   6.309  19.149  0.00  0.00    +0.000 NA
ATOM      6  C   UNL     1       2.625   7.379  19.065  0.00  0.00    +0.000 A 
ATOM      7  C   UNL     1       1.904   7.623  20.219  0.00  0.00    +0.000 A 
ATOM      8  C   UNL     1       1.134   8.757  20.335  0.00  0.00    +0.000 A 
ATOM      9  C   UNL     1       1.073   9.616  19.246  0.00  0.00    +0.000 A 
ATOM     10  C   UNL     1       1.799   9.338  18.058  0.00  0.00    +0.000 A 
ATOM     11  C   UNL     1       2.634   8.225  17.908  0.00  0.00    +0.000 A 
ATOM     12  N   UNL     1       3.434   7.975  16.776  0.00  0.00    +0.000 NA
ATOM     13  C   UNL     1       4.305   6.948  16.988  0.00  0.00    +0.000 A 
ENDROOT
BRANCH   3  14
ATOM     14  C   UNL     1       4.878   3.788  18.190  0.00  0.00    +0.000 C 
ATOM     15  O   UNL     1       4.489   3.097  17.257  0.00  0.00    +0.000 OA
ATOM     16  N   UNL     1       4.908   3.360  19.511  0.00  0.00    +0.000 N 
ATOM     17  H   UNL     1       5.170   4.035  20.226  0.00  0.00    +0.000 HD
BRANCH  16  18
ATOM     18  C   UNL     1       4.379   2.103  19.975  0.00  0.00    +0.000 C 
BRANCH  18  19
ATOM     19  C   UNL     1       3.152   1.697  19.161  0.00  0.00    +0.000 C 
BRANCH  19  20
ATOM     20  N   UNL     1       1.892   1.645  19.913  0.00  0.00    +0.000 NA
ATOM     21  C   UNL     1       0.825   2.298  19.116  0.00  0.00    +0.000 C 
ATOM     22  C   UNL     1       0.896   3.837  19.104  0.00  0.00    +0.000 C 
ATOM     23  O   UNL     1       0.881   4.364  20.435  0.00  0.00    +0.000 OA
ATOM     24  C   UNL     1       1.987   3.848  21.187  0.00  0.00    +0.000 C 
ATOM     25  C   UNL     1       1.959   2.311  21.233  0.00  0.00    +0.000 C 
ENDBRANCH  19  20
ENDBRANCH  18  19
ENDBRANCH  16  18
ENDBRANCH   3  14
BRANCH   2  26
ATOM     26  N   UNL     1       7.127   6.794  17.776  0.00  0.00    +0.000 N 
ATOM     27  H   UNL     1       7.062   7.064  18.759  0.00  0.00    +0.000 HD
ATOM     28  H   UNL     1       8.096   6.473  17.665  0.00  0.00    +0.000 HD
ENDBRANCH   2  26
BRANCH   1  29
ATOM     29  C   UNL     1       5.916   6.048  14.997  0.00  0.00    +0.000 C 
BRANCH  29  30
ATOM     30  C   UNL     1       6.555   4.776  14.474  0.00  0.00    +0.000 C 
BRANCH  30  32
ATOM     31  C   UNL     1       6.294   3.397  12.323  0.00  0.00    +0.000 C 
ATOM     32  C   UNL     1       5.692   3.841  13.647  0.00  0.00    +0.000 C 
ENDBRANCH  30  32
ENDBRANCH  29  30
ENDBRANCH   1  29
TORSDOF 8
ENDMDL
MODEL 6
REMARK VINA RESULT:      -7.6      3.609      5.843
REMARK  Name = 
REMARK  9 active torsions:
REMARK  status: ('A' for Active; 'I' for Inactive)
REMARK    1  A    between atoms: C_1  and  C_2
REMARK    2  A    between atoms: C_2  and  C_3
REMARK    3  A    between atoms: C_3  and  C_4
REMARK    4  A    between atoms: C_4  and  N_5
REMARK    5  A    between atoms: C_6  and  N_7
REMARK    6  A    between atoms: C_8  and  C_9
REMARK    7  A    between atoms: N_11  and  C_12
REMARK    8  A    between atoms: C_12  and  C_13
REMARK    9  A    between atoms: C_13  and  N_14
REMARK                            x       y       z     vdW  Elec       q    Type
REMARK                         _______ _______ _______ _____ _____    ______ ____
ROOT
ATOM      1  N   UNL     1       6.198   4.703  18.144  0.00  0.00    +0.000 N 
ATOM      2  C   UNL     1       5.739   4.651  16.806  0.00  0.00    +0.000 A 
ATOM      3  C   UNL     1       4.594   5.416  16.958  0.00  0.00    +0.000 A 
ATOM      4  C   UNL     1       4.017   4.756  18.031  0.00  0.00    +0.000 A 
ATOM      5  N   UNL     1       2.709   4.709  18.320  0.00  0.00    +0.000 NA
ATOM      6  C   UNL     1       2.421   3.979  19.357  0.00  0.00    +0.000 A 
ATOM      7  C   UNL     1       1.070   3.704  19.456  0.00  0.00    +0.000 A 
ATOM      8  C   UNL     1       0.597   2.877  20.448  0.00  0.00    +0.000 A 
ATOM      9  C   UNL     1       1.510   2.369  21.363  0.00  0.00    +0.000 A 
ATOM     10  C   UNL     1       2.891   2.682  21.263  0.00  0.00    +0.000 A 
ATOM     11  C   UNL     1       3.429   3.478  20.245  0.00  0.00    +0.000 A 
ATOM     12  N   UNL     1       4.804   3.729  20.071  0.00  0.00    +0.000 NA
ATOM     13  C   UNL     1       5.059   4.346  18.883  0.00  0.00    +0.000 A 
ENDROOT
BRANCH   3  14
ATOM     14  C   UNL     1       4.247   6.778  16.605  0.00  0.00    +0.000 C 
ATOM     15  O   UNL     1       4.788   7.396  15.696  0.00  0.00    +0.000 OA
ATOM     16  N   UNL     1       3.343   7.342  17.495  0.00  0.00    +0.000 N 
ATOM     17  H   UNL     1       3.011   6.769  18.267  0.00  0.00    +0.000 HD
BRANCH  16  18
ATOM     18  C   UNL     1       3.012   8.743  17.546  0.00  0.00    +0.000 C 
BRANCH  18  19
ATOM     19  C   UNL     1       1.688   8.962  18.275  0.00  0.00    +0.000 C 
BRANCH  19  20
ATOM     20  N   UNL     1       1.653  10.124  19.172  0.00  0.00    +0.000 NA
ATOM     21  C   UNL     1       1.071   9.714  20.474  0.00  0.00    +0.000 C 
ATOM     22  C   UNL     1      -0.458   9.529  20.454  0.00  0.00    +0.000 C 
ATOM     23  O   UNL     1      -1.115  10.716  19.996  0.00  0.00    +0.000 OA
ATOM     24  C   UNL     1      -0.665  11.057  18.679  0.00  0.00    +0.000 C 
ATOM     25  C   UNL     1       0.859  11.258  18.646  0.00  0.00    +0.000 C 
ENDBRANCH  19  20
ENDBRANCH  18  19
ENDBRANCH  16  18
ENDBRANCH   3  14
BRANCH   2  26
ATOM     26  N   UNL     1       5.918   3.410  16.237  0.00  0.00    +0.000 N 
ATOM     27  H   UNL     1       6.311   3.411  15.294  0.00  0.00    +0.000 HD
ATOM     28  H   UNL     1       6.548   2.804  16.775  0.00  0.00    +0.000 HD
ENDBRANCH   2  26
BRANCH   1  29
ATOM     29  C   UNL     1       7.572   5.146  18.236  0.00  0.00    +0.000 C 
BRANCH  29  30
ATOM     30  C   UNL     1       8.154   6.509  18.558  0.00  0.00    +0.000 C 
BRANCH  30  32
ATOM     31  C   UNL     1       8.322   9.026  18.079  0.00  0.00    +0.000 C 
ATOM     32  C   UNL     1       7.713   7.684  17.706  0.00  0.00    +0.000 C 
ENDBRANCH  30  32
ENDBRANCH  29  30
ENDBRANCH   1  29
TORSDOF 8
ENDMDL
MODEL 7
REMARK VINA RESULT:      -7.5      2.588      7.998
REMARK  Name = 
REMARK  9 active torsions:
REMARK  status: ('A' for Active; 'I' for Inactive)
REMARK    1  A    between atoms: C_1  and  C_2
REMARK    2  A    between atoms: C_2  and  C_3
REMARK    3  A    between atoms: C_3  and  C_4
REMARK    4  A    between atoms: C_4  and  N_5
REMARK    5  A    between atoms: C_6  and  N_7
REMARK    6  A    between atoms: C_8  and  C_9
REMARK    7  A    between atoms: N_11  and  C_12
REMARK    8  A    between atoms: C_12  and  C_13
REMARK    9  A    between atoms: C_13  and  N_14
REMARK                            x       y       z     vdW  Elec       q    Type
REMARK                         _______ _______ _______ _____ _____    ______ ____
ROOT
ATOM      1  N   UNL     1       6.910   6.736  17.058  0.00  0.00    +0.000 N 
ATOM      2  C   UNL     1       5.543   6.723  17.430  0.00  0.00    +0.000 A 
ATOM      3  C   UNL     1       5.347   5.352  17.417  0.00  0.00    +0.000 A 
ATOM      4  C   UNL     1       5.838   5.060  16.155  0.00  0.00    +0.000 A 
ATOM      5  N   UNL     1       5.482   4.020  15.388  0.00  0.00    +0.000 NA
ATOM      6  C   UNL     1       6.056   4.000  14.222  0.00  0.00    +0.000 A 
ATOM      7  C   UNL     1       5.460   3.108  13.350  0.00  0.00    +0.000 A 
ATOM      8  C   UNL     1       5.888   3.014  12.046  0.00  0.00    +0.000 A 
ATOM      9  C   UNL     1       6.957   3.808  11.653  0.00  0.00    +0.000 A 
ATOM     10  C   UNL     1       7.575   4.701  12.569  0.00  0.00    +0.000 A 
ATOM     11  C   UNL     1       7.147   4.869  13.890  0.00  0.00    +0.000 A 
ATOM     12  N   UNL     1       7.683   5.811  14.789  0.00  0.00    +0.000 NA
ATOM     13  C   UNL     1       6.936   5.909  15.925  0.00  0.00    +0.000 A 
ENDROOT
BRANCH   3  14
ATOM     14  C   UNL     1       5.228   4.349  18.457  0.00  0.00    +0.000 C 
ATOM     15  O   UNL     1       6.094   4.146  19.298  0.00  0.00    +0.000 OA
ATOM     16  N   UNL     1       4.095   3.559  18.304  0.00  0.00    +0.000 N 
ATOM     17  H   UNL     1       3.475   3.759  17.523  0.00  0.00    +0.000 HD
BRANCH  16  18
ATOM     18  C   UNL     1       3.848   2.338  19.026  0.00  0.00    +0.000 C 
BRANCH  18  19
ATOM     19  C   UNL     1       2.367   1.966  18.971  0.00  0.00    +0.000 C 
BRANCH  19  20
ATOM     20  N   UNL     1       1.633   2.133  20.231  0.00  0.00    +0.000 NA
ATOM     21  C   UNL     1       0.506   3.073  20.014  0.00  0.00    +0.000 C 
ATOM     22  C   UNL     1       0.925   4.553  19.920  0.00  0.00    +0.000 C 
ATOM     23  O   UNL     1       1.660   4.956  21.081  0.00  0.00    +0.000 OA
ATOM     24  C   UNL     1       2.831   4.144  21.236  0.00  0.00    +0.000 C 
ATOM     25  C   UNL     1       2.465   2.654  21.340  0.00  0.00    +0.000 C 
ENDBRANCH  19  20
ENDBRANCH  18  19
ENDBRANCH  16  18
ENDBRANCH   3  14
BRANCH   2  26
ATOM     26  N   UNL     1       4.827   7.735  16.833  0.00  0.00    +0.000 N 
ATOM     27  H   UNL     1       4.157   7.439  16.120  0.00  0.00    +0.000 HD
ATOM     28  H   UNL     1       4.267   8.283  17.496  0.00  0.00    +0.000 HD
ENDBRANCH   2  26
BRANCH   1  29
ATOM     29  C   UNL     1       7.721   7.501  17.980  0.00  0.00    +0.000 C 
BRANCH  29  30
ATOM     30  C   UNL     1       8.207   8.937  17.914  0.00  0.00    +0.000 C 
BRANCH  30  32
ATOM     31  C   UNL     1       9.437  10.920  18.987  0.00  0.00    +0.000 C 
ATOM     32  C   UNL     1       9.029   9.457  19.078  0.00  0.00    +0.000 C 
ENDBRANCH  30  32
ENDBRANCH  29  30
ENDBRANCH   1  29
TORSDOF 8
ENDMDL
MODEL 8
REMARK VINA RESULT:      -7.3      3.723      6.122
REMARK  Name = 
REMARK  9 active torsions:
REMARK  status: ('A' for Active; 'I' for Inactive)
REMARK    1  A    between atoms: C_1  and  C_2
REMARK    2  A    between atoms: C_2  and  C_3
REMARK    3  A    between atoms: C_3  and  C_4
REMARK    4  A    between atoms: C_4  and  N_5
REMARK    5  A    between atoms: C_6  and  N_7
REMARK    6  A    between atoms: C_8  and  C_9
REMARK    7  A    between atoms: N_11  and  C_12
REMARK    8  A    between atoms: C_12  and  C_13
REMARK    9  A    between atoms: C_13  and  N_14
REMARK                            x       y       z     vdW  Elec       q    Type
REMARK                         _______ _______ _______ _____ _____    ______ ____
ROOT
ATOM      1  N   UNL     1       5.660   5.407  17.791  0.00  0.00    +0.000 N 
ATOM      2  C   UNL     1       4.805   5.724  16.708  0.00  0.00    +0.000 A 
ATOM      3  C   UNL     1       3.814   6.379  17.420  0.00  0.00    +0.000 A 
ATOM      4  C   UNL     1       3.559   5.424  18.391  0.00  0.00    +0.000 A 
ATOM      5  N   UNL     1       2.405   5.258  19.053  0.00  0.00    +0.000 NA
ATOM      6  C   UNL     1       2.409   4.255  19.881  0.00  0.00    +0.000 A 
ATOM      7  C   UNL     1       1.141   3.923  20.321  0.00  0.00    +0.000 A 
ATOM      8  C   UNL     1       0.949   2.835  21.140  0.00  0.00    +0.000 A 
ATOM      9  C   UNL     1       2.068   2.116  21.540  0.00  0.00    +0.000 A 
ATOM     10  C   UNL     1       3.366   2.486  21.101  0.00  0.00    +0.000 A 
ATOM     11  C   UNL     1       3.610   3.554  20.229  0.00  0.00    +0.000 A 
ATOM     12  N   UNL     1       4.875   3.885  19.707  0.00  0.00    +0.000 NA
ATOM     13  C   UNL     1       4.787   4.821  18.721  0.00  0.00    +0.000 A 
ENDROOT
BRANCH   3  14
ATOM     14  C   UNL     1       3.460   7.774  17.588  0.00  0.00    +0.000 C 
ATOM     15  O   UNL     1       4.274   8.687  17.528  0.00  0.00    +0.000 OA
ATOM     16  N   UNL     1       2.133   7.943  17.962  0.00  0.00    +0.000 N 
ATOM     17  H   UNL     1       1.555   7.111  18.062  0.00  0.00    +0.000 HD
BRANCH  16  18
ATOM     18  C   UNL     1       1.569   9.179  18.440  0.00  0.00    +0.000 C 
BRANCH  18  19
ATOM     19  C   UNL     1       0.917   8.984  19.808  0.00  0.00    +0.000 C 
BRANCH  19  20
ATOM     20  N   UNL     1       1.394   9.888  20.862  0.00  0.00    +0.000 NA
ATOM     21  C   UNL     1       1.188   9.245  22.182  0.00  0.00    +0.000 C 
ATOM     22  C   UNL     1      -0.275   9.251  22.668  0.00  0.00    +0.000 C 
ATOM     23  O   UNL     1      -0.800  10.582  22.704  0.00  0.00    +0.000 OA
ATOM     24  C   UNL     1      -0.734  11.179  21.403  0.00  0.00    +0.000 C 
ATOM     25  C   UNL     1       0.710  11.201  20.874  0.00  0.00    +0.000 C 
ENDBRANCH  19  20
ENDBRANCH  18  19
ENDBRANCH  16  18
ENDBRANCH   3  14
BRANCH   2  26
ATOM     26  N   UNL     1       4.720   4.701  15.790  0.00  0.00    +0.000 N 
ATOM     27  H   UNL     1       3.787   4.524  15.412  0.00  0.00    +0.000 HD
ATOM     28  H   UNL     1       5.305   4.851  14.960  0.00  0.00    +0.000 HD
ENDBRANCH   2  26
BRANCH   1  29
ATOM     29  C   UNL     1       7.019   5.847  17.564  0.00  0.00    +0.000 C 
BRANCH  29  30
ATOM     30  C   UNL     1       7.819   6.962  18.208  0.00  0.00    +0.000 C 
BRANCH  30  32
ATOM     31  C   UNL     1       8.535   9.427  18.287  0.00  0.00    +0.000 C 
ATOM     32  C   UNL     1       7.758   8.336  17.567  0.00  0.00    +0.000 C 
ENDBRANCH  30  32
ENDBRANCH  29  30
ENDBRANCH   1  29
TORSDOF 8
ENDMDL
MODEL 9
REMARK VINA RESULT:      -7.2      3.821      6.005
REMARK  Name = 
REMARK  9 active torsions:
REMARK  status: ('A' for Active; 'I' for Inactive)
REMARK    1  A    between atoms: C_1  and  C_2
REMARK    2  A    between atoms: C_2  and  C_3
REMARK    3  A    between atoms: C_3  and  C_4
REMARK    4  A    between atoms: C_4  and  N_5
REMARK    5  A    between atoms: C_6  and  N_7
REMARK    6  A    between atoms: C_8  and  C_9
REMARK    7  A    between atoms: N_11  and  C_12
REMARK    8  A    between atoms: C_12  and  C_13
REMARK    9  A    between atoms: C_13  and  N_14
REMARK                            x       y       z     vdW  Elec       q    Type
REMARK                         _______ _______ _______ _____ _____    ______ ____
ROOT
ATOM      1  N   UNL     1       5.804   5.217  17.884  0.00  0.00    +0.000 N 
ATOM      2  C   UNL     1       5.042   5.500  16.724  0.00  0.00    +0.000 A 
ATOM      3  C   UNL     1       4.022   6.219  17.326  0.00  0.00    +0.000 A 
ATOM      4  C   UNL     1       3.666   5.324  18.322  0.00  0.00    +0.000 A 
ATOM      5  N   UNL     1       2.462   5.225  18.902  0.00  0.00    +0.000 NA
ATOM      6  C   UNL     1       2.372   4.267  19.777  0.00  0.00    +0.000 A 
ATOM      7  C   UNL     1       1.065   3.994  20.135  0.00  0.00    +0.000 A 
ATOM      8  C   UNL     1       0.778   2.955  20.991  0.00  0.00    +0.000 A 
ATOM      9  C   UNL     1       1.841   2.228  21.510  0.00  0.00    +0.000 A 
ATOM     10  C   UNL     1       3.180   2.538  21.153  0.00  0.00    +0.000 A 
ATOM     11  C   UNL     1       3.521   3.551  20.249  0.00  0.00    +0.000 A 
ATOM     12  N   UNL     1       4.831   3.819  19.809  0.00  0.00    +0.000 NA
ATOM     13  C   UNL     1       4.846   4.705  18.773  0.00  0.00    +0.000 A 
ENDROOT
BRANCH   3  14
ATOM     14  C   UNL     1       3.701   7.630  17.397  0.00  0.00    +0.000 C 
ATOM     15  O   UNL     1       4.549   8.510  17.488  0.00  0.00    +0.000 OA
ATOM     16  N   UNL     1       2.334   7.859  17.492  0.00  0.00    +0.000 N 
ATOM     17  H   UNL     1       1.714   7.052  17.487  0.00  0.00    +0.000 HD
BRANCH  16  18
ATOM     18  C   UNL     1       1.739   9.126  17.827  0.00  0.00    +0.000 C 
BRANCH  18  19
ATOM     19  C   UNL     1       1.339   9.165  19.300  0.00  0.00    +0.000 C 
BRANCH  19  20
ATOM     20  N   UNL     1      -0.027   9.635  19.565  0.00  0.00    +0.000 NA
ATOM     21  C   UNL     1      -0.322  10.790  18.682  0.00  0.00    +0.000 C 
ATOM     22  C   UNL     1       0.346  12.108  19.120  0.00  0.00    +0.000 C 
ATOM     23  O   UNL     1      -0.005  12.440  20.468  0.00  0.00    +0.000 OA
ATOM     24  C   UNL     1       0.394  11.392  21.360  0.00  0.00    +0.000 C 
ATOM     25  C   UNL     1      -0.252  10.052  20.967  0.00  0.00    +0.000 C 
ENDBRANCH  19  20
ENDBRANCH  18  19
ENDBRANCH  16  18
ENDBRANCH   3  14
BRANCH   2  26
ATOM     26  N   UNL     1       4.994   4.433  15.855  0.00  0.00    +0.000 N 
ATOM     27  H   UNL     1       4.059   4.166  15.539  0.00  0.00    +0.000 HD
ATOM     28  H   UNL     1       5.520   4.592  14.988  0.00  0.00    +0.000 HD
ENDBRANCH   2  26
BRANCH   1  29
ATOM     29  C   UNL     1       7.189   5.606  17.739  0.00  0.00    +0.000 C 
BRANCH  29  30
ATOM     30  C   UNL     1       7.950   6.789  18.306  0.00  0.00    +0.000 C 
BRANCH  30  32
ATOM     31  C   UNL     1       8.462   9.306  18.300  0.00  0.00    +0.000 C 
ATOM     32  C   UNL     1       7.805   8.125  17.601  0.00  0.00    +0.000 C 
ENDBRANCH  30  32
ENDBRANCH  29  30
ENDBRANCH   1  29
TORSDOF 8
ENDMDL
