MODEL 1
REMARK VINA RESULT:      -7.0      0.000      0.000
REMARK  Name = 
REMARK  6 active torsions:
REMARK  status: ('A' for Active; 'I' for Inactive)
REMARK    1  A    between atoms: C_1  and  C_2
REMARK    2  A    between atoms: C_5  and  C_6
REMARK    3  A    between atoms: C_8  and  C_9
REMARK    4  A    between atoms: N_12  and  C_13
REMARK    5  A    between atoms: C_16  and  S_17
REMARK    6  A    between atoms: S_17  and  N_18
REMARK                            x       y       z     vdW  Elec       q    Type
REMARK                         _______ _______ _______ _____ _____    ______ ____
ROOT
ATOM      1  C   UNL     1       6.503   5.289  15.851  0.00  0.00    +0.000 A 
ATOM      2  C   UNL     1       6.924   5.019  14.560  0.00  0.00    +0.000 A 
ATOM      3  C   UNL     1       6.181   3.901  14.123  0.00  0.00    +0.000 A 
ATOM      4  N   UNL     1       5.359   3.470  15.076  0.00  0.00    +0.000 NA
ATOM      5  N   UNL     1       5.447   4.396  16.074  0.00  0.00    +0.000 N 
ENDROOT
BRANCH   1  10
ATOM      6  C   UNL     1       8.952   9.109  19.464  0.00  0.00    +0.000 C 
ATOM      7  C   UNL     1       8.258   8.124  18.573  0.00  0.00    +0.000 A 
ATOM      8  C   UNL     1       8.253   6.757  18.867  0.00  0.00    +0.000 A 
ATOM      9  C   UNL     1       7.662   5.843  17.986  0.00  0.00    +0.000 A 
ATOM     10  C   UNL     1       7.051   6.274  16.800  0.00  0.00    +0.000 A 
ATOM     11  C   UNL     1       6.982   7.655  16.563  0.00  0.00    +0.000 A 
ATOM     12  C   UNL     1       7.614   8.565  17.416  0.00  0.00    +0.000 A 
ENDBRANCH   1  10
BRANCH   5  13
ATOM     13  C   UNL     1       4.485   4.356  17.120  0.00  0.00    +0.000 A 
ATOM     14  C   UNL     1       4.353   3.182  17.882  0.00  0.00    +0.000 A 
ATOM     15  C   UNL     1       3.486   3.153  18.975  0.00  0.00    +0.000 A 
ATOM     16  C   UNL     1       2.745   4.296  19.291  0.00  0.00    +0.000 A 
ATOM     17  C   UNL     1       2.815   5.441  18.496  0.00  0.00    +0.000 A 
ATOM     18  C   UNL     1       3.678   5.466  17.404  0.00  0.00    +0.000 A 
BRANCH  16  19
ATOM     19  S   UNL     1       1.774   4.328  20.762  0.00  0.00    +0.000 S 
ATOM     20  O   UNL     1       2.439   3.561  21.794  0.00  0.00    +0.000 OA
ATOM     21  O   UNL     1       1.271   5.663  20.984  0.00  0.00    +0.000 OA
BRANCH  19  22
ATOM     22  N   UNL     1       0.466   3.404  20.260  0.00  0.00    +0.000 NA
ATOM     23  H   UNL     1       0.105   2.840  21.027  0.00  0.00    +0.000 HD
ATOM     24  H   UNL     1      -0.221   3.979  19.776  0.00  0.00    +0.000 HD
ENDBRANCH  19  22
ENDBRANCH  16  19
ENDBRANCH   5  13
BRANCH   3  25
ATOM     25  C   UNL     1       6.224   3.229  12.792  0.00  0.00    +0.000 C 
ATOM     26 CL   UNL     1       4.677   3.435  11.942  0.00  0.00    +0.000 Cl
ENDBRANCH   3  25
TORSDOF 5
ENDMDL
MODEL 2
REMARK VINA RESULT:      -6.9      0.430      1.067
REMARK  Name = 
REMARK  6 active torsions:
REMARK  status: ('A' for Active; 'I' for Inactive)
REMARK    1  A    between atoms: C_1  and  C_2
REMARK    2  A    between atoms: C_5  and  C_6
REMARK    3  A    between atoms: C_8  and  C_9
REMARK    4  A    between atoms: N_12  and  C_13
REMARK    5  A    between atoms: C_16  and  S_17
REMARK    6  A    between atoms: S_17  and  N_18
REMARK                            x       y       z     vdW  Elec       q    Type
REMARK                         _______ _______ _______ _____ _____    ______ ____
ROOT
ATOM      1  C   UNL     1       6.598   5.420  16.119  0.00  0.00    +0.000 A 
ATOM      2  C   UNL     1       6.947   5.127  14.811  0.00  0.00    +0.000 A 
ATOM      3  C   UNL     1       6.242   3.954  14.463  0.00  0.00    +0.000 A 
ATOM      4  N   UNL     1       5.510   3.513  15.484  0.00  0.00    +0.000 NA
ATOM      5  N   UNL     1       5.612   4.478  16.443  0.00  0.00    +0.000 N 
ENDROOT
BRANCH   1  10
ATOM      6  C   UNL     1       9.061   9.490  19.437  0.00  0.00    +0.000 C 
ATOM      7  C   UNL     1       8.365   8.440  18.625  0.00  0.00    +0.000 A 
ATOM      8  C   UNL     1       8.417   7.090  18.986  0.00  0.00    +0.000 A 
ATOM      9  C   UNL     1       7.822   6.115  18.175  0.00  0.00    +0.000 A 
ATOM     10  C   UNL     1       7.150   6.468  16.996  0.00  0.00    +0.000 A 
ATOM     11  C   UNL     1       7.027   7.832  16.695  0.00  0.00    +0.000 A 
ATOM     12  C   UNL     1       7.661   8.803  17.476  0.00  0.00    +0.000 A 
ENDBRANCH   1  10
BRANCH   5  13
ATOM     13  C   UNL     1       4.725   4.424  17.553  0.00  0.00    +0.000 A 
ATOM     14  C   UNL     1       3.732   5.411  17.681  0.00  0.00    +0.000 A 
ATOM     15  C   UNL     1       2.789   5.323  18.707  0.00  0.00    +0.000 A 
ATOM     16  C   UNL     1       2.855   4.256  19.607  0.00  0.00    +0.000 A 
ATOM     17  C   UNL     1       3.882   3.312  19.531  0.00  0.00    +0.000 A 
ATOM     18  C   UNL     1       4.823   3.404  18.509  0.00  0.00    +0.000 A 
BRANCH  16  19
ATOM     19  S   UNL     1       1.577   4.041  20.802  0.00  0.00    +0.000 S 
ATOM     20  O   UNL     1       2.123   3.397  21.978  0.00  0.00    +0.000 OA
ATOM     21  O   UNL     1       0.769   5.235  20.871  0.00  0.00    +0.000 OA
BRANCH  19  22
ATOM     22  N   UNL     1       0.649   2.881  20.021  0.00  0.00    +0.000 NA
ATOM     23  H   UNL     1      -0.183   2.657  20.563  0.00  0.00    +0.000 HD
ATOM     24  H   UNL     1       0.483   3.142  19.051  0.00  0.00    +0.000 HD
ENDBRANCH  19  22
ENDBRANCH  16  19
ENDBRANCH   5  13
BRANCH   3  25
ATOM     25  C   UNL     1       6.234   3.238  13.155  0.00  0.00    +0.000 C 
ATOM     26 CL   UNL     1       4.752   3.612  12.250  0.00  0.00    +0.000 Cl
ENDBRANCH   3  25
TORSDOF 5
ENDMDL
MODEL 3
REMARK VINA RESULT:      -6.9      3.477      5.730
REMARK  Name = 
REMARK  6 active torsions:
REMARK  status: ('A' for Active; 'I' for Inactive)
REMARK    1  A    between atoms: C_1  and  C_2
REMARK    2  A    between atoms: C_5  and  C_6
REMARK    3  A    between atoms: C_8  and  C_9
REMARK    4  A    between atoms: N_12  and  C_13
REMARK    5  A    between atoms: C_16  and  S_17
REMARK    6  A    between atoms: S_17  and  N_18
REMARK                            x       y       z     vdW  Elec       q    Type
REMARK                         _______ _______ _______ _____ _____    ______ ____
ROOT
ATOM      1  C   UNL     1       3.856   4.716  18.009  0.00  0.00    +0.000 A 
ATOM      2  C   UNL     1       4.861   4.244  17.182  0.00  0.00    +0.000 A 
ATOM      3  C   UNL     1       5.147   5.282  16.269  0.00  0.00    +0.000 A 
ATOM      4  N   UNL     1       4.364   6.336  16.481  0.00  0.00    +0.000 NA
ATOM      5  N   UNL     1       3.678   6.051  17.625  0.00  0.00    +0.000 N 
ENDROOT
BRANCH   1  10
ATOM      6  C   UNL     1       0.944   2.087  22.282  0.00  0.00    +0.000 C 
ATOM      7  C   UNL     1       1.706   2.699  21.146  0.00  0.00    +0.000 A 
ATOM      8  C   UNL     1       3.104   2.742  21.148  0.00  0.00    +0.000 A 
ATOM      9  C   UNL     1       3.796   3.382  20.113  0.00  0.00    +0.000 A 
ATOM     10  C   UNL     1       3.110   3.981  19.047  0.00  0.00    +0.000 A 
ATOM     11  C   UNL     1       1.714   3.851  19.011  0.00  0.00    +0.000 A 
ATOM     12  C   UNL     1       1.018   3.255  20.066  0.00  0.00    +0.000 A 
ENDBRANCH   1  10
BRANCH   5  13
ATOM     13  C   UNL     1       2.955   7.099  18.259  0.00  0.00    +0.000 A 
ATOM     14  C   UNL     1       2.601   8.234  17.509  0.00  0.00    +0.000 A 
ATOM     15  C   UNL     1       1.808   9.229  18.081  0.00  0.00    +0.000 A 
ATOM     16  C   UNL     1       1.385   9.089  19.406  0.00  0.00    +0.000 A 
ATOM     17  C   UNL     1       1.793   8.002  20.181  0.00  0.00    +0.000 A 
ATOM     18  C   UNL     1       2.587   7.012  19.608  0.00  0.00    +0.000 A 
BRANCH  16  19
ATOM     19  S   UNL     1       0.249  10.253  20.088  0.00  0.00    +0.000 S 
ATOM     20  O   UNL     1      -0.435   9.653  21.214  0.00  0.00    +0.000 OA
ATOM     21  O   UNL     1       0.868  11.555  20.155  0.00  0.00    +0.000 OA
BRANCH  19  22
ATOM     22  N   UNL     1      -0.872  10.321  18.841  0.00  0.00    +0.000 NA
ATOM     23  H   UNL     1      -0.756   9.533  18.206  0.00  0.00    +0.000 HD
ATOM     24  H   UNL     1      -1.813  10.456  19.204  0.00  0.00    +0.000 HD
ENDBRANCH  19  22
ENDBRANCH  16  19
ENDBRANCH   5  13
BRANCH   3  25
ATOM     25  C   UNL     1       6.177   5.302  15.191  0.00  0.00    +0.000 C 
ATOM     26 CL   UNL     1       5.832   4.051  13.977  0.00  0.00    +0.000 Cl
ENDBRANCH   3  25
TORSDOF 5
ENDMDL
MODEL 4
REMARK VINA RESULT:      -6.8      3.692      4.832
REMARK  Name = 
REMARK  6 active torsions:
REMARK  status: ('A' for Active; 'I' for Inactive)
REMARK    1  A    between atoms: C_1  and  C_2
REMARK    2  A    between atoms: C_5  and  C_6
REMARK    3  A    between atoms: C_8  and  C_9
REMARK    4  A    between atoms: N_12  and  C_13
REMARK    5  A    between atoms: C_16  and  S_17
REMARK    6  A    between atoms: S_17  and  N_18
REMARK                            x       y       z     vdW  Elec       q    Type
REMARK                         _______ _______ _______ _____ _____    ______ ____
ROOT
ATOM      1  C   UNL     1       4.408   5.094  18.120  0.00  0.00    +0.000 A 
ATOM      2  C   UNL     1       4.307   3.761  17.757  0.00  0.00    +0.000 A 
ATOM      3  C   UNL     1       3.018   3.337  18.146  0.00  0.00    +0.000 A 
ATOM      4  N   UNL     1       2.347   4.322  18.737  0.00  0.00    +0.000 NA
ATOM      5  N   UNL     1       3.133   5.429  18.595  0.00  0.00    +0.000 N 
ENDROOT
BRANCH   1  10
ATOM      6  C   UNL     1       8.912   8.747  18.047  0.00  0.00    +0.000 C 
ATOM      7  C   UNL     1       7.778   7.768  18.007  0.00  0.00    +0.000 A 
ATOM      8  C   UNL     1       6.686   7.955  17.153  0.00  0.00    +0.000 A 
ATOM      9  C   UNL     1       5.603   7.069  17.182  0.00  0.00    +0.000 A 
ATOM     10  C   UNL     1       5.591   5.969  18.052  0.00  0.00    +0.000 A 
ATOM     11  C   UNL     1       6.732   5.742  18.836  0.00  0.00    +0.000 A 
ATOM     12  C   UNL     1       7.794   6.652  18.845  0.00  0.00    +0.000 A 
ENDBRANCH   1  10
BRANCH   5  13
ATOM     13  C   UNL     1       2.569   6.701  18.889  0.00  0.00    +0.000 A 
ATOM     14  C   UNL     1       2.402   7.630  17.849  0.00  0.00    +0.000 A 
ATOM     15  C   UNL     1       1.762   8.846  18.094  0.00  0.00    +0.000 A 
ATOM     16  C   UNL     1       1.306   9.130  19.384  0.00  0.00    +0.000 A 
ATOM     17  C   UNL     1       1.533   8.244  20.440  0.00  0.00    +0.000 A 
ATOM     18  C   UNL     1       2.175   7.034  20.192  0.00  0.00    +0.000 A 
BRANCH  16  19
ATOM     19  S   UNL     1       0.351  10.584  19.673  0.00  0.00    +0.000 S 
ATOM     20  O   UNL     1      -1.049  10.290  19.460  0.00  0.00    +0.000 OA
ATOM     21  O   UNL     1       0.836  11.258  20.854  0.00  0.00    +0.000 OA
BRANCH  19  22
ATOM     22  N   UNL     1       0.841  11.510  18.362  0.00  0.00    +0.000 NA
ATOM     23  H   UNL     1       0.807  10.967  17.502  0.00  0.00    +0.000 HD
ATOM     24  H   UNL     1       0.345  12.399  18.340  0.00  0.00    +0.000 HD
ENDBRANCH  19  22
ENDBRANCH  16  19
ENDBRANCH   5  13
BRANCH   3  25
ATOM     25  C   UNL     1       2.391   1.998  17.951  0.00  0.00    +0.000 C 
ATOM     26 CL   UNL     1       0.774   1.955  18.687  0.00  0.00    +0.000 Cl
ENDBRANCH   3  25
TORSDOF 5
ENDMDL
MODEL 5
REMARK VINA RESULT:      -6.8      0.885      1.095
REMARK  Name = 
REMARK  6 active torsions:
REMARK  status: ('A' for Active; 'I' for Inactive)
REMARK    1  A    between atoms: C_1  and  C_2
REMARK    2  A    between atoms: C_5  and  C_6
REMARK    3  A    between atoms: C_8  and  C_9
REMARK    4  A    between atoms: N_12  and  C_13
REMARK    5  A    between atoms: C_16  and  S_17
REMARK    6  A    between atoms: S_17  and  N_18
REMARK                            x       y       z     vdW  Elec       q    Type
REMARK                         _______ _______ _______ _____ _____    ______ ____
ROOT
ATOM      1  C   UNL     1       6.522   5.200  15.819  0.00  0.00    +0.000 A 
ATOM      2  C   UNL     1       6.873   5.019  14.492  0.00  0.00    +0.000 A 
ATOM      3  C   UNL     1       6.200   3.856  14.056  0.00  0.00    +0.000 A 
ATOM      4  N   UNL     1       5.487   3.317  15.041  0.00  0.00    +0.000 NA
ATOM      5  N   UNL     1       5.566   4.208  16.072  0.00  0.00    +0.000 N 
ENDROOT
BRANCH   1  10
ATOM      6  C   UNL     1       8.887   9.058  19.448  0.00  0.00    +0.000 C 
ATOM      7  C   UNL     1       8.215   8.060  18.554  0.00  0.00    +0.000 A 
ATOM      8  C   UNL     1       8.250   6.691  18.837  0.00  0.00    +0.000 A 
ATOM      9  C   UNL     1       7.678   5.769  17.952  0.00  0.00    +0.000 A 
ATOM     10  C   UNL     1       7.049   6.192  16.773  0.00  0.00    +0.000 A 
ATOM     11  C   UNL     1       6.941   7.573  16.547  0.00  0.00    +0.000 A 
ATOM     12  C   UNL     1       7.552   8.493  17.404  0.00  0.00    +0.000 A 
ENDBRANCH   1  10
BRANCH   5  13
ATOM     13  C   UNL     1       4.686   4.042  17.177  0.00  0.00    +0.000 A 
ATOM     14  C   UNL     1       5.189   3.504  18.374  0.00  0.00    +0.000 A 
ATOM     15  C   UNL     1       4.370   3.423  19.501  0.00  0.00    +0.000 A 
ATOM     16  C   UNL     1       3.048   3.870  19.419  0.00  0.00    +0.000 A 
ATOM     17  C   UNL     1       2.519   4.337  18.215  0.00  0.00    +0.000 A 
ATOM     18  C   UNL     1       3.337   4.413  17.091  0.00  0.00    +0.000 A 
BRANCH  16  19
ATOM     19  S   UNL     1       2.054   3.929  20.874  0.00  0.00    +0.000 S 
ATOM     20  O   UNL     1       0.659   3.806  20.509  0.00  0.00    +0.000 OA
ATOM     21  O   UNL     1       2.662   3.131  21.912  0.00  0.00    +0.000 OA
BRANCH  19  22
ATOM     22  N   UNL     1       2.284   5.533  21.311  0.00  0.00    +0.000 NA
ATOM     23  H   UNL     1       3.127   5.908  20.880  0.00  0.00    +0.000 HD
ATOM     24  H   UNL     1       1.436   6.075  21.162  0.00  0.00    +0.000 HD
ENDBRANCH  19  22
ENDBRANCH  16  19
ENDBRANCH   5  13
BRANCH   3  25
ATOM     25  C   UNL     1       6.207   3.244  12.696  0.00  0.00    +0.000 C 
ATOM     26 CL   UNL     1       4.601   3.375  11.947  0.00  0.00    +0.000 Cl
ENDBRANCH   3  25
TORSDOF 5
ENDMDL
MODEL 6
REMARK VINA RESULT:      -6.8      3.617      5.811
REMARK  Name = 
REMARK  6 active torsions:
REMARK  status: ('A' for Active; 'I' for Inactive)
REMARK    1  A    between atoms: C_1  and  C_2
REMARK    2  A    between atoms: C_5  and  C_6
REMARK    3  A    between atoms: C_8  and  C_9
REMARK    4  A    between atoms: N_12  and  C_13
REMARK    5  A    between atoms: C_16  and  S_17
REMARK    6  A    between atoms: S_17  and  N_18
REMARK                            x       y       z     vdW  Elec       q    Type
REMARK                         _______ _______ _______ _____ _____    ______ ____
ROOT
ATOM      1  C   UNL     1       3.806   4.810  18.119  0.00  0.00    +0.000 A 
ATOM      2  C   UNL     1       4.862   4.377  17.335  0.00  0.00    +0.000 A 
ATOM      3  C   UNL     1       5.127   5.413  16.414  0.00  0.00    +0.000 A 
ATOM      4  N   UNL     1       4.285   6.430  16.581  0.00  0.00    +0.000 NA
ATOM      5  N   UNL     1       3.575   6.129  17.706  0.00  0.00    +0.000 N 
ENDROOT
BRANCH   1  10
ATOM      6  C   UNL     1       0.908   2.096  22.348  0.00  0.00    +0.000 C 
ATOM      7  C   UNL     1       1.666   2.731  21.221  0.00  0.00    +0.000 A 
ATOM      8  C   UNL     1       3.064   2.759  21.211  0.00  0.00    +0.000 A 
ATOM      9  C   UNL     1       3.753   3.420  20.187  0.00  0.00    +0.000 A 
ATOM     10  C   UNL     1       3.063   4.055  19.144  0.00  0.00    +0.000 A 
ATOM     11  C   UNL     1       1.666   3.941  19.118  0.00  0.00    +0.000 A 
ATOM     12  C   UNL     1       0.973   3.323  20.164  0.00  0.00    +0.000 A 
ENDBRANCH   1  10
BRANCH   5  13
ATOM     13  C   UNL     1       2.779   7.149  18.297  0.00  0.00    +0.000 A 
ATOM     14  C   UNL     1       2.434   7.043  19.655  0.00  0.00    +0.000 A 
ATOM     15  C   UNL     1       1.738   8.078  20.281  0.00  0.00    +0.000 A 
ATOM     16  C   UNL     1       1.379   9.208  19.539  0.00  0.00    +0.000 A 
ATOM     17  C   UNL     1       1.653   9.288  18.173  0.00  0.00    +0.000 A 
ATOM     18  C   UNL     1       2.345   8.252  17.550  0.00  0.00    +0.000 A 
BRANCH  16  19
ATOM     19  S   UNL     1       0.649  10.591  20.352  0.00  0.00    +0.000 S 
ATOM     20  O   UNL     1       1.364  11.795  19.987  0.00  0.00    +0.000 OA
ATOM     21  O   UNL     1      -0.790  10.488  20.289  0.00  0.00    +0.000 OA
BRANCH  19  22
ATOM     22  N   UNL     1       1.082  10.251  21.937  0.00  0.00    +0.000 NA
ATOM     23  H   UNL     1       0.336   9.751  22.417  0.00  0.00    +0.000 HD
ATOM     24  H   UNL     1       2.000   9.813  21.977  0.00  0.00    +0.000 HD
ENDBRANCH  19  22
ENDBRANCH  16  19
ENDBRANCH   5  13
BRANCH   3  25
ATOM     25  C   UNL     1       6.191   5.468  15.370  0.00  0.00    +0.000 C 
ATOM     26 CL   UNL     1       6.067   4.070  14.281  0.00  0.00    +0.000 Cl
ENDBRANCH   3  25
TORSDOF 5
ENDMDL
MODEL 7
REMARK VINA RESULT:      -6.7      0.913      1.426
REMARK  Name = 
REMARK  6 active torsions:
REMARK  status: ('A' for Active; 'I' for Inactive)
REMARK    1  A    between atoms: C_1  and  C_2
REMARK    2  A    between atoms: C_5  and  C_6
REMARK    3  A    between atoms: C_8  and  C_9
REMARK    4  A    between atoms: N_12  and  C_13
REMARK    5  A    between atoms: C_16  and  S_17
REMARK    6  A    between atoms: S_17  and  N_18
REMARK                            x       y       z     vdW  Elec       q    Type
REMARK                         _______ _______ _______ _____ _____    ______ ____
ROOT
ATOM      1  C   UNL     1       6.478   5.139  15.675  0.00  0.00    +0.000 A 
ATOM      2  C   UNL     1       6.871   4.965  14.359  0.00  0.00    +0.000 A 
ATOM      3  C   UNL     1       6.166   3.841  13.877  0.00  0.00    +0.000 A 
ATOM      4  N   UNL     1       5.393   3.317  14.824  0.00  0.00    +0.000 NA
ATOM      5  N   UNL     1       5.470   4.185  15.873  0.00  0.00    +0.000 N 
ENDROOT
BRANCH   1  10
ATOM      6  C   UNL     1       8.867   8.832  19.456  0.00  0.00    +0.000 C 
ATOM      7  C   UNL     1       8.188   7.878  18.521  0.00  0.00    +0.000 A 
ATOM      8  C   UNL     1       8.172   6.502  18.772  0.00  0.00    +0.000 A 
ATOM      9  C   UNL     1       7.595   5.619  17.850  0.00  0.00    +0.000 A 
ATOM     10  C   UNL     1       7.010   6.091  16.666  0.00  0.00    +0.000 A 
ATOM     11  C   UNL     1       6.952   7.479  16.472  0.00  0.00    +0.000 A 
ATOM     12  C   UNL     1       7.569   8.359  17.366  0.00  0.00    +0.000 A 
ENDBRANCH   1  10
BRANCH   5  13
ATOM     13  C   UNL     1       4.543   4.040  16.942  0.00  0.00    +0.000 A 
ATOM     14  C   UNL     1       3.826   5.166  17.381  0.00  0.00    +0.000 A 
ATOM     15  C   UNL     1       2.841   5.029  18.360  0.00  0.00    +0.000 A 
ATOM     16  C   UNL     1       2.589   3.766  18.904  0.00  0.00    +0.000 A 
ATOM     17  C   UNL     1       3.347   2.656  18.527  0.00  0.00    +0.000 A 
ATOM     18  C   UNL     1       4.332   2.797  17.553  0.00  0.00    +0.000 A 
BRANCH  16  19
ATOM     19  S   UNL     1       1.240   3.548  20.017  0.00  0.00    +0.000 S 
ATOM     20  O   UNL     1       0.908   4.818  20.626  0.00  0.00    +0.000 OA
ATOM     21  O   UNL     1       0.248   2.687  19.417  0.00  0.00    +0.000 OA
BRANCH  19  22
ATOM     22  N   UNL     1       1.998   2.641  21.209  0.00  0.00    +0.000 NA
ATOM     23  H   UNL     1       1.603   1.704  21.258  0.00  0.00    +0.000 HD
ATOM     24  H   UNL     1       3.010   2.685  21.110  0.00  0.00    +0.000 HD
ENDBRANCH  19  22
ENDBRANCH  16  19
ENDBRANCH   5  13
BRANCH   3  25
ATOM     25  C   UNL     1       6.197   3.251  12.507  0.00  0.00    +0.000 C 
ATOM     26 CL   UNL     1       4.587   3.327  11.760  0.00  0.00    +0.000 Cl
ENDBRANCH   3  25
TORSDOF 5
ENDMDL
MODEL 8
REMARK VINA RESULT:      -6.7      4.035      5.813
REMARK  Name = 
REMARK  6 active torsions:
REMARK  status: ('A' for Active; 'I' for Inactive)
REMARK    1  A    between atoms: C_1  and  C_2
REMARK    2  A    between atoms: C_5  and  C_6
REMARK    3  A    between atoms: C_8  and  C_9
REMARK    4  A    between atoms: N_12  and  C_13
REMARK    5  A    between atoms: C_16  and  S_17
REMARK    6  A    between atoms: S_17  and  N_18
REMARK                            x       y       z     vdW  Elec       q    Type
REMARK                         _______ _______ _______ _____ _____    ______ ____
ROOT
ATOM      1  C   UNL     1       4.022   4.119  18.809  0.00  0.00    +0.000 A 
ATOM      2  C   UNL     1       3.949   2.885  19.432  0.00  0.00    +0.000 A 
ATOM      3  C   UNL     1       3.173   3.070  20.596  0.00  0.00    +0.000 A 
ATOM      4  N   UNL     1       2.793   4.339  20.723  0.00  0.00    +0.000 NA
ATOM      5  N   UNL     1       3.185   4.949  19.567  0.00  0.00    +0.000 N 
ENDROOT
BRANCH   1  10
ATOM      6  C   UNL     1       7.350   5.363  14.225  0.00  0.00    +0.000 C 
ATOM      7  C   UNL     1       6.459   5.109  15.402  0.00  0.00    +0.000 A 
ATOM      8  C   UNL     1       6.800   5.559  16.682  0.00  0.00    +0.000 A 
ATOM      9  C   UNL     1       5.990   5.250  17.782  0.00  0.00    +0.000 A 
ATOM     10  C   UNL     1       4.817   4.498  17.627  0.00  0.00    +0.000 A 
ATOM     11  C   UNL     1       4.440   4.132  16.327  0.00  0.00    +0.000 A 
ATOM     12  C   UNL     1       5.270   4.397  15.234  0.00  0.00    +0.000 A 
ENDBRANCH   1  10
BRANCH   5  13
ATOM     13  C   UNL     1       2.685   6.250  19.286  0.00  0.00    +0.000 A 
ATOM     14  C   UNL     1       1.970   6.936  20.282  0.00  0.00    +0.000 A 
ATOM     15  C   UNL     1       1.555   8.250  20.065  0.00  0.00    +0.000 A 
ATOM     16  C   UNL     1       1.846   8.866  18.844  0.00  0.00    +0.000 A 
ATOM     17  C   UNL     1       2.491   8.168  17.821  0.00  0.00    +0.000 A 
ATOM     18  C   UNL     1       2.901   6.855  18.040  0.00  0.00    +0.000 A 
BRANCH  16  19
ATOM     19  S   UNL     1       1.476  10.575  18.617  0.00  0.00    +0.000 S 
ATOM     20  O   UNL     1       1.124  11.164  19.891  0.00  0.00    +0.000 OA
ATOM     21  O   UNL     1       2.442  11.167  17.723  0.00  0.00    +0.000 OA
BRANCH  19  22
ATOM     22  N   UNL     1       0.045  10.443  17.750  0.00  0.00    +0.000 NA
ATOM     23  H   UNL     1       0.122  10.911  16.850  0.00  0.00    +0.000 HD
ATOM     24  H   UNL     1      -0.271   9.475  17.716  0.00  0.00    +0.000 HD
ENDBRANCH  19  22
ENDBRANCH  16  19
ENDBRANCH   5  13
BRANCH   3  25
ATOM     25  C   UNL     1       2.762   2.048  21.601  0.00  0.00    +0.000 C 
ATOM     26 CL   UNL     1       1.120   2.383  22.194  0.00  0.00    +0.000 Cl
ENDBRANCH   3  25
TORSDOF 5
ENDMDL
MODEL 9
REMARK VINA RESULT:      -6.7      4.054      5.822
REMARK  Name = 
REMARK  6 active torsions:
REMARK  status: ('A' for Active; 'I' for Inactive)
REMARK    1  A    between atoms: C_1  and  C_2
REMARK    2  A    between atoms: C_5  and  C_6
REMARK    3  A    between atoms: C_8  and  C_9
REMARK    4  A    between atoms: N_12  and  C_13
REMARK    5  A    between atoms: C_16  and  S_17
REMARK    6  A    between atoms: S_17  and  N_18
REMARK                            x       y       z     vdW  Elec       q    Type
REMARK                         _______ _______ _______ _____ _____    ______ ____
ROOT
ATOM      1  C   UNL     1       4.013   3.973  18.865  0.00  0.00    +0.000 A 
ATOM      2  C   UNL     1       3.873   2.718  19.434  0.00  0.00    +0.000 A 
ATOM      3  C   UNL     1       3.112   2.896  20.610  0.00  0.00    +0.000 A 
ATOM      4  N   UNL     1       2.805   4.177  20.794  0.00  0.00    +0.000 NA
ATOM      5  N   UNL     1       3.227   4.814  19.664  0.00  0.00    +0.000 N 
ENDROOT
BRANCH   1  10
ATOM      6  C   UNL     1       7.381   5.219  14.310  0.00  0.00    +0.000 C 
ATOM      7  C   UNL     1       6.486   4.968  15.486  0.00  0.00    +0.000 A 
ATOM      8  C   UNL     1       6.887   5.289  16.786  0.00  0.00    +0.000 A 
ATOM      9  C   UNL     1       6.067   4.980  17.879  0.00  0.00    +0.000 A 
ATOM     10  C   UNL     1       4.824   4.358  17.696  0.00  0.00    +0.000 A 
ATOM     11  C   UNL     1       4.395   4.125  16.382  0.00  0.00    +0.000 A 
ATOM     12  C   UNL     1       5.231   4.387  15.292  0.00  0.00    +0.000 A 
ENDBRANCH   1  10
BRANCH   5  13
ATOM     13  C   UNL     1       2.800   6.153  19.442  0.00  0.00    +0.000 A 
ATOM     14  C   UNL     1       3.016   6.738  18.183  0.00  0.00    +0.000 A 
ATOM     15  C   UNL     1       2.519   8.013  17.912  0.00  0.00    +0.000 A 
ATOM     16  C   UNL     1       1.821   8.702  18.908  0.00  0.00    +0.000 A 
ATOM     17  C   UNL     1       1.667   8.158  20.185  0.00  0.00    +0.000 A 
ATOM     18  C   UNL     1       2.167   6.887  20.454  0.00  0.00    +0.000 A 
BRANCH  16  19
ATOM     19  S   UNL     1       1.046  10.239  18.530  0.00  0.00    +0.000 S 
ATOM     20  O   UNL     1      -0.119  10.000  17.705  0.00  0.00    +0.000 OA
ATOM     21  O   UNL     1       1.010  11.070  19.710  0.00  0.00    +0.000 OA
BRANCH  19  22
ATOM     22  N   UNL     1       2.209  10.902  17.517  0.00  0.00    +0.000 NA
ATOM     23  H   UNL     1       2.984  10.255  17.383  0.00  0.00    +0.000 HD
ATOM     24  H   UNL     1       1.785  11.261  16.663  0.00  0.00    +0.000 HD
ENDBRANCH  19  22
ENDBRANCH  16  19
ENDBRANCH   5  13
BRANCH   3  25
ATOM     25  C   UNL     1       2.647   1.855  21.572  0.00  0.00    +0.000 C 
ATOM     26 CL   UNL     1       1.091   2.322  22.290  0.00  0.00    +0.000 Cl
ENDBRANCH   3  25
TORSDOF 5
ENDMDL
