MODEL 1
REMARK VINA RESULT:      -8.0      0.000      0.000
REMARK  Name = 
REMARK  8 active torsions:
REMARK  status: ('A' for Active; 'I' for Inactive)
REMARK    1  A    between atoms: C_1  and  O_2
REMARK    2  A    between atoms: O_2  and  C_3
REMARK    3  A    between atoms: C_6  and  N_7
REMARK    4  A    between atoms: C_11  and  O_12
REMARK    5  A    between atoms: O_12  and  C_13
REMARK    6  A    between atoms: C_13  and  C_14
REMARK    7  A    between atoms: N_16  and  C_17
REMARK    8  A    between atoms: C_17  and  C_18
REMARK                            x       y       z     vdW  Elec       q    Type
REMARK                         _______ _______ _______ _____ _____    ______ ____
ROOT
ATOM      1  C   UNL     1       3.535   3.369  18.988  0.00  0.00    +0.000 C 
ATOM      2  C   UNL     1       2.313   4.242  18.626  0.00  0.00    +0.000 C 
ATOM      3  N   UNL     1       1.502   4.794  19.720  0.00  0.00    +0.000 NA
ATOM      4  C   UNL     1       0.838   3.719  20.464  0.00  0.00    +0.000 C 
ATOM      5  C   UNL     1       1.627   2.992  21.552  0.00  0.00    +0.000 C 
ATOM      6  C   UNL     1       3.046   2.578  21.188  0.00  0.00    +0.000 C 
ATOM      7  O   UNL     1       3.175   2.243  19.812  0.00  0.00    +0.000 OA
ENDROOT
BRANCH   1   8
ATOM      8  C   UNL     1       4.092   2.829  17.660  0.00  0.00    +0.000 C 
BRANCH   8   9
ATOM      9  O   UNL     1       3.896   3.775  16.615  0.00  0.00    +0.000 OA
BRANCH   9  15
ATOM     10  C   UNL     1       5.930   5.239  16.554  0.00  0.00    +0.000 A 
ATOM     11  C   UNL     1       7.090   5.557  15.825  0.00  0.00    +0.000 A 
ATOM     12  C   UNL     1       7.279   5.063  14.540  0.00  0.00    +0.000 A 
ATOM     13  C   UNL     1       6.319   4.215  13.982  0.00  0.00    +0.000 A 
ATOM     14  C   UNL     1       5.206   3.815  14.728  0.00  0.00    +0.000 A 
ATOM     15  C   UNL     1       5.016   4.308  16.026  0.00  0.00    +0.000 A 
BRANCH  13  16
ATOM     16  N   UNL     1       6.478   3.752  12.601  0.00  0.00    +0.000 N 
ATOM     17  O   UNL     1       7.364   4.283  11.916  0.00  0.00    +0.000 OA
ATOM     18  O   UNL     1       5.713   2.866  12.194  0.00  0.00    +0.000 OA
ENDBRANCH  13  16
BRANCH  10  20
ATOM     19  C   UNL     1       6.620   5.370  18.818  0.00  0.00    +0.000 C 
ATOM     20  O   UNL     1       5.725   5.796  17.787  0.00  0.00    +0.000 OA
ENDBRANCH  10  20
ENDBRANCH   9  15
ENDBRANCH   8   9
ENDBRANCH   1   8
BRANCH   3  21
ATOM     21  C   UNL     1       2.184   5.794  20.547  0.00  0.00    +0.000 C 
BRANCH  21  22
ATOM     22  C   UNL     1       1.870   7.218  20.123  0.00  0.00    +0.000 A 
ATOM     23  C   UNL     1       1.172   8.077  20.985  0.00  0.00    +0.000 A 
ATOM     24  C   UNL     1       0.809   9.359  20.570  0.00  0.00    +0.000 A 
ATOM     25  C   UNL     1       1.142   9.793  19.289  0.00  0.00    +0.000 A 
ATOM     26 CL   UNL     1       0.657  11.357  18.760  0.00  0.00    +0.000 Cl
ATOM     27  C   UNL     1       1.853   8.961  18.426  0.00  0.00    +0.000 A 
ATOM     28  C   UNL     1       2.217   7.678  18.842  0.00  0.00    +0.000 A 
ENDBRANCH  21  22
ENDBRANCH   3  21
TORSDOF 7
ENDMDL
MODEL 2
REMARK VINA RESULT:      -7.8      1.551      2.996
REMARK  Name = 
REMARK  8 active torsions:
REMARK  status: ('A' for Active; 'I' for Inactive)
REMARK    1  A    between atoms: C_1  and  O_2
REMARK    2  A    between atoms: O_2  and  C_3
REMARK    3  A    between atoms: C_6  and  N_7
REMARK    4  A    between atoms: C_11  and  O_12
REMARK    5  A    between atoms: O_12  and  C_13
REMARK    6  A    between atoms: C_13  and  C_14
REMARK    7  A    between atoms: N_16  and  C_17
REMARK    8  A    between atoms: C_17  and  C_18
REMARK                            x       y       z     vdW  Elec       q    Type
REMARK                         _______ _______ _______ _____ _____    ______ ____
ROOT
ATOM      1  C   UNL     1       3.445   3.256  18.928  0.00  0.00    +0.000 C 
ATOM      2  C   UNL     1       2.250   4.169  18.574  0.00  0.00    +0.000 C 
ATOM      3  N   UNL     1       1.504   4.798  19.673  0.00  0.00    +0.000 NA
ATOM      4  C   UNL     1       0.822   3.784  20.482  0.00  0.00    +0.000 C 
ATOM      5  C   UNL     1       1.618   3.064  21.571  0.00  0.00    +0.000 C 
ATOM      6  C   UNL     1       3.003   2.574  21.174  0.00  0.00    +0.000 C 
ATOM      7  O   UNL     1       3.067   2.180  19.809  0.00  0.00    +0.000 OA
ENDROOT
BRANCH   1   8
ATOM      8  C   UNL     1       3.929   2.640  17.604  0.00  0.00    +0.000 C 
BRANCH   8   9
ATOM      9  O   UNL     1       3.968   3.627  16.580  0.00  0.00    +0.000 OA
BRANCH   9  15
ATOM     10  C   UNL     1       5.864   4.239  15.059  0.00  0.00    +0.000 A 
ATOM     11  C   UNL     1       7.053   4.985  14.954  0.00  0.00    +0.000 A 
ATOM     12  C   UNL     1       7.629   5.564  16.077  0.00  0.00    +0.000 A 
ATOM     13  C   UNL     1       7.001   5.431  17.317  0.00  0.00    +0.000 A 
ATOM     14  C   UNL     1       5.772   4.773  17.423  0.00  0.00    +0.000 A 
ATOM     15  C   UNL     1       5.186   4.191  16.291  0.00  0.00    +0.000 A 
BRANCH  13  16
ATOM     16  N   UNL     1       7.643   5.977  18.516  0.00  0.00    +0.000 N 
ATOM     17  O   UNL     1       7.698   5.251  19.519  0.00  0.00    +0.000 OA
ATOM     18  O   UNL     1       8.083   7.135  18.463  0.00  0.00    +0.000 OA
ENDBRANCH  13  16
BRANCH  10  20
ATOM     19  C   UNL     1       6.180   3.634  12.789  0.00  0.00    +0.000 C 
ATOM     20  O   UNL     1       5.353   3.611  13.956  0.00  0.00    +0.000 OA
ENDBRANCH  10  20
ENDBRANCH   9  15
ENDBRANCH   8   9
ENDBRANCH   1   8
BRANCH   3  21
ATOM     21  C   UNL     1       2.259   5.798  20.434  0.00  0.00    +0.000 C 
BRANCH  21  22
ATOM     22  C   UNL     1       1.919   7.222  20.031  0.00  0.00    +0.000 A 
ATOM     23  C   UNL     1       1.246   8.070  20.923  0.00  0.00    +0.000 A 
ATOM     24  C   UNL     1       0.859   9.352  20.529  0.00  0.00    +0.000 A 
ATOM     25  C   UNL     1       1.142   9.795  19.239  0.00  0.00    +0.000 A 
ATOM     26 CL   UNL     1       0.626  11.358  18.738  0.00  0.00    +0.000 Cl
ATOM     27  C   UNL     1       1.828   8.975  18.346  0.00  0.00    +0.000 A 
ATOM     28  C   UNL     1       2.216   7.692  18.741  0.00  0.00    +0.000 A 
ENDBRANCH  21  22
ENDBRANCH   3  21
TORSDOF 7
ENDMDL
MODEL 3
REMARK VINA RESULT:      -7.8      3.695      7.487
REMARK  Name = 
REMARK  8 active torsions:
REMARK  status: ('A' for Active; 'I' for Inactive)
REMARK    1  A    between atoms: C_1  and  O_2
REMARK    2  A    between atoms: O_2  and  C_3
REMARK    3  A    between atoms: C_6  and  N_7
REMARK    4  A    between atoms: C_11  and  O_12
REMARK    5  A    between atoms: O_12  and  C_13
REMARK    6  A    between atoms: C_13  and  C_14
REMARK    7  A    between atoms: N_16  and  C_17
REMARK    8  A    between atoms: C_17  and  C_18
REMARK                            x       y       z     vdW  Elec       q    Type
REMARK                         _______ _______ _______ _____ _____    ______ ____
ROOT
ATOM      1  C   UNL     1       2.042   4.381  19.423  0.00  0.00    +0.000 C 
ATOM      2  C   UNL     1       3.491   4.434  19.957  0.00  0.00    +0.000 C 
ATOM      3  N   UNL     1       4.508   3.606  19.295  0.00  0.00    +0.000 NA
ATOM      4  C   UNL     1       4.217   2.181  19.482  0.00  0.00    +0.000 C 
ATOM      5  C   UNL     1       3.211   1.514  18.545  0.00  0.00    +0.000 C 
ATOM      6  C   UNL     1       1.923   2.283  18.289  0.00  0.00    +0.000 C 
ATOM      7  O   UNL     1       1.512   3.042  19.419  0.00  0.00    +0.000 OA
ENDROOT
BRANCH   1   8
ATOM      8  C   UNL     1       1.193   5.227  20.387  0.00  0.00    +0.000 C 
BRANCH   8   9
ATOM      9  O   UNL     1       1.966   6.292  20.930  0.00  0.00    +0.000 OA
BRANCH   9  15
ATOM     10  C   UNL     1       1.643   8.343  19.525  0.00  0.00    +0.000 A 
ATOM     11  C   UNL     1       1.006   9.596  19.458  0.00  0.00    +0.000 A 
ATOM     12  C   UNL     1       0.378  10.134  20.574  0.00  0.00    +0.000 A 
ATOM     13  C   UNL     1       0.351   9.406  21.765  0.00  0.00    +0.000 A 
ATOM     14  C   UNL     1       0.898   8.120  21.823  0.00  0.00    +0.000 A 
ATOM     15  C   UNL     1       1.528   7.572  20.698  0.00  0.00    +0.000 A 
BRANCH  13  16
ATOM     16  N   UNL     1      -0.245  10.000  22.965  0.00  0.00    +0.000 N 
ATOM     17  O   UNL     1      -1.194  10.782  22.806  0.00  0.00    +0.000 OA
ATOM     18  O   UNL     1       0.238   9.698  24.065  0.00  0.00    +0.000 OA
ENDBRANCH  13  16
BRANCH  10  20
ATOM     19  C   UNL     1       2.599   8.818  17.409  0.00  0.00    +0.000 C 
ATOM     20  O   UNL     1       2.322   7.864  18.438  0.00  0.00    +0.000 OA
ENDBRANCH  10  20
ENDBRANCH   9  15
ENDBRANCH   8   9
ENDBRANCH   1   8
BRANCH   3  21
ATOM     21  C   UNL     1       4.823   4.001  17.918  0.00  0.00    +0.000 C 
BRANCH  21  22
ATOM     22  C   UNL     1       5.758   5.195  17.850  0.00  0.00    +0.000 A 
ATOM     23  C   UNL     1       6.943   5.211  18.599  0.00  0.00    +0.000 A 
ATOM     24  C   UNL     1       7.766   6.339  18.603  0.00  0.00    +0.000 A 
ATOM     25  C   UNL     1       7.408   7.460  17.857  0.00  0.00    +0.000 A 
ATOM     26 CL   UNL     1       8.397   8.868  17.896  0.00  0.00    +0.000 Cl
ATOM     27  C   UNL     1       6.244   7.455  17.090  0.00  0.00    +0.000 A 
ATOM     28  C   UNL     1       5.422   6.326  17.085  0.00  0.00    +0.000 A 
ENDBRANCH  21  22
ENDBRANCH   3  21
TORSDOF 7
ENDMDL
MODEL 4
REMARK VINA RESULT:      -7.7      1.197      1.370
REMARK  Name = 
REMARK  8 active torsions:
REMARK  status: ('A' for Active; 'I' for Inactive)
REMARK    1  A    between atoms: C_1  and  O_2
REMARK    2  A    between atoms: O_2  and  C_3
REMARK    3  A    between atoms: C_6  and  N_7
REMARK    4  A    between atoms: C_11  and  O_12
REMARK    5  A    between atoms: O_12  and  C_13
REMARK    6  A    between atoms: C_13  and  C_14
REMARK    7  A    between atoms: N_16  and  C_17
REMARK    8  A    between atoms: C_17  and  C_18
REMARK                            x       y       z     vdW  Elec       q    Type
REMARK                         _______ _______ _______ _____ _____    ______ ____
ROOT
ATOM      1  C   UNL     1       3.927   3.816  18.274  0.00  0.00    +0.000 C 
ATOM      2  C   UNL     1       2.654   4.647  18.001  0.00  0.00    +0.000 C 
ATOM      3  N   UNL     1       1.796   5.004  19.139  0.00  0.00    +0.000 NA
ATOM      4  C   UNL     1       1.199   3.804  19.733  0.00  0.00    +0.000 C 
ATOM      5  C   UNL     1       2.024   3.001  20.738  0.00  0.00    +0.000 C 
ATOM      6  C   UNL     1       3.470   2.729  20.351  0.00  0.00    +0.000 C 
ATOM      7  O   UNL     1       3.635   2.576  18.946  0.00  0.00    +0.000 OA
ENDROOT
BRANCH   1   8
ATOM      8  C   UNL     1       4.532   3.483  16.900  0.00  0.00    +0.000 C 
BRANCH   8   9
ATOM      9  O   UNL     1       4.716   4.668  16.134  0.00  0.00    +0.000 OA
BRANCH   9  15
ATOM     10  C   UNL     1       6.815   5.194  14.869  0.00  0.00    +0.000 A 
ATOM     11  C   UNL     1       7.569   4.884  13.723  0.00  0.00    +0.000 A 
ATOM     12  C   UNL     1       7.031   4.099  12.710  0.00  0.00    +0.000 A 
ATOM     13  C   UNL     1       5.739   3.587  12.851  0.00  0.00    +0.000 A 
ATOM     14  C   UNL     1       5.012   3.809  14.024  0.00  0.00    +0.000 A 
ATOM     15  C   UNL     1       5.553   4.596  15.049  0.00  0.00    +0.000 A 
BRANCH  13  16
ATOM     16  N   UNL     1       5.141   2.821  11.754  0.00  0.00    +0.000 N 
ATOM     17  O   UNL     1       5.723   1.789  11.391  0.00  0.00    +0.000 OA
ATOM     18  O   UNL     1       4.097   3.254  11.245  0.00  0.00    +0.000 OA
ENDBRANCH  13  16
BRANCH  10  20
ATOM     19  C   UNL     1       7.435   5.486  17.138  0.00  0.00    +0.000 C 
ATOM     20  O   UNL     1       7.332   6.031  15.820  0.00  0.00    +0.000 OA
ENDBRANCH  10  20
ENDBRANCH   9  15
ENDBRANCH   8   9
ENDBRANCH   1   8
BRANCH   3  21
ATOM     21  C   UNL     1       2.402   5.937  20.095  0.00  0.00    +0.000 C 
BRANCH  21  22
ATOM     22  C   UNL     1       1.962   7.372  19.874  0.00  0.00    +0.000 A 
ATOM     23  C   UNL     1       1.297   8.075  20.889  0.00  0.00    +0.000 A 
ATOM     24  C   UNL     1       0.818   9.367  20.663  0.00  0.00    +0.000 A 
ATOM     25  C   UNL     1       1.000   9.965  19.418  0.00  0.00    +0.000 A 
ATOM     26 CL   UNL     1       0.371  11.540  19.124  0.00  0.00    +0.000 Cl
ATOM     27  C   UNL     1       1.676   9.291  18.404  0.00  0.00    +0.000 A 
ATOM     28  C   UNL     1       2.157   7.998  18.631  0.00  0.00    +0.000 A 
ENDBRANCH  21  22
ENDBRANCH   3  21
TORSDOF 7
ENDMDL
MODEL 5
REMARK VINA RESULT:      -7.7      0.540      1.174
REMARK  Name = 
REMARK  8 active torsions:
REMARK  status: ('A' for Active; 'I' for Inactive)
REMARK    1  A    between atoms: C_1  and  O_2
REMARK    2  A    between atoms: O_2  and  C_3
REMARK    3  A    between atoms: C_6  and  N_7
REMARK    4  A    between atoms: C_11  and  O_12
REMARK    5  A    between atoms: O_12  and  C_13
REMARK    6  A    between atoms: C_13  and  C_14
REMARK    7  A    between atoms: N_16  and  C_17
REMARK    8  A    between atoms: C_17  and  C_18
REMARK                            x       y       z     vdW  Elec       q    Type
REMARK                         _______ _______ _______ _____ _____    ______ ____
ROOT
ATOM      1  C   UNL     1       3.587   3.493  18.956  0.00  0.00    +0.000 C 
ATOM      2  C   UNL     1       2.301   4.287  18.636  0.00  0.00    +0.000 C 
ATOM      3  N   UNL     1       1.479   4.764  19.756  0.00  0.00    +0.000 NA
ATOM      4  C   UNL     1       0.907   3.636  20.496  0.00  0.00    +0.000 C 
ATOM      5  C   UNL     1       1.768   2.947  21.554  0.00  0.00    +0.000 C 
ATOM      6  C   UNL     1       3.203   2.637  21.152  0.00  0.00    +0.000 C 
ATOM      7  O   UNL     1       3.323   2.333  19.768  0.00  0.00    +0.000 OA
ENDROOT
BRANCH   1   8
ATOM      8  C   UNL     1       4.149   3.013  17.607  0.00  0.00    +0.000 C 
BRANCH   8   9
ATOM      9  O   UNL     1       4.013   4.029  16.619  0.00  0.00    +0.000 OA
BRANCH   9  15
ATOM     10  C   UNL     1       6.239   5.124  16.262  0.00  0.00    +0.000 A 
ATOM     11  C   UNL     1       7.340   5.222  15.392  0.00  0.00    +0.000 A 
ATOM     12  C   UNL     1       7.290   4.671  14.118  0.00  0.00    +0.000 A 
ATOM     13  C   UNL     1       6.143   3.985  13.711  0.00  0.00    +0.000 A 
ATOM     14  C   UNL     1       5.077   3.798  14.596  0.00  0.00    +0.000 A 
ATOM     15  C   UNL     1       5.126   4.349  15.884  0.00  0.00    +0.000 A 
BRANCH  13  16
ATOM     16  N   UNL     1       6.057   3.466  12.343  0.00  0.00    +0.000 N 
ATOM     17  O   UNL     1       4.926   3.305  11.861  0.00  0.00    +0.000 OA
ATOM     18  O   UNL     1       7.115   3.208  11.753  0.00  0.00    +0.000 OA
ENDBRANCH  13  16
BRANCH  10  20
ATOM     19  C   UNL     1       7.290   6.737  17.645  0.00  0.00    +0.000 C 
ATOM     20  O   UNL     1       6.278   5.739  17.484  0.00  0.00    +0.000 OA
ENDBRANCH  10  20
ENDBRANCH   9  15
ENDBRANCH   8   9
ENDBRANCH   1   8
BRANCH   3  21
ATOM     21  C   UNL     1       2.110   5.796  20.585  0.00  0.00    +0.000 C 
BRANCH  21  22
ATOM     22  C   UNL     1       1.731   7.203  20.160  0.00  0.00    +0.000 A 
ATOM     23  C   UNL     1       2.083   7.680  18.889  0.00  0.00    +0.000 A 
ATOM     24  C   UNL     1       1.809   8.999  18.524  0.00  0.00    +0.000 A 
ATOM     25  C   UNL     1       1.180   9.852  19.429  0.00  0.00    +0.000 A 
ATOM     26 CL   UNL     1       0.882  11.491  18.996  0.00  0.00    +0.000 Cl
ATOM     27  C   UNL     1       0.804   9.390  20.688  0.00  0.00    +0.000 A 
ATOM     28  C   UNL     1       1.077   8.070  21.053  0.00  0.00    +0.000 A 
ENDBRANCH  21  22
ENDBRANCH   3  21
TORSDOF 7
ENDMDL
MODEL 6
REMARK VINA RESULT:      -7.6      1.614      3.193
REMARK  Name = 
REMARK  8 active torsions:
REMARK  status: ('A' for Active; 'I' for Inactive)
REMARK    1  A    between atoms: C_1  and  O_2
REMARK    2  A    between atoms: O_2  and  C_3
REMARK    3  A    between atoms: C_6  and  N_7
REMARK    4  A    between atoms: C_11  and  O_12
REMARK    5  A    between atoms: O_12  and  C_13
REMARK    6  A    between atoms: C_13  and  C_14
REMARK    7  A    between atoms: N_16  and  C_17
REMARK    8  A    between atoms: C_17  and  C_18
REMARK                            x       y       z     vdW  Elec       q    Type
REMARK                         _______ _______ _______ _____ _____    ______ ____
ROOT
ATOM      1  C   UNL     1       3.203   3.284  18.745  0.00  0.00    +0.000 C 
ATOM      2  C   UNL     1       1.842   4.014  18.802  0.00  0.00    +0.000 C 
ATOM      3  N   UNL     1       1.332   4.437  20.113  0.00  0.00    +0.000 NA
ATOM      4  C   UNL     1       1.035   3.273  20.952  0.00  0.00    +0.000 C 
ATOM      5  C   UNL     1       2.181   2.618  21.723  0.00  0.00    +0.000 C 
ATOM      6  C   UNL     1       3.466   2.386  20.942  0.00  0.00    +0.000 C 
ATOM      7  O   UNL     1       3.222   2.103  19.570  0.00  0.00    +0.000 OA
ENDROOT
BRANCH   1   8
ATOM      8  C   UNL     1       3.401   2.847  17.283  0.00  0.00    +0.000 C 
BRANCH   8   9
ATOM      9  O   UNL     1       3.619   3.980  16.449  0.00  0.00    +0.000 OA
BRANCH   9  15
ATOM     10  C   UNL     1       5.709   4.395  15.130  0.00  0.00    +0.000 A 
ATOM     11  C   UNL     1       6.977   5.006  15.155  0.00  0.00    +0.000 A 
ATOM     12  C   UNL     1       7.500   5.506  16.340  0.00  0.00    +0.000 A 
ATOM     13  C   UNL     1       6.744   5.429  17.512  0.00  0.00    +0.000 A 
ATOM     14  C   UNL     1       5.446   4.910  17.486  0.00  0.00    +0.000 A 
ATOM     15  C   UNL     1       4.913   4.408  16.290  0.00  0.00    +0.000 A 
BRANCH  13  16
ATOM     16  N   UNL     1       7.321   5.888  18.779  0.00  0.00    +0.000 N 
ATOM     17  O   UNL     1       6.942   5.329  19.817  0.00  0.00    +0.000 OA
ATOM     18  O   UNL     1       8.144   6.814  18.739  0.00  0.00    +0.000 OA
ENDBRANCH  13  16
BRANCH  10  20
ATOM     19  C   UNL     1       6.218   3.635  12.943  0.00  0.00    +0.000 C 
ATOM     20  O   UNL     1       5.243   3.839  13.970  0.00  0.00    +0.000 OA
ENDBRANCH  10  20
ENDBRANCH   9  15
ENDBRANCH   8   9
ENDBRANCH   1   8
BRANCH   3  21
ATOM     21  C   UNL     1       2.115   5.491  20.765  0.00  0.00    +0.000 C 
BRANCH  21  22
ATOM     22  C   UNL     1       1.824   6.871  20.205  0.00  0.00    +0.000 A 
ATOM     23  C   UNL     1       2.295   7.235  18.935  0.00  0.00    +0.000 A 
ATOM     24  C   UNL     1       2.100   8.529  18.449  0.00  0.00    +0.000 A 
ATOM     25  C   UNL     1       1.432   9.470  19.230  0.00  0.00    +0.000 A 
ATOM     26 CL   UNL     1       1.230  11.077  18.651  0.00  0.00    +0.000 Cl
ATOM     27  C   UNL     1       0.938   9.121  20.485  0.00  0.00    +0.000 A 
ATOM     28  C   UNL     1       1.132   7.825  20.971  0.00  0.00    +0.000 A 
ENDBRANCH  21  22
ENDBRANCH   3  21
TORSDOF 7
ENDMDL
MODEL 7
REMARK VINA RESULT:      -7.5      3.870      7.745
REMARK  Name = 
REMARK  8 active torsions:
REMARK  status: ('A' for Active; 'I' for Inactive)
REMARK    1  A    between atoms: C_1  and  O_2
REMARK    2  A    between atoms: O_2  and  C_3
REMARK    3  A    between atoms: C_6  and  N_7
REMARK    4  A    between atoms: C_11  and  O_12
REMARK    5  A    between atoms: O_12  and  C_13
REMARK    6  A    between atoms: C_13  and  C_14
REMARK    7  A    between atoms: N_16  and  C_17
REMARK    8  A    between atoms: C_17  and  C_18
REMARK                            x       y       z     vdW  Elec       q    Type
REMARK                         _______ _______ _______ _____ _____    ______ ____
ROOT
ATOM      1  C   UNL     1       2.203   5.388  19.444  0.00  0.00    +0.000 C 
ATOM      2  C   UNL     1       3.518   4.908  20.099  0.00  0.00    +0.000 C 
ATOM      3  N   UNL     1       4.120   3.657  19.617  0.00  0.00    +0.000 NA
ATOM      4  C   UNL     1       3.250   2.516  19.916  0.00  0.00    +0.000 C 
ATOM      5  C   UNL     1       2.097   2.209  18.962  0.00  0.00    +0.000 C 
ATOM      6  C   UNL     1       1.262   3.400  18.516  0.00  0.00    +0.000 C 
ATOM      7  O   UNL     1       1.161   4.398  19.524  0.00  0.00    +0.000 OA
ENDROOT
BRANCH   1   8
ATOM      8  C   UNL     1       1.749   6.624  20.239  0.00  0.00    +0.000 C 
BRANCH   8   9
ATOM      9  O   UNL     1       2.096   7.819  19.547  0.00  0.00    +0.000 OA
BRANCH   9  15
ATOM     10  C   UNL     1       1.273  10.158  19.180  0.00  0.00    +0.000 A 
ATOM     11  C   UNL     1       0.467  11.184  19.706  0.00  0.00    +0.000 A 
ATOM     12  C   UNL     1      -0.045  11.095  20.994  0.00  0.00    +0.000 A 
ATOM     13  C   UNL     1       0.220   9.957  21.761  0.00  0.00    +0.000 A 
ATOM     14  C   UNL     1       0.941   8.889  21.220  0.00  0.00    +0.000 A 
ATOM     15  C   UNL     1       1.454   8.974  19.919  0.00  0.00    +0.000 A 
BRANCH  13  16
ATOM     16  N   UNL     1      -0.256   9.891  23.146  0.00  0.00    +0.000 N 
ATOM     17  O   UNL     1       0.517   9.428  23.996  0.00  0.00    +0.000 OA
ATOM     18  O   UNL     1      -1.404  10.291  23.385  0.00  0.00    +0.000 OA
ENDBRANCH  13  16
BRANCH  10  20
ATOM     19  C   UNL     1       2.531  11.524  17.706  0.00  0.00    +0.000 C 
ATOM     20  O   UNL     1       1.831  10.298  17.938  0.00  0.00    +0.000 OA
ENDBRANCH  10  20
ENDBRANCH   9  15
ENDBRANCH   8   9
ENDBRANCH   1   8
BRANCH   3  21
ATOM     21  C   UNL     1       4.628   3.709  18.242  0.00  0.00    +0.000 C 
BRANCH  21  22
ATOM     22  C   UNL     1       5.546   4.893  18.000  0.00  0.00    +0.000 A 
ATOM     23  C   UNL     1       6.781   4.979  18.659  0.00  0.00    +0.000 A 
ATOM     24  C   UNL     1       7.593   6.104  18.504  0.00  0.00    +0.000 A 
ATOM     25  C   UNL     1       7.174   7.153  17.687  0.00  0.00    +0.000 A 
ATOM     26 CL   UNL     1       8.153   8.559  17.530  0.00  0.00    +0.000 Cl
ATOM     27  C   UNL     1       5.960   7.076  17.009  0.00  0.00    +0.000 A 
ATOM     28  C   UNL     1       5.148   5.950  17.163  0.00  0.00    +0.000 A 
ENDBRANCH  21  22
ENDBRANCH   3  21
TORSDOF 7
ENDMDL
MODEL 8
REMARK VINA RESULT:      -7.4      1.234      1.669
REMARK  Name = 
REMARK  8 active torsions:
REMARK  status: ('A' for Active; 'I' for Inactive)
REMARK    1  A    between atoms: C_1  and  O_2
REMARK    2  A    between atoms: O_2  and  C_3
REMARK    3  A    between atoms: C_6  and  N_7
REMARK    4  A    between atoms: C_11  and  O_12
REMARK    5  A    between atoms: O_12  and  C_13
REMARK    6  A    between atoms: C_13  and  C_14
REMARK    7  A    between atoms: N_16  and  C_17
REMARK    8  A    between atoms: C_17  and  C_18
REMARK                            x       y       z     vdW  Elec       q    Type
REMARK                         _______ _______ _______ _____ _____    ______ ____
ROOT
ATOM      1  C   UNL     1       3.940   3.685  18.167  0.00  0.00    +0.000 C 
ATOM      2  C   UNL     1       2.719   4.576  17.846  0.00  0.00    +0.000 C 
ATOM      3  N   UNL     1       1.858   5.005  18.956  0.00  0.00    +0.000 NA
ATOM      4  C   UNL     1       1.184   3.854  19.564  0.00  0.00    +0.000 C 
ATOM      5  C   UNL     1       1.943   3.031  20.605  0.00  0.00    +0.000 C 
ATOM      6  C   UNL     1       3.381   2.674  20.257  0.00  0.00    +0.000 C 
ATOM      7  O   UNL     1       3.567   2.479  18.860  0.00  0.00    +0.000 OA
ENDROOT
BRANCH   1   8
ATOM      8  C   UNL     1       4.555   3.288  16.815  0.00  0.00    +0.000 C 
BRANCH   8   9
ATOM      9  O   UNL     1       5.883   3.786  16.704  0.00  0.00    +0.000 OA
BRANCH   9  15
ATOM     10  C   UNL     1       7.206   5.223  15.134  0.00  0.00    +0.000 A 
ATOM     11  C   UNL     1       7.601   5.393  13.794  0.00  0.00    +0.000 A 
ATOM     12  C   UNL     1       7.015   4.644  12.781  0.00  0.00    +0.000 A 
ATOM     13  C   UNL     1       6.048   3.690  13.104  0.00  0.00    +0.000 A 
ATOM     14  C   UNL     1       5.712   3.443  14.439  0.00  0.00    +0.000 A 
ATOM     15  C   UNL     1       6.304   4.194  15.463  0.00  0.00    +0.000 A 
BRANCH  13  16
ATOM     16  N   UNL     1       5.375   2.949  12.033  0.00  0.00    +0.000 N 
ATOM     17  O   UNL     1       4.259   3.351  11.672  0.00  0.00    +0.000 OA
ATOM     18  O   UNL     1       5.952   1.961  11.559  0.00  0.00    +0.000 OA
ENDBRANCH  13  16
BRANCH  10  20
ATOM     19  C   UNL     1       6.794   6.735  16.913  0.00  0.00    +0.000 C 
ATOM     20  O   UNL     1       7.738   6.024  16.108  0.00  0.00    +0.000 OA
ENDBRANCH  10  20
ENDBRANCH   9  15
ENDBRANCH   8   9
ENDBRANCH   1   8
BRANCH   3  21
ATOM     21  C   UNL     1       2.492   5.927  19.904  0.00  0.00    +0.000 C 
BRANCH  21  22
ATOM     22  C   UNL     1       1.932   7.335  19.818  0.00  0.00    +0.000 A 
ATOM     23  C   UNL     1       1.963   8.037  18.604  0.00  0.00    +0.000 A 
ATOM     24  C   UNL     1       1.525   9.361  18.537  0.00  0.00    +0.000 A 
ATOM     25  C   UNL     1       1.052   9.993  19.685  0.00  0.00    +0.000 A 
ATOM     26 CL   UNL     1       0.553  11.638  19.614  0.00  0.00    +0.000 Cl
ATOM     27  C   UNL     1       0.994   9.305  20.895  0.00  0.00    +0.000 A 
ATOM     28  C   UNL     1       1.432   7.980  20.962  0.00  0.00    +0.000 A 
ENDBRANCH  21  22
ENDBRANCH   3  21
TORSDOF 7
ENDMDL
MODEL 9
REMARK VINA RESULT:      -7.4      3.940      8.052
REMARK  Name = 
REMARK  8 active torsions:
REMARK  status: ('A' for Active; 'I' for Inactive)
REMARK    1  A    between atoms: C_1  and  O_2
REMARK    2  A    between atoms: O_2  and  C_3
REMARK    3  A    between atoms: C_6  and  N_7
REMARK    4  A    between atoms: C_11  and  O_12
REMARK    5  A    between atoms: O_12  and  C_13
REMARK    6  A    between atoms: C_13  and  C_14
REMARK    7  A    between atoms: N_16  and  C_17
REMARK    8  A    between atoms: C_17  and  C_18
REMARK                            x       y       z     vdW  Elec       q    Type
REMARK                         _______ _______ _______ _____ _____    ______ ____
ROOT
ATOM      1  C   UNL     1       2.037   4.906  19.568  0.00  0.00    +0.000 C 
ATOM      2  C   UNL     1       3.562   4.966  19.326  0.00  0.00    +0.000 C 
ATOM      3  N   UNL     1       4.168   3.958  18.446  0.00  0.00    +0.000 NA
ATOM      4  C   UNL     1       4.054   2.621  19.037  0.00  0.00    +0.000 C 
ATOM      5  C   UNL     1       2.747   1.851  18.849  0.00  0.00    +0.000 C 
ATOM      6  C   UNL     1       1.466   2.638  19.084  0.00  0.00    +0.000 C 
ATOM      7  O   UNL     1       1.618   3.631  20.091  0.00  0.00    +0.000 OA
ENDROOT
BRANCH   1   8
ATOM      8  C   UNL     1       1.722   5.980  20.622  0.00  0.00    +0.000 C 
BRANCH   8   9
ATOM      9  O   UNL     1       2.268   7.236  20.235  0.00  0.00    +0.000 OA
BRANCH   9  15
ATOM     10  C   UNL     1       0.965   9.073  19.134  0.00  0.00    +0.000 A 
ATOM     11  C   UNL     1      -0.005  10.070  19.341  0.00  0.00    +0.000 A 
ATOM     12  C   UNL     1      -0.419  10.404  20.624  0.00  0.00    +0.000 A 
ATOM     13  C   UNL     1       0.113   9.717  21.718  0.00  0.00    +0.000 A 
ATOM     14  C   UNL     1       1.009   8.660  21.524  0.00  0.00    +0.000 A 
ATOM     15  C   UNL     1       1.424   8.319  20.230  0.00  0.00    +0.000 A 
BRANCH  13  16
ATOM     16  N   UNL     1      -0.265  10.115  23.077  0.00  0.00    +0.000 N 
ATOM     17  O   UNL     1       0.357   9.602  24.018  0.00  0.00    +0.000 OA
ATOM     18  O   UNL     1      -1.188  10.931  23.207  0.00  0.00    +0.000 OA
ENDBRANCH  13  16
BRANCH  10  20
ATOM     19  C   UNL     1       2.837   8.773  17.712  0.00  0.00    +0.000 C 
ATOM     20  O   UNL     1       1.416   8.812  17.869  0.00  0.00    +0.000 OA
ENDBRANCH  10  20
ENDBRANCH   9  15
ENDBRANCH   8   9
ENDBRANCH   1   8
BRANCH   3  21
ATOM     21  C   UNL     1       3.771   4.052  17.038  0.00  0.00    +0.000 C 
BRANCH  21  22
ATOM     22  C   UNL     1       4.944   4.333  16.115  0.00  0.00    +0.000 A 
ATOM     23  C   UNL     1       5.899   5.302  16.457  0.00  0.00    +0.000 A 
ATOM     24  C   UNL     1       6.933   5.622  15.575  0.00  0.00    +0.000 A 
ATOM     25  C   UNL     1       7.019   4.975  14.344  0.00  0.00    +0.000 A 
ATOM     26 CL   UNL     1       8.267   5.400  13.238  0.00  0.00    +0.000 Cl
ATOM     27  C   UNL     1       6.092   3.995  13.997  0.00  0.00    +0.000 A 
ATOM     28  C   UNL     1       5.058   3.674  14.880  0.00  0.00    +0.000 A 
ENDBRANCH  21  22
ENDBRANCH   3  21
TORSDOF 7
ENDMDL
