MODEL 1
REMARK VINA RESULT:      -5.4      0.000      0.000
REMARK  Name = 
REMARK  27 active torsions:
REMARK  status: ('A' for Active; 'I' for Inactive)
REMARK    1  A    between atoms: C_2  and  C_3
REMARK    2  A    between atoms: C_3  and  O_4
REMARK    3  A    between atoms: C_3  and  C_5
REMARK    4  A    between atoms: C_6  and  C_7
REMARK    5  A    between atoms: C_7  and  C_8
REMARK    6  A    between atoms: C_8  and  C_9
REMARK    7  A    between atoms: C_9  and  C_10
REMARK    8  A    between atoms: C_10  and  C_11
REMARK    9  A    between atoms: C_11  and  C_12
REMARK   10  A    between atoms: C_13  and  C_14
REMARK   11  A    between atoms: C_15  and  C_16
REMARK   12  A    between atoms: C_16  and  O_17
REMARK   13  A    between atoms: C_16  and  C_18
REMARK   14  A    between atoms: C_18  and  C_19
REMARK   15  A    between atoms: C_19  and  C_20
REMARK   16  A    between atoms: C_20  and  C_21
REMARK   17  A    between atoms: C_21  and  C_22
REMARK   18  A    between atoms: C_22  and  C_23
REMARK   19  A    between atoms: C_23  and  C_24
REMARK   20  A    between atoms: C_24  and  C_25
REMARK   21  A    between atoms: C_25  and  C_26
REMARK   22  A    between atoms: C_26  and  C_27
REMARK   23  A    between atoms: C_27  and  C_28
REMARK   24  A    between atoms: C_28  and  C_29
REMARK   25  A    between atoms: C_30  and  C_31
REMARK   26  A    between atoms: C_32  and  C_33
REMARK   27  A    between atoms: C_33  and  O_35
REMARK                            x       y       z     vdW  Elec       q    Type
REMARK                         _______ _______ _______ _____ _____    ______ ____
ROOT
ATOM      1  C   UNL     1       3.007   8.244  17.875  0.00  0.00    +0.000 C 
ENDROOT
BRANCH   1   3
ATOM      2  C   UNL     1       2.591   6.623  19.699  0.00  0.00    +0.000 C 
ATOM      3  C   UNL     1       2.565   6.909  18.389  0.00  0.00    +0.000 C 
BRANCH   2   5
ATOM      4  C   UNL     1       1.645   4.361  20.620  0.00  0.00    +0.000 C 
ATOM      5  C   UNL     1       2.062   5.423  20.220  0.00  0.00    +0.000 C 
BRANCH   4   6
ATOM      6  C   UNL     1       1.141   3.058  21.038  0.00  0.00    +0.000 C 
BRANCH   6   7
ATOM      7  C   UNL     1       1.629   1.942  20.124  0.00  0.00    +0.000 C 
BRANCH   7   8
ATOM      8  C   UNL     1       1.426   2.340  18.664  0.00  0.00    +0.000 C 
BRANCH   8   9
ATOM      9  C   UNL     1       2.715   2.194  17.865  0.00  0.00    +0.000 C 
BRANCH   9  10
ATOM     10  C   UNL     1       3.068   3.511  17.177  0.00  0.00    +0.000 C 
BRANCH  10  12
ATOM     11  C   UNL     1       5.269   4.658  17.515  0.00  0.00    +0.000 C 
ATOM     12  C   UNL     1       4.549   3.644  17.000  0.00  0.00    +0.000 C 
BRANCH  11  13
ATOM     13  C   UNL     1       6.757   4.801  17.335  0.00  0.00    +0.000 C 
BRANCH  13  14
ATOM     14  O   UNL     1       7.123   4.300  16.049  0.00  0.00    +0.000 OA
ATOM     15  H   UNL     1       7.934   4.761  15.785  0.00  0.00    +0.000 HD
ENDBRANCH  13  14
BRANCH  13  17
ATOM     16  C   UNL     1       7.451   7.373  17.562  0.00  0.00    +0.000 C 
ATOM     17  C   UNL     1       7.161   6.209  17.456  0.00  0.00    +0.000 C 
ENDBRANCH  13  17
ENDBRANCH  11  13
ENDBRANCH  10  12
ENDBRANCH   9  10
ENDBRANCH   8   9
ENDBRANCH   7   8
ENDBRANCH   6   7
ENDBRANCH   4   6
ENDBRANCH   2   5
ENDBRANCH   1   3
BRANCH   1  18
ATOM     18  O   UNL     1       3.868   8.037  16.769  0.00  0.00    +0.000 OA
ATOM     19  H   UNL     1       4.449   8.812  16.719  0.00  0.00    +0.000 HD
ENDBRANCH   1  18
BRANCH   1  20
ATOM     20  C   UNL     1       1.797   9.081  17.447  0.00  0.00    +0.000 C 
BRANCH  20  21
ATOM     21  C   UNL     1       1.023   9.651  18.645  0.00  0.00    +0.000 C 
BRANCH  21  22
ATOM     22  C   UNL     1      -0.371  10.139  18.259  0.00  0.00    +0.000 C 
BRANCH  22  23
ATOM     23  C   UNL     1      -1.142  10.574  19.495  0.00  0.00    +0.000 C 
BRANCH  23  24
ATOM     24  C   UNL     1      -1.005  12.061  19.710  0.00  0.00    +0.000 C 
BRANCH  24  25
ATOM     25  C   UNL     1      -1.031  12.764  18.368  0.00  0.00    +0.000 C 
BRANCH  25  26
ATOM     26  C   UNL     1      -0.143  13.991  18.432  0.00  0.00    +0.000 C 
BRANCH  26  27
ATOM     27  C   UNL     1       1.271  13.568  18.754  0.00  0.00    +0.000 C 
BRANCH  27  28
ATOM     28  C   UNL     1       1.926  14.557  19.709  0.00  0.00    +0.000 C 
BRANCH  28  29
ATOM     29  C   UNL     1       1.837  14.065  21.149  0.00  0.00    +0.000 C 
BRANCH  29  30
ATOM     30  C   UNL     1       1.586  15.225  22.114  0.00  0.00    +0.000 C 
BRANCH  30  31
ATOM     31  C   UNL     1       0.385  16.019  21.710  0.00  0.00    +0.000 C 
ATOM     32  C   UNL     1      -0.893  15.650  21.859  0.00  0.00    +0.000 C 
BRANCH  32  33
ATOM     33  C   UNL     1      -1.282  14.406  22.434  0.00  0.00    +0.000 C 
ATOM     34  C   UNL     1      -1.571  13.320  22.866  0.00  0.00    +0.000 C 
BRANCH  34  35
ATOM     35  C   UNL     1      -1.863  11.979  23.314  0.00  0.00    +0.000 C 
ATOM     36  O   UNL     1      -1.005  11.109  23.320  0.00  0.00    +0.000 OA
BRANCH  35  37
ATOM     37  O   UNL     1      -3.149  11.791  23.700  0.00  0.00    +0.000 OA
ATOM     38  H   UNL     1      -3.810  12.032  23.017  0.00  0.00    +0.000 HD
ENDBRANCH  35  37
ENDBRANCH  34  35
ENDBRANCH  32  33
ENDBRANCH  30  31
ENDBRANCH  29  30
ENDBRANCH  28  29
ENDBRANCH  27  28
ENDBRANCH  26  27
ENDBRANCH  25  26
ENDBRANCH  24  25
ENDBRANCH  23  24
ENDBRANCH  22  23
ENDBRANCH  21  22
ENDBRANCH  20  21
ENDBRANCH   1  20
TORSDOF 27
ENDMDL
MODEL 2
REMARK VINA RESULT:      -5.4      4.208      9.804
REMARK  Name = 
REMARK  27 active torsions:
REMARK  status: ('A' for Active; 'I' for Inactive)
REMARK    1  A    between atoms: C_2  and  C_3
REMARK    2  A    between atoms: C_3  and  O_4
REMARK    3  A    between atoms: C_3  and  C_5
REMARK    4  A    between atoms: C_6  and  C_7
REMARK    5  A    between atoms: C_7  and  C_8
REMARK    6  A    between atoms: C_8  and  C_9
REMARK    7  A    between atoms: C_9  and  C_10
REMARK    8  A    between atoms: C_10  and  C_11
REMARK    9  A    between atoms: C_11  and  C_12
REMARK   10  A    between atoms: C_13  and  C_14
REMARK   11  A    between atoms: C_15  and  C_16
REMARK   12  A    between atoms: C_16  and  O_17
REMARK   13  A    between atoms: C_16  and  C_18
REMARK   14  A    between atoms: C_18  and  C_19
REMARK   15  A    between atoms: C_19  and  C_20
REMARK   16  A    between atoms: C_20  and  C_21
REMARK   17  A    between atoms: C_21  and  C_22
REMARK   18  A    between atoms: C_22  and  C_23
REMARK   19  A    between atoms: C_23  and  C_24
REMARK   20  A    between atoms: C_24  and  C_25
REMARK   21  A    between atoms: C_25  and  C_26
REMARK   22  A    between atoms: C_26  and  C_27
REMARK   23  A    between atoms: C_27  and  C_28
REMARK   24  A    between atoms: C_28  and  C_29
REMARK   25  A    between atoms: C_30  and  C_31
REMARK   26  A    between atoms: C_32  and  C_33
REMARK   27  A    between atoms: C_33  and  O_35
REMARK                            x       y       z     vdW  Elec       q    Type
REMARK                         _______ _______ _______ _____ _____    ______ ____
ROOT
ATOM      1  C   UNL     1       2.794   5.350  19.476  0.00  0.00    +0.000 C 
ENDROOT
BRANCH   1   3
ATOM      2  C   UNL     1       1.834   7.537  20.123  0.00  0.00    +0.000 C 
ATOM      3  C   UNL     1       2.183   6.678  19.154  0.00  0.00    +0.000 C 
BRANCH   2   5
ATOM      4  C   UNL     1       1.029   9.984  19.648  0.00  0.00    +0.000 C 
ATOM      5  C   UNL     1       1.376   8.843  19.844  0.00  0.00    +0.000 C 
BRANCH   4   6
ATOM      6  C   UNL     1       0.625  11.375  19.476  0.00  0.00    +0.000 C 
BRANCH   6   7
ATOM      7  C   UNL     1      -0.500  11.517  18.458  0.00  0.00    +0.000 C 
BRANCH   7   8
ATOM      8  C   UNL     1      -1.504  10.380  18.632  0.00  0.00    +0.000 C 
BRANCH   8   9
ATOM      9  C   UNL     1      -2.063   9.922  17.291  0.00  0.00    +0.000 C 
BRANCH   9  10
ATOM     10  C   UNL     1      -2.777  11.074  16.588  0.00  0.00    +0.000 C 
BRANCH  10  12
ATOM     11  C   UNL     1      -4.782  11.933  17.818  0.00  0.00    +0.000 C 
ATOM     12  C   UNL     1      -4.236  11.088  16.924  0.00  0.00    +0.000 C 
BRANCH  11  13
ATOM     13  C   UNL     1      -6.248  11.947  18.165  0.00  0.00    +0.000 C 
BRANCH  13  14
ATOM     14  O   UNL     1      -7.004  12.227  16.988  0.00  0.00    +0.000 OA
ATOM     15  H   UNL     1      -7.314  13.143  17.061  0.00  0.00    +0.000 HD
ENDBRANCH  13  14
BRANCH  13  17
ATOM     16  C   UNL     1      -6.963   9.593  19.214  0.00  0.00    +0.000 C 
ATOM     17  C   UNL     1      -6.660  10.652  18.727  0.00  0.00    +0.000 C 
ENDBRANCH  13  17
ENDBRANCH  11  13
ENDBRANCH  10  12
ENDBRANCH   9  10
ENDBRANCH   8   9
ENDBRANCH   7   8
ENDBRANCH   6   7
ENDBRANCH   4   6
ENDBRANCH   2   5
ENDBRANCH   1   3
BRANCH   1  18
ATOM     18  O   UNL     1       2.660   5.118  20.867  0.00  0.00    +0.000 OA
ATOM     19  H   UNL     1       1.774   4.750  21.005  0.00  0.00    +0.000 HD
ENDBRANCH   1  18
BRANCH   1  20
ATOM     20  C   UNL     1       2.095   4.234  18.690  0.00  0.00    +0.000 C 
BRANCH  20  21
ATOM     21  C   UNL     1       3.086   3.338  17.934  0.00  0.00    +0.000 C 
BRANCH  21  22
ATOM     22  C   UNL     1       4.455   3.992  17.769  0.00  0.00    +0.000 C 
BRANCH  22  23
ATOM     23  C   UNL     1       4.667   4.423  16.326  0.00  0.00    +0.000 C 
BRANCH  23  24
ATOM     24  C   UNL     1       5.695   5.525  16.246  0.00  0.00    +0.000 C 
BRANCH  24  25
ATOM     25  C   UNL     1       6.134   5.900  17.647  0.00  0.00    +0.000 C 
BRANCH  25  26
ATOM     26  C   UNL     1       7.435   6.674  17.571  0.00  0.00    +0.000 C 
BRANCH  26  27
ATOM     27  C   UNL     1       7.159   8.140  17.816  0.00  0.00    +0.000 C 
BRANCH  27  28
ATOM     28  C   UNL     1       8.363   8.987  17.429  0.00  0.00    +0.000 C 
BRANCH  28  29
ATOM     29  C   UNL     1       8.909   9.741  18.636  0.00  0.00    +0.000 C 
BRANCH  29  30
ATOM     30  C   UNL     1       9.215  11.198  18.285  0.00  0.00    +0.000 C 
BRANCH  30  31
ATOM     31  C   UNL     1      10.567  11.604  18.777  0.00  0.00    +0.000 C 
ATOM     32  C   UNL     1      10.888  11.917  20.038  0.00  0.00    +0.000 C 
BRANCH  32  33
ATOM     33  C   UNL     1       9.944  11.912  21.106  0.00  0.00    +0.000 C 
ATOM     34  C   UNL     1       9.092  11.912  21.956  0.00  0.00    +0.000 C 
BRANCH  34  35
ATOM     35  C   UNL     1       8.003  11.915  22.905  0.00  0.00    +0.000 C 
ATOM     36  O   UNL     1       7.005  12.597  22.727  0.00  0.00    +0.000 OA
BRANCH  35  37
ATOM     37  O   UNL     1       8.206  11.118  23.983  0.00  0.00    +0.000 OA
ATOM     38  H   UNL     1       7.895  10.197  23.862  0.00  0.00    +0.000 HD
ENDBRANCH  35  37
ENDBRANCH  34  35
ENDBRANCH  32  33
ENDBRANCH  30  31
ENDBRANCH  29  30
ENDBRANCH  28  29
ENDBRANCH  27  28
ENDBRANCH  26  27
ENDBRANCH  25  26
ENDBRANCH  24  25
ENDBRANCH  23  24
ENDBRANCH  22  23
ENDBRANCH  21  22
ENDBRANCH  20  21
ENDBRANCH   1  20
TORSDOF 27
ENDMDL
MODEL 3
REMARK VINA RESULT:      -5.3      2.811      5.654
REMARK  Name = 
REMARK  27 active torsions:
REMARK  status: ('A' for Active; 'I' for Inactive)
REMARK    1  A    between atoms: C_2  and  C_3
REMARK    2  A    between atoms: C_3  and  O_4
REMARK    3  A    between atoms: C_3  and  C_5
REMARK    4  A    between atoms: C_6  and  C_7
REMARK    5  A    between atoms: C_7  and  C_8
REMARK    6  A    between atoms: C_8  and  C_9
REMARK    7  A    between atoms: C_9  and  C_10
REMARK    8  A    between atoms: C_10  and  C_11
REMARK    9  A    between atoms: C_11  and  C_12
REMARK   10  A    between atoms: C_13  and  C_14
REMARK   11  A    between atoms: C_15  and  C_16
REMARK   12  A    between atoms: C_16  and  O_17
REMARK   13  A    between atoms: C_16  and  C_18
REMARK   14  A    between atoms: C_18  and  C_19
REMARK   15  A    between atoms: C_19  and  C_20
REMARK   16  A    between atoms: C_20  and  C_21
REMARK   17  A    between atoms: C_21  and  C_22
REMARK   18  A    between atoms: C_22  and  C_23
REMARK   19  A    between atoms: C_23  and  C_24
REMARK   20  A    between atoms: C_24  and  C_25
REMARK   21  A    between atoms: C_25  and  C_26
REMARK   22  A    between atoms: C_26  and  C_27
REMARK   23  A    between atoms: C_27  and  C_28
REMARK   24  A    between atoms: C_28  and  C_29
REMARK   25  A    between atoms: C_30  and  C_31
REMARK   26  A    between atoms: C_32  and  C_33
REMARK   27  A    between atoms: C_33  and  O_35
REMARK                            x       y       z     vdW  Elec       q    Type
REMARK                         _______ _______ _______ _____ _____    ______ ____
ROOT
ATOM      1  C   UNL     1       0.509  10.345  18.718  0.00  0.00    +0.000 C 
ENDROOT
BRANCH   1   3
ATOM      2  C   UNL     1       2.065   8.480  18.246  0.00  0.00    +0.000 C 
ATOM      3  C   UNL     1       1.709   9.757  18.045  0.00  0.00    +0.000 C 
BRANCH   2   5
ATOM      4  C   UNL     1       3.991   7.283  16.936  0.00  0.00    +0.000 C 
ATOM      5  C   UNL     1       3.115   7.867  17.528  0.00  0.00    +0.000 C 
BRANCH   4   6
ATOM      6  C   UNL     1       5.053   6.534  16.273  0.00  0.00    +0.000 C 
BRANCH   6   7
ATOM      7  C   UNL     1       6.388   6.686  16.991  0.00  0.00    +0.000 C 
BRANCH   7   8
ATOM      8  C   UNL     1       7.094   5.335  17.065  0.00  0.00    +0.000 C 
BRANCH   8   9
ATOM      9  C   UNL     1       7.132   4.805  18.493  0.00  0.00    +0.000 C 
BRANCH   9  10
ATOM     10  C   UNL     1       5.786   5.023  19.180  0.00  0.00    +0.000 C 
BRANCH  10  12
ATOM     11  C   UNL     1       4.143   3.515  18.042  0.00  0.00    +0.000 C 
ATOM     12  C   UNL     1       4.934   3.796  19.094  0.00  0.00    +0.000 C 
BRANCH  11  13
ATOM     13  C   UNL     1       3.278   2.284  17.953  0.00  0.00    +0.000 C 
BRANCH  13  14
ATOM     14  O   UNL     1       4.026   1.154  18.399  0.00  0.00    +0.000 OA
ATOM     15  H   UNL     1       3.424   0.394  18.392  0.00  0.00    +0.000 HD
ENDBRANCH  13  14
BRANCH  13  17
ATOM     16  C   UNL     1       1.059   2.541  19.422  0.00  0.00    +0.000 C 
ATOM     17  C   UNL     1       2.069   2.440  18.776  0.00  0.00    +0.000 C 
ENDBRANCH  13  17
ENDBRANCH  11  13
ENDBRANCH  10  12
ENDBRANCH   9  10
ENDBRANCH   8   9
ENDBRANCH   7   8
ENDBRANCH   6   7
ENDBRANCH   4   6
ENDBRANCH   2   5
ENDBRANCH   1   3
BRANCH   1  18
ATOM     18  O   UNL     1      -0.569  10.345  17.798  0.00  0.00    +0.000 OA
ATOM     19  H   UNL     1      -0.376  11.033  17.142  0.00  0.00    +0.000 HD
ENDBRANCH   1  18
BRANCH   1  20
ATOM     20  C   UNL     1       0.136   9.528  19.960  0.00  0.00    +0.000 C 
BRANCH  20  21
ATOM     21  C   UNL     1       0.405  10.288  21.267  0.00  0.00    +0.000 C 
BRANCH  21  22
ATOM     22  C   UNL     1      -0.527   9.855  22.395  0.00  0.00    +0.000 C 
BRANCH  22  23
ATOM     23  C   UNL     1      -1.028  11.067  23.165  0.00  0.00    +0.000 C 
BRANCH  23  24
ATOM     24  C   UNL     1      -1.791  11.997  22.253  0.00  0.00    +0.000 C 
BRANCH  24  25
ATOM     25  C   UNL     1      -1.557  13.428  22.691  0.00  0.00    +0.000 C 
BRANCH  25  26
ATOM     26  C   UNL     1      -0.157  13.849  22.291  0.00  0.00    +0.000 C 
BRANCH  26  27
ATOM     27  C   UNL     1      -0.217  14.613  20.989  0.00  0.00    +0.000 C 
BRANCH  27  28
ATOM     28  C   UNL     1       0.343  13.777  19.846  0.00  0.00    +0.000 C 
BRANCH  28  29
ATOM     29  C   UNL     1       1.863  13.699  19.922  0.00  0.00    +0.000 C 
BRANCH  29  30
ATOM     30  C   UNL     1       2.491  15.092  19.854  0.00  0.00    +0.000 C 
BRANCH  30  31
ATOM     31  C   UNL     1       2.331  15.695  18.495  0.00  0.00    +0.000 C 
ATOM     32  C   UNL     1       3.255  15.719  17.528  0.00  0.00    +0.000 C 
BRANCH  32  33
ATOM     33  C   UNL     1       4.557  15.159  17.681  0.00  0.00    +0.000 C 
ATOM     34  C   UNL     1       5.678  14.752  17.843  0.00  0.00    +0.000 C 
BRANCH  34  35
ATOM     35  C   UNL     1       7.043  14.346  18.083  0.00  0.00    +0.000 C 
ATOM     36  O   UNL     1       7.680  14.783  19.029  0.00  0.00    +0.000 OA
BRANCH  35  37
ATOM     37  O   UNL     1       7.529  13.470  17.170  0.00  0.00    +0.000 OA
ATOM     38  H   UNL     1       8.034  13.889  16.443  0.00  0.00    +0.000 HD
ENDBRANCH  35  37
ENDBRANCH  34  35
ENDBRANCH  32  33
ENDBRANCH  30  31
ENDBRANCH  29  30
ENDBRANCH  28  29
ENDBRANCH  27  28
ENDBRANCH  26  27
ENDBRANCH  25  26
ENDBRANCH  24  25
ENDBRANCH  23  24
ENDBRANCH  22  23
ENDBRANCH  21  22
ENDBRANCH  20  21
ENDBRANCH   1  20
TORSDOF 27
ENDMDL
MODEL 4
REMARK VINA RESULT:      -5.3      3.175      6.186
REMARK  Name = 
REMARK  27 active torsions:
REMARK  status: ('A' for Active; 'I' for Inactive)
REMARK    1  A    between atoms: C_2  and  C_3
REMARK    2  A    between atoms: C_3  and  O_4
REMARK    3  A    between atoms: C_3  and  C_5
REMARK    4  A    between atoms: C_6  and  C_7
REMARK    5  A    between atoms: C_7  and  C_8
REMARK    6  A    between atoms: C_8  and  C_9
REMARK    7  A    between atoms: C_9  and  C_10
REMARK    8  A    between atoms: C_10  and  C_11
REMARK    9  A    between atoms: C_11  and  C_12
REMARK   10  A    between atoms: C_13  and  C_14
REMARK   11  A    between atoms: C_15  and  C_16
REMARK   12  A    between atoms: C_16  and  O_17
REMARK   13  A    between atoms: C_16  and  C_18
REMARK   14  A    between atoms: C_18  and  C_19
REMARK   15  A    between atoms: C_19  and  C_20
REMARK   16  A    between atoms: C_20  and  C_21
REMARK   17  A    between atoms: C_21  and  C_22
REMARK   18  A    between atoms: C_22  and  C_23
REMARK   19  A    between atoms: C_23  and  C_24
REMARK   20  A    between atoms: C_24  and  C_25
REMARK   21  A    between atoms: C_25  and  C_26
REMARK   22  A    between atoms: C_26  and  C_27
REMARK   23  A    between atoms: C_27  and  C_28
REMARK   24  A    between atoms: C_28  and  C_29
REMARK   25  A    between atoms: C_30  and  C_31
REMARK   26  A    between atoms: C_32  and  C_33
REMARK   27  A    between atoms: C_33  and  O_35
REMARK                            x       y       z     vdW  Elec       q    Type
REMARK                         _______ _______ _______ _____ _____    ______ ____
ROOT
ATOM      1  C   UNL     1      -0.577  10.005  22.616  0.00  0.00    +0.000 C 
ENDROOT
BRANCH   1   3
ATOM      2  C   UNL     1       0.456   9.990  20.368  0.00  0.00    +0.000 C 
ATOM      3  C   UNL     1       0.003   9.305  21.427  0.00  0.00    +0.000 C 
BRANCH   2   5
ATOM      4  C   UNL     1       1.749   8.838  18.402  0.00  0.00    +0.000 C 
ATOM      5  C   UNL     1       1.121   9.363  19.292  0.00  0.00    +0.000 C 
BRANCH   4   6
ATOM      6  C   UNL     1       2.555   8.252  17.337  0.00  0.00    +0.000 C 
BRANCH   6   7
ATOM      7  C   UNL     1       3.731   7.457  17.889  0.00  0.00    +0.000 C 
BRANCH   7   8
ATOM      8  C   UNL     1       4.520   6.833  16.741  0.00  0.00    +0.000 C 
BRANCH   8   9
ATOM      9  C   UNL     1       4.670   5.328  16.922  0.00  0.00    +0.000 C 
BRANCH   9  10
ATOM     10  C   UNL     1       5.442   5.018  18.203  0.00  0.00    +0.000 C 
BRANCH  10  12
ATOM     11  C   UNL     1       3.480   4.205  19.529  0.00  0.00    +0.000 C 
ATOM     12  C   UNL     1       4.717   4.008  19.037  0.00  0.00    +0.000 C 
BRANCH  11  13
ATOM     13  C   UNL     1       2.748   3.195  20.374  0.00  0.00    +0.000 C 
BRANCH  13  14
ATOM     14  O   UNL     1       2.290   3.829  21.568  0.00  0.00    +0.000 OA
ATOM     15  H   UNL     1       2.812   4.639  21.678  0.00  0.00    +0.000 HD
ENDBRANCH  13  14
BRANCH  13  17
ATOM     16  C   UNL     1       0.696   2.138  19.026  0.00  0.00    +0.000 C 
ATOM     17  C   UNL     1       1.606   2.633  19.638  0.00  0.00    +0.000 C 
ENDBRANCH  13  17
ENDBRANCH  11  13
ENDBRANCH  10  12
ENDBRANCH   9  10
ENDBRANCH   8   9
ENDBRANCH   7   8
ENDBRANCH   6   7
ENDBRANCH   4   6
ENDBRANCH   2   5
ENDBRANCH   1   3
BRANCH   1  18
ATOM     18  O   UNL     1       0.434  10.131  23.601  0.00  0.00    +0.000 OA
ATOM     19  H   UNL     1       1.281   9.992  23.151  0.00  0.00    +0.000 HD
ENDBRANCH   1  18
BRANCH   1  20
ATOM     20  C   UNL     1      -1.097  11.392  22.221  0.00  0.00    +0.000 C 
BRANCH  20  21
ATOM     21  C   UNL     1      -1.911  12.056  23.341  0.00  0.00    +0.000 C 
BRANCH  21  22
ATOM     22  C   UNL     1      -3.206  12.680  22.829  0.00  0.00    +0.000 C 
BRANCH  22  23
ATOM     23  C   UNL     1      -3.196  12.755  21.310  0.00  0.00    +0.000 C 
BRANCH  23  24
ATOM     24  C   UNL     1      -4.335  13.612  20.813  0.00  0.00    +0.000 C 
BRANCH  24  25
ATOM     25  C   UNL     1      -5.626  13.147  21.456  0.00  0.00    +0.000 C 
BRANCH  25  26
ATOM     26  C   UNL     1      -6.560  12.632  20.379  0.00  0.00    +0.000 C 
BRANCH  26  27
ATOM     27  C   UNL     1      -6.130  11.242  19.968  0.00  0.00    +0.000 C 
BRANCH  27  28
ATOM     28  C   UNL     1      -6.764  10.853  18.639  0.00  0.00    +0.000 C 
BRANCH  28  29
ATOM     29  C   UNL     1      -6.522  11.926  17.584  0.00  0.00    +0.000 C 
BRANCH  29  30
ATOM     30  C   UNL     1      -5.039  12.017  17.219  0.00  0.00    +0.000 C 
BRANCH  30  31
ATOM     31  C   UNL     1      -4.390  10.671  17.239  0.00  0.00    +0.000 C 
ATOM     32  C   UNL     1      -3.114  10.414  17.551  0.00  0.00    +0.000 C 
BRANCH  32  33
ATOM     33  C   UNL     1      -2.180  11.430  17.907  0.00  0.00    +0.000 C 
ATOM     34  C   UNL     1      -1.337  12.246  18.176  0.00  0.00    +0.000 C 
BRANCH  34  35
ATOM     35  C   UNL     1      -0.261  13.167  18.453  0.00  0.00    +0.000 C 
ATOM     36  O   UNL     1       0.908  12.849  18.294  0.00  0.00    +0.000 OA
BRANCH  35  37
ATOM     37  O   UNL     1      -0.671  14.377  18.906  0.00  0.00    +0.000 OA
ATOM     38  H   UNL     1      -0.699  15.073  18.217  0.00  0.00    +0.000 HD
ENDBRANCH  35  37
ENDBRANCH  34  35
ENDBRANCH  32  33
ENDBRANCH  30  31
ENDBRANCH  29  30
ENDBRANCH  28  29
ENDBRANCH  27  28
ENDBRANCH  26  27
ENDBRANCH  25  26
ENDBRANCH  24  25
ENDBRANCH  23  24
ENDBRANCH  22  23
ENDBRANCH  21  22
ENDBRANCH  20  21
ENDBRANCH   1  20
TORSDOF 27
ENDMDL
MODEL 5
REMARK VINA RESULT:      -5.3      3.223      6.028
REMARK  Name = 
REMARK  27 active torsions:
REMARK  status: ('A' for Active; 'I' for Inactive)
REMARK    1  A    between atoms: C_2  and  C_3
REMARK    2  A    between atoms: C_3  and  O_4
REMARK    3  A    between atoms: C_3  and  C_5
REMARK    4  A    between atoms: C_6  and  C_7
REMARK    5  A    between atoms: C_7  and  C_8
REMARK    6  A    between atoms: C_8  and  C_9
REMARK    7  A    between atoms: C_9  and  C_10
REMARK    8  A    between atoms: C_10  and  C_11
REMARK    9  A    between atoms: C_11  and  C_12
REMARK   10  A    between atoms: C_13  and  C_14
REMARK   11  A    between atoms: C_15  and  C_16
REMARK   12  A    between atoms: C_16  and  O_17
REMARK   13  A    between atoms: C_16  and  C_18
REMARK   14  A    between atoms: C_18  and  C_19
REMARK   15  A    between atoms: C_19  and  C_20
REMARK   16  A    between atoms: C_20  and  C_21
REMARK   17  A    between atoms: C_21  and  C_22
REMARK   18  A    between atoms: C_22  and  C_23
REMARK   19  A    between atoms: C_23  and  C_24
REMARK   20  A    between atoms: C_24  and  C_25
REMARK   21  A    between atoms: C_25  and  C_26
REMARK   22  A    between atoms: C_26  and  C_27
REMARK   23  A    between atoms: C_27  and  C_28
REMARK   24  A    between atoms: C_28  and  C_29
REMARK   25  A    between atoms: C_30  and  C_31
REMARK   26  A    between atoms: C_32  and  C_33
REMARK   27  A    between atoms: C_33  and  O_35
REMARK                            x       y       z     vdW  Elec       q    Type
REMARK                         _______ _______ _______ _____ _____    ______ ____
ROOT
ATOM      1  C   UNL     1       3.895   1.953  19.859  0.00  0.00    +0.000 C 
ENDROOT
BRANCH   1   3
ATOM      2  C   UNL     1       5.015   4.158  19.775  0.00  0.00    +0.000 C 
ATOM      3  C   UNL     1       4.883   2.918  19.282  0.00  0.00    +0.000 C 
BRANCH   2   5
ATOM      4  C   UNL     1       6.844   5.824  18.914  0.00  0.00    +0.000 C 
ATOM      5  C   UNL     1       6.024   5.041  19.335  0.00  0.00    +0.000 C 
BRANCH   4   6
ATOM      6  C   UNL     1       7.806   6.760  18.345  0.00  0.00    +0.000 C 
BRANCH   6   7
ATOM      7  C   UNL     1       7.307   7.359  17.036  0.00  0.00    +0.000 C 
BRANCH   7   8
ATOM      8  C   UNL     1       5.841   6.994  16.823  0.00  0.00    +0.000 C 
BRANCH   8   9
ATOM      9  C   UNL     1       5.641   6.230  15.520  0.00  0.00    +0.000 C 
BRANCH   9  10
ATOM     10  C   UNL     1       5.525   4.732  15.791  0.00  0.00    +0.000 C 
BRANCH  10  12
ATOM     11  C   UNL     1       5.504   4.412  13.307  0.00  0.00    +0.000 C 
ATOM     12  C   UNL     1       5.758   3.940  14.542  0.00  0.00    +0.000 C 
BRANCH  11  13
ATOM     13  C   UNL     1       5.730   3.618  12.048  0.00  0.00    +0.000 C 
BRANCH  13  14
ATOM     14  O   UNL     1       6.406   2.404  12.375  0.00  0.00    +0.000 OA
ATOM     15  H   UNL     1       6.298   1.806  11.619  0.00  0.00    +0.000 HD
ENDBRANCH  13  14
BRANCH  13  17
ATOM     16  C   UNL     1       3.426   3.054  10.816  0.00  0.00    +0.000 C 
ATOM     17  C   UNL     1       4.451   3.316  11.389  0.00  0.00    +0.000 C 
ENDBRANCH  13  17
ENDBRANCH  11  13
ENDBRANCH  10  12
ENDBRANCH   9  10
ENDBRANCH   8   9
ENDBRANCH   7   8
ENDBRANCH   6   7
ENDBRANCH   4   6
ENDBRANCH   2   5
ENDBRANCH   1   3
BRANCH   1  18
ATOM     18  O   UNL     1       3.257   2.568  20.964  0.00  0.00    +0.000 OA
ATOM     19  H   UNL     1       2.619   3.202  20.601  0.00  0.00    +0.000 HD
ENDBRANCH   1  18
BRANCH   1  20
ATOM     20  C   UNL     1       2.852   1.560  18.806  0.00  0.00    +0.000 C 
BRANCH  20  21
ATOM     21  C   UNL     1       1.643   2.507  18.795  0.00  0.00    +0.000 C 
BRANCH  21  22
ATOM     22  C   UNL     1       1.840   3.695  17.858  0.00  0.00    +0.000 C 
BRANCH  22  23
ATOM     23  C   UNL     1       1.912   4.991  18.650  0.00  0.00    +0.000 C 
BRANCH  23  24
ATOM     24  C   UNL     1       2.345   6.132  17.763  0.00  0.00    +0.000 C 
BRANCH  24  25
ATOM     25  C   UNL     1       2.419   7.403  18.584  0.00  0.00    +0.000 C 
BRANCH  25  26
ATOM     26  C   UNL     1       2.545   8.592  17.653  0.00  0.00    +0.000 C 
BRANCH  26  27
ATOM     27  C   UNL     1       2.025   9.829  18.348  0.00  0.00    +0.000 C 
BRANCH  27  28
ATOM     28  C   UNL     1       0.761   9.513  19.137  0.00  0.00    +0.000 C 
BRANCH  28  29
ATOM     29  C   UNL     1       0.682  10.361  20.401  0.00  0.00    +0.000 C 
BRANCH  29  30
ATOM     30  C   UNL     1       0.443  11.834  20.064  0.00  0.00    +0.000 C 
BRANCH  30  31
ATOM     31  C   UNL     1      -0.678  11.993  19.086  0.00  0.00    +0.000 C 
ATOM     32  C   UNL     1      -1.039  13.130  18.479  0.00  0.00    +0.000 C 
BRANCH  32  33
ATOM     33  C   UNL     1      -0.384  14.376  18.702  0.00  0.00    +0.000 C 
ATOM     34  C   UNL     1       0.222  15.406  18.841  0.00  0.00    +0.000 C 
BRANCH  34  35
ATOM     35  C   UNL     1       1.011  16.611  18.939  0.00  0.00    +0.000 C 
ATOM     36  O   UNL     1       0.522  17.663  19.325  0.00  0.00    +0.000 OA
BRANCH  35  37
ATOM     37  O   UNL     1       2.303  16.460  18.557  0.00  0.00    +0.000 OA
ATOM     38  H   UNL     1       2.580  15.526  18.449  0.00  0.00    +0.000 HD
ENDBRANCH  35  37
ENDBRANCH  34  35
ENDBRANCH  32  33
ENDBRANCH  30  31
ENDBRANCH  29  30
ENDBRANCH  28  29
ENDBRANCH  27  28
ENDBRANCH  26  27
ENDBRANCH  25  26
ENDBRANCH  24  25
ENDBRANCH  23  24
ENDBRANCH  22  23
ENDBRANCH  21  22
ENDBRANCH  20  21
ENDBRANCH   1  20
TORSDOF 27
ENDMDL
MODEL 6
REMARK VINA RESULT:      -5.2      3.778      6.132
REMARK  Name = 
REMARK  27 active torsions:
REMARK  status: ('A' for Active; 'I' for Inactive)
REMARK    1  A    between atoms: C_2  and  C_3
REMARK    2  A    between atoms: C_3  and  O_4
REMARK    3  A    between atoms: C_3  and  C_5
REMARK    4  A    between atoms: C_6  and  C_7
REMARK    5  A    between atoms: C_7  and  C_8
REMARK    6  A    between atoms: C_8  and  C_9
REMARK    7  A    between atoms: C_9  and  C_10
REMARK    8  A    between atoms: C_10  and  C_11
REMARK    9  A    between atoms: C_11  and  C_12
REMARK   10  A    between atoms: C_13  and  C_14
REMARK   11  A    between atoms: C_15  and  C_16
REMARK   12  A    between atoms: C_16  and  O_17
REMARK   13  A    between atoms: C_16  and  C_18
REMARK   14  A    between atoms: C_18  and  C_19
REMARK   15  A    between atoms: C_19  and  C_20
REMARK   16  A    between atoms: C_20  and  C_21
REMARK   17  A    between atoms: C_21  and  C_22
REMARK   18  A    between atoms: C_22  and  C_23
REMARK   19  A    between atoms: C_23  and  C_24
REMARK   20  A    between atoms: C_24  and  C_25
REMARK   21  A    between atoms: C_25  and  C_26
REMARK   22  A    between atoms: C_26  and  C_27
REMARK   23  A    between atoms: C_27  and  C_28
REMARK   24  A    between atoms: C_28  and  C_29
REMARK   25  A    between atoms: C_30  and  C_31
REMARK   26  A    between atoms: C_32  and  C_33
REMARK   27  A    between atoms: C_33  and  O_35
REMARK                            x       y       z     vdW  Elec       q    Type
REMARK                         _______ _______ _______ _____ _____    ______ ____
ROOT
ATOM      1  C   UNL     1       0.211  11.120  20.166  0.00  0.00    +0.000 C 
ENDROOT
BRANCH   1   3
ATOM      2  C   UNL     1       1.043   8.914  20.920  0.00  0.00    +0.000 C 
ATOM      3  C   UNL     1       0.724   9.737  19.910  0.00  0.00    +0.000 C 
BRANCH   2   5
ATOM      4  C   UNL     1       1.754   6.416  20.584  0.00  0.00    +0.000 C 
ATOM      5  C   UNL     1       1.407   7.567  20.708  0.00  0.00    +0.000 C 
BRANCH   4   6
ATOM      6  C   UNL     1       2.234   5.044  20.461  0.00  0.00    +0.000 C 
BRANCH   6   7
ATOM      7  C   UNL     1       1.151   4.110  19.935  0.00  0.00    +0.000 C 
BRANCH   7   8
ATOM      8  C   UNL     1       1.732   3.194  18.861  0.00  0.00    +0.000 C 
BRANCH   8   9
ATOM      9  C   UNL     1       3.220   3.450  18.658  0.00  0.00    +0.000 C 
BRANCH   9  10
ATOM     10  C   UNL     1       3.480   4.022  17.267  0.00  0.00    +0.000 C 
BRANCH  10  12
ATOM     11  C   UNL     1       5.751   4.292  16.246  0.00  0.00    +0.000 C 
ATOM     12  C   UNL     1       4.845   4.631  17.182  0.00  0.00    +0.000 C 
BRANCH  11  13
ATOM     13  C   UNL     1       7.128   4.896  16.160  0.00  0.00    +0.000 C 
BRANCH  13  14
ATOM     14  O   UNL     1       7.418   5.207  14.798  0.00  0.00    +0.000 OA
ATOM     15  H   UNL     1       7.480   6.173  14.734  0.00  0.00    +0.000 HD
ENDBRANCH  13  14
BRANCH  13  17
ATOM     16  C   UNL     1       7.305   7.129  17.620  0.00  0.00    +0.000 C 
ATOM     17  C   UNL     1       7.211   6.115  16.980  0.00  0.00    +0.000 C 
ENDBRANCH  13  17
ENDBRANCH  11  13
ENDBRANCH  10  12
ENDBRANCH   9  10
ENDBRANCH   8   9
ENDBRANCH   7   8
ENDBRANCH   6   7
ENDBRANCH   4   6
ENDBRANCH   2   5
ENDBRANCH   1   3
BRANCH   1  18
ATOM     18  O   UNL     1      -0.925  11.029  21.008  0.00  0.00    +0.000 OA
ATOM     19  H   UNL     1      -1.502  10.350  20.626  0.00  0.00    +0.000 HD
ENDBRANCH   1  18
BRANCH   1  20
ATOM     20  C   UNL     1       1.291  11.977  20.836  0.00  0.00    +0.000 C 
BRANCH  20  21
ATOM     21  C   UNL     1       1.489  13.328  20.133  0.00  0.00    +0.000 C 
BRANCH  21  22
ATOM     22  C   UNL     1       1.763  13.174  18.640  0.00  0.00    +0.000 C 
BRANCH  22  23
ATOM     23  C   UNL     1       3.015  13.942  18.247  0.00  0.00    +0.000 C 
BRANCH  23  24
ATOM     24  C   UNL     1       3.519  14.765  19.409  0.00  0.00    +0.000 C 
BRANCH  24  25
ATOM     25  C   UNL     1       5.023  14.911  19.302  0.00  0.00    +0.000 C 
BRANCH  25  26
ATOM     26  C   UNL     1       5.431  14.803  17.846  0.00  0.00    +0.000 C 
BRANCH  26  27
ATOM     27  C   UNL     1       6.910  15.086  17.720  0.00  0.00    +0.000 C 
BRANCH  27  28
ATOM     28  C   UNL     1       7.682  14.446  18.866  0.00  0.00    +0.000 C 
BRANCH  28  29
ATOM     29  C   UNL     1       8.934  13.744  18.354  0.00  0.00    +0.000 C 
BRANCH  29  30
ATOM     30  C   UNL     1       8.616  12.326  17.875  0.00  0.00    +0.000 C 
BRANCH  30  31
ATOM     31  C   UNL     1       9.754  11.394  18.139  0.00  0.00    +0.000 C 
ATOM     32  C   UNL     1      10.128  10.923  19.335  0.00  0.00    +0.000 C 
BRANCH  32  33
ATOM     33  C   UNL     1       9.469  11.272  20.550  0.00  0.00    +0.000 C 
ATOM     34  C   UNL     1       8.848  11.553  21.541  0.00  0.00    +0.000 C 
BRANCH  34  35
ATOM     35  C   UNL     1       8.020  11.865  22.683  0.00  0.00    +0.000 C 
ATOM     36  O   UNL     1       8.011  11.154  23.676  0.00  0.00    +0.000 OA
BRANCH  35  37
ATOM     37  O   UNL     1       7.272  12.986  22.534  0.00  0.00    +0.000 OA
ATOM     38  H   UNL     1       6.554  12.902  21.871  0.00  0.00    +0.000 HD
ENDBRANCH  35  37
ENDBRANCH  34  35
ENDBRANCH  32  33
ENDBRANCH  30  31
ENDBRANCH  29  30
ENDBRANCH  28  29
ENDBRANCH  27  28
ENDBRANCH  26  27
ENDBRANCH  25  26
ENDBRANCH  24  25
ENDBRANCH  23  24
ENDBRANCH  22  23
ENDBRANCH  21  22
ENDBRANCH  20  21
ENDBRANCH   1  20
TORSDOF 27
ENDMDL
MODEL 7
REMARK VINA RESULT:      -5.2      3.196      4.810
REMARK  Name = 
REMARK  27 active torsions:
REMARK  status: ('A' for Active; 'I' for Inactive)
REMARK    1  A    between atoms: C_2  and  C_3
REMARK    2  A    between atoms: C_3  and  O_4
REMARK    3  A    between atoms: C_3  and  C_5
REMARK    4  A    between atoms: C_6  and  C_7
REMARK    5  A    between atoms: C_7  and  C_8
REMARK    6  A    between atoms: C_8  and  C_9
REMARK    7  A    between atoms: C_9  and  C_10
REMARK    8  A    between atoms: C_10  and  C_11
REMARK    9  A    between atoms: C_11  and  C_12
REMARK   10  A    between atoms: C_13  and  C_14
REMARK   11  A    between atoms: C_15  and  C_16
REMARK   12  A    between atoms: C_16  and  O_17
REMARK   13  A    between atoms: C_16  and  C_18
REMARK   14  A    between atoms: C_18  and  C_19
REMARK   15  A    between atoms: C_19  and  C_20
REMARK   16  A    between atoms: C_20  and  C_21
REMARK   17  A    between atoms: C_21  and  C_22
REMARK   18  A    between atoms: C_22  and  C_23
REMARK   19  A    between atoms: C_23  and  C_24
REMARK   20  A    between atoms: C_24  and  C_25
REMARK   21  A    between atoms: C_25  and  C_26
REMARK   22  A    between atoms: C_26  and  C_27
REMARK   23  A    between atoms: C_27  and  C_28
REMARK   24  A    between atoms: C_28  and  C_29
REMARK   25  A    between atoms: C_30  and  C_31
REMARK   26  A    between atoms: C_32  and  C_33
REMARK   27  A    between atoms: C_33  and  O_35
REMARK                            x       y       z     vdW  Elec       q    Type
REMARK                         _______ _______ _______ _____ _____    ______ ____
ROOT
ATOM      1  C   UNL     1      -1.836  11.408  17.525  0.00  0.00    +0.000 C 
ENDROOT
BRANCH   1   3
ATOM      2  C   UNL     1       0.129  10.379  18.621  0.00  0.00    +0.000 C 
ATOM      3  C   UNL     1      -1.170  10.311  18.295  0.00  0.00    +0.000 C 
BRANCH   2   5
ATOM      4  C   UNL     1       1.316   8.582  20.113  0.00  0.00    +0.000 C 
ATOM      5  C   UNL     1       0.749   9.422  19.453  0.00  0.00    +0.000 C 
BRANCH   4   6
ATOM      6  C   UNL     1       2.001   7.530  20.854  0.00  0.00    +0.000 C 
BRANCH   6   7
ATOM      7  C   UNL     1       1.555   6.142  20.410  0.00  0.00    +0.000 C 
BRANCH   7   8
ATOM      8  C   UNL     1       2.728   5.398  19.775  0.00  0.00    +0.000 C 
BRANCH   8   9
ATOM      9  C   UNL     1       2.599   5.351  18.257  0.00  0.00    +0.000 C 
BRANCH   9  10
ATOM     10  C   UNL     1       3.304   4.116  17.700  0.00  0.00    +0.000 C 
BRANCH  10  12
ATOM     11  C   UNL     1       5.527   4.715  16.713  0.00  0.00    +0.000 C 
ATOM     12  C   UNL     1       4.791   4.276  17.752  0.00  0.00    +0.000 C 
BRANCH  11  13
ATOM     13  C   UNL     1       7.024   4.872  16.758  0.00  0.00    +0.000 C 
BRANCH  13  14
ATOM     14  O   UNL     1       7.434   5.753  15.713  0.00  0.00    +0.000 OA
ATOM     15  H   UNL     1       8.393   5.652  15.616  0.00  0.00    +0.000 HD
ENDBRANCH  13  14
BRANCH  13  17
ATOM     16  C   UNL     1       7.820   5.812  19.131  0.00  0.00    +0.000 C 
ATOM     17  C   UNL     1       7.450   5.409  18.060  0.00  0.00    +0.000 C 
ENDBRANCH  13  17
ENDBRANCH  11  13
ENDBRANCH  10  12
ENDBRANCH   9  10
ENDBRANCH   8   9
ENDBRANCH   7   8
ENDBRANCH   6   7
ENDBRANCH   4   6
ENDBRANCH   2   5
ENDBRANCH   1   3
BRANCH   1  18
ATOM     18  O   UNL     1      -2.192  10.909  16.247  0.00  0.00    +0.000 OA
ATOM     19  H   UNL     1      -1.372  10.599  15.831  0.00  0.00    +0.000 HD
ENDBRANCH   1  18
BRANCH   1  20
ATOM     20  C   UNL     1      -3.088  11.896  18.262  0.00  0.00    +0.000 C 
BRANCH  20  21
ATOM     21  C   UNL     1      -4.381  11.598  17.487  0.00  0.00    +0.000 C 
BRANCH  21  22
ATOM     22  C   UNL     1      -5.114  10.373  18.025  0.00  0.00    +0.000 C 
BRANCH  22  23
ATOM     23  C   UNL     1      -6.544  10.730  18.398  0.00  0.00    +0.000 C 
BRANCH  23  24
ATOM     24  C   UNL     1      -6.847  12.162  18.027  0.00  0.00    +0.000 C 
BRANCH  24  25
ATOM     25  C   UNL     1      -7.325  12.906  19.257  0.00  0.00    +0.000 C 
BRANCH  25  26
ATOM     26  C   UNL     1      -7.406  11.940  20.423  0.00  0.00    +0.000 C 
BRANCH  26  27
ATOM     27  C   UNL     1      -6.484  12.409  21.524  0.00  0.00    +0.000 C 
BRANCH  27  28
ATOM     28  C   UNL     1      -5.710  13.646  21.090  0.00  0.00    +0.000 C 
BRANCH  28  29
ATOM     29  C   UNL     1      -4.208  13.387  21.119  0.00  0.00    +0.000 C 
BRANCH  29  30
ATOM     30  C   UNL     1      -3.623  13.683  22.501  0.00  0.00    +0.000 C 
BRANCH  30  31
ATOM     31  C   UNL     1      -3.340  12.423  23.254  0.00  0.00    +0.000 C 
ATOM     32  C   UNL     1      -2.196  11.727  23.225  0.00  0.00    +0.000 C 
BRANCH  32  33
ATOM     33  C   UNL     1      -1.070  12.110  22.440  0.00  0.00    +0.000 C 
ATOM     34  C   UNL     1      -0.161  12.492  21.751  0.00  0.00    +0.000 C 
BRANCH  34  35
ATOM     35  C   UNL     1       0.875  13.025  20.898  0.00  0.00    +0.000 C 
ATOM     36  O   UNL     1       2.059  12.855  21.149  0.00  0.00    +0.000 OA
BRANCH  35  37
ATOM     37  O   UNL     1       0.410  13.722  19.832  0.00  0.00    +0.000 OA
ATOM     38  H   UNL     1       0.202  13.166  19.051  0.00  0.00    +0.000 HD
ENDBRANCH  35  37
ENDBRANCH  34  35
ENDBRANCH  32  33
ENDBRANCH  30  31
ENDBRANCH  29  30
ENDBRANCH  28  29
ENDBRANCH  27  28
ENDBRANCH  26  27
ENDBRANCH  25  26
ENDBRANCH  24  25
ENDBRANCH  23  24
ENDBRANCH  22  23
ENDBRANCH  21  22
ENDBRANCH  20  21
ENDBRANCH   1  20
TORSDOF 27
ENDMDL
MODEL 8
REMARK VINA RESULT:      -5.2      3.405      5.534
REMARK  Name = 
REMARK  27 active torsions:
REMARK  status: ('A' for Active; 'I' for Inactive)
REMARK    1  A    between atoms: C_2  and  C_3
REMARK    2  A    between atoms: C_3  and  O_4
REMARK    3  A    between atoms: C_3  and  C_5
REMARK    4  A    between atoms: C_6  and  C_7
REMARK    5  A    between atoms: C_7  and  C_8
REMARK    6  A    between atoms: C_8  and  C_9
REMARK    7  A    between atoms: C_9  and  C_10
REMARK    8  A    between atoms: C_10  and  C_11
REMARK    9  A    between atoms: C_11  and  C_12
REMARK   10  A    between atoms: C_13  and  C_14
REMARK   11  A    between atoms: C_15  and  C_16
REMARK   12  A    between atoms: C_16  and  O_17
REMARK   13  A    between atoms: C_16  and  C_18
REMARK   14  A    between atoms: C_18  and  C_19
REMARK   15  A    between atoms: C_19  and  C_20
REMARK   16  A    between atoms: C_20  and  C_21
REMARK   17  A    between atoms: C_21  and  C_22
REMARK   18  A    between atoms: C_22  and  C_23
REMARK   19  A    between atoms: C_23  and  C_24
REMARK   20  A    between atoms: C_24  and  C_25
REMARK   21  A    between atoms: C_25  and  C_26
REMARK   22  A    between atoms: C_26  and  C_27
REMARK   23  A    between atoms: C_27  and  C_28
REMARK   24  A    between atoms: C_28  and  C_29
REMARK   25  A    between atoms: C_30  and  C_31
REMARK   26  A    between atoms: C_32  and  C_33
REMARK   27  A    between atoms: C_33  and  O_35
REMARK                            x       y       z     vdW  Elec       q    Type
REMARK                         _______ _______ _______ _____ _____    ______ ____
ROOT
ATOM      1  C   UNL     1      -0.193  10.816  18.689  0.00  0.00    +0.000 C 
ENDROOT
BRANCH   1   3
ATOM      2  C   UNL     1       1.494   9.016  18.885  0.00  0.00    +0.000 C 
ATOM      3  C   UNL     1       0.742   9.805  18.103  0.00  0.00    +0.000 C 
BRANCH   2   5
ATOM      4  C   UNL     1       3.018   7.103  17.947  0.00  0.00    +0.000 C 
ATOM      5  C   UNL     1       2.286   7.971  18.363  0.00  0.00    +0.000 C 
BRANCH   4   6
ATOM      6  C   UNL     1       3.949   6.102  17.441  0.00  0.00    +0.000 C 
BRANCH   6   7
ATOM      7  C   UNL     1       5.351   6.295  18.005  0.00  0.00    +0.000 C 
BRANCH   7   8
ATOM      8  C   UNL     1       6.185   7.140  17.046  0.00  0.00    +0.000 C 
BRANCH   8   9
ATOM      9  C   UNL     1       7.677   6.946  17.288  0.00  0.00    +0.000 C 
BRANCH   9  10
ATOM     10  C   UNL     1       8.149   7.820  18.447  0.00  0.00    +0.000 C 
BRANCH  10  12
ATOM     11  C   UNL     1       9.221  10.084  18.474  0.00  0.00    +0.000 C 
ATOM     12  C   UNL     1       8.258   9.254  18.030  0.00  0.00    +0.000 C 
BRANCH  11  13
ATOM     13  C   UNL     1       9.331  11.529  18.062  0.00  0.00    +0.000 C 
BRANCH  13  14
ATOM     14  O   UNL     1       8.729  12.347  19.064  0.00  0.00    +0.000 OA
ATOM     15  H   UNL     1       9.415  12.953  19.387  0.00  0.00    +0.000 HD
ENDBRANCH  13  14
BRANCH  13  17
ATOM     16  C   UNL     1      11.896  12.194  17.707  0.00  0.00    +0.000 C 
ATOM     17  C   UNL     1      10.740  11.910  17.885  0.00  0.00    +0.000 C 
ENDBRANCH  13  17
ENDBRANCH  11  13
ENDBRANCH  10  12
ENDBRANCH   9  10
ENDBRANCH   8   9
ENDBRANCH   7   8
ENDBRANCH   6   7
ENDBRANCH   4   6
ENDBRANCH   2   5
ENDBRANCH   1   3
BRANCH   1  18
ATOM     18  O   UNL     1      -0.019  12.042  17.999  0.00  0.00    +0.000 OA
ATOM     19  H   UNL     1      -0.040  12.744  18.668  0.00  0.00    +0.000 HD
ENDBRANCH   1  18
BRANCH   1  20
ATOM     20  C   UNL     1      -1.645  10.343  18.557  0.00  0.00    +0.000 C 
BRANCH  20  21
ATOM     21  C   UNL     1      -2.048  10.080  17.099  0.00  0.00    +0.000 C 
BRANCH  21  22
ATOM     22  C   UNL     1      -3.363  10.759  16.726  0.00  0.00    +0.000 C 
BRANCH  22  23
ATOM     23  C   UNL     1      -4.446  10.407  17.733  0.00  0.00    +0.000 C 
BRANCH  23  24
ATOM     24  C   UNL     1      -5.098  11.658  18.270  0.00  0.00    +0.000 C 
BRANCH  24  25
ATOM     25  C   UNL     1      -6.465  11.310  18.823  0.00  0.00    +0.000 C 
BRANCH  25  26
ATOM     26  C   UNL     1      -6.508  11.652  20.299  0.00  0.00    +0.000 C 
BRANCH  26  27
ATOM     27  C   UNL     1      -5.260  12.421  20.669  0.00  0.00    +0.000 C 
BRANCH  27  28
ATOM     28  C   UNL     1      -5.384  13.007  22.069  0.00  0.00    +0.000 C 
BRANCH  28  29
ATOM     29  C   UNL     1      -4.306  14.056  22.317  0.00  0.00    +0.000 C 
BRANCH  29  30
ATOM     30  C   UNL     1      -3.528  13.756  23.600  0.00  0.00    +0.000 C 
BRANCH  30  31
ATOM     31  C   UNL     1      -3.225  12.297  23.723  0.00  0.00    +0.000 C 
ATOM     32  C   UNL     1      -2.159  11.666  23.215  0.00  0.00    +0.000 C 
BRANCH  32  33
ATOM     33  C   UNL     1      -1.149  12.328  22.458  0.00  0.00    +0.000 C 
ATOM     34  C   UNL     1      -0.309  12.949  21.861  0.00  0.00    +0.000 C 
BRANCH  34  35
ATOM     35  C   UNL     1       0.681  13.769  21.204  0.00  0.00    +0.000 C 
ATOM     36  O   UNL     1       0.579  14.068  20.023  0.00  0.00    +0.000 OA
BRANCH  35  37
ATOM     37  O   UNL     1       1.706  14.149  22.005  0.00  0.00    +0.000 OA
ATOM     38  H   UNL     1       1.497  14.908  22.588  0.00  0.00    +0.000 HD
ENDBRANCH  35  37
ENDBRANCH  34  35
ENDBRANCH  32  33
ENDBRANCH  30  31
ENDBRANCH  29  30
ENDBRANCH  28  29
ENDBRANCH  27  28
ENDBRANCH  26  27
ENDBRANCH  25  26
ENDBRANCH  24  25
ENDBRANCH  23  24
ENDBRANCH  22  23
ENDBRANCH  21  22
ENDBRANCH  20  21
ENDBRANCH   1  20
TORSDOF 27
ENDMDL
MODEL 9
REMARK VINA RESULT:      -5.2      4.472      8.158
REMARK  Name = 
REMARK  27 active torsions:
REMARK  status: ('A' for Active; 'I' for Inactive)
REMARK    1  A    between atoms: C_2  and  C_3
REMARK    2  A    between atoms: C_3  and  O_4
REMARK    3  A    between atoms: C_3  and  C_5
REMARK    4  A    between atoms: C_6  and  C_7
REMARK    5  A    between atoms: C_7  and  C_8
REMARK    6  A    between atoms: C_8  and  C_9
REMARK    7  A    between atoms: C_9  and  C_10
REMARK    8  A    between atoms: C_10  and  C_11
REMARK    9  A    between atoms: C_11  and  C_12
REMARK   10  A    between atoms: C_13  and  C_14
REMARK   11  A    between atoms: C_15  and  C_16
REMARK   12  A    between atoms: C_16  and  O_17
REMARK   13  A    between atoms: C_16  and  C_18
REMARK   14  A    between atoms: C_18  and  C_19
REMARK   15  A    between atoms: C_19  and  C_20
REMARK   16  A    between atoms: C_20  and  C_21
REMARK   17  A    between atoms: C_21  and  C_22
REMARK   18  A    between atoms: C_22  and  C_23
REMARK   19  A    between atoms: C_23  and  C_24
REMARK   20  A    between atoms: C_24  and  C_25
REMARK   21  A    between atoms: C_25  and  C_26
REMARK   22  A    between atoms: C_26  and  C_27
REMARK   23  A    between atoms: C_27  and  C_28
REMARK   24  A    between atoms: C_28  and  C_29
REMARK   25  A    between atoms: C_30  and  C_31
REMARK   26  A    between atoms: C_32  and  C_33
REMARK   27  A    between atoms: C_33  and  O_35
REMARK                            x       y       z     vdW  Elec       q    Type
REMARK                         _______ _______ _______ _____ _____    ______ ____
ROOT
ATOM      1  C   UNL     1       5.684   5.251  15.923  0.00  0.00    +0.000 C 
ENDROOT
BRANCH   1   3
ATOM      2  C   UNL     1       3.842   3.880  16.845  0.00  0.00    +0.000 C 
ATOM      3  C   UNL     1       4.535   5.028  16.856  0.00  0.00    +0.000 C 
BRANCH   2   5
ATOM      4  C   UNL     1       1.982   3.287  18.592  0.00  0.00    +0.000 C 
ATOM      5  C   UNL     1       2.839   3.595  17.797  0.00  0.00    +0.000 C 
BRANCH   4   6
ATOM      6  C   UNL     1       0.925   2.870  19.506  0.00  0.00    +0.000 C 
BRANCH   6   7
ATOM      7  C   UNL     1       1.372   2.946  20.961  0.00  0.00    +0.000 C 
BRANCH   7   8
ATOM      8  C   UNL     1       2.095   4.267  21.214  0.00  0.00    +0.000 C 
BRANCH   8   9
ATOM      9  C   UNL     1       1.349   5.438  20.586  0.00  0.00    +0.000 C 
BRANCH   9  10
ATOM     10  C   UNL     1       2.318   6.569  20.249  0.00  0.00    +0.000 C 
BRANCH  10  12
ATOM     11  C   UNL     1       1.232   8.790  19.849  0.00  0.00    +0.000 C 
ATOM     12  C   UNL     1       1.660   7.601  19.386  0.00  0.00    +0.000 C 
BRANCH  11  13
ATOM     13  C   UNL     1       0.564   9.829  18.987  0.00  0.00    +0.000 C 
BRANCH  13  14
ATOM     14  O   UNL     1      -0.528  10.401  19.706  0.00  0.00    +0.000 OA
ATOM     15  H   UNL     1      -1.156   9.685  19.888  0.00  0.00    +0.000 HD
ENDBRANCH  13  14
BRANCH  13  17
ATOM     16  C   UNL     1       2.268  11.765  18.283  0.00  0.00    +0.000 C 
ATOM     17  C   UNL     1       1.519  10.881  18.608  0.00  0.00    +0.000 C 
ENDBRANCH  13  17
ENDBRANCH  11  13
ENDBRANCH  10  12
ENDBRANCH   9  10
ENDBRANCH   8   9
ENDBRANCH   7   8
ENDBRANCH   6   7
ENDBRANCH   4   6
ENDBRANCH   2   5
ENDBRANCH   1   3
BRANCH   1  18
ATOM     18  O   UNL     1       5.438   6.433  15.181  0.00  0.00    +0.000 OA
ATOM     19  H   UNL     1       6.285   6.899  15.109  0.00  0.00    +0.000 HD
ENDBRANCH   1  18
BRANCH   1  20
ATOM     20  C   UNL     1       6.992   5.391  16.709  0.00  0.00    +0.000 C 
BRANCH  20  21
ATOM     21  C   UNL     1       7.594   6.800  16.604  0.00  0.00    +0.000 C 
BRANCH  21  22
ATOM     22  C   UNL     1       7.797   7.450  17.970  0.00  0.00    +0.000 C 
BRANCH  22  23
ATOM     23  C   UNL     1       7.876   8.963  17.832  0.00  0.00    +0.000 C 
BRANCH  23  24
ATOM     24  C   UNL     1       8.868   9.534  18.816  0.00  0.00    +0.000 C 
BRANCH  24  25
ATOM     25  C   UNL     1       9.571  10.719  18.185  0.00  0.00    +0.000 C 
BRANCH  25  26
ATOM     26  C   UNL     1      10.590  11.270  19.162  0.00  0.00    +0.000 C 
BRANCH  26  27
ATOM     27  C   UNL     1      10.454  12.774  19.230  0.00  0.00    +0.000 C 
BRANCH  27  28
ATOM     28  C   UNL     1      11.822  13.442  19.197  0.00  0.00    +0.000 C 
BRANCH  28  29
ATOM     29  C   UNL     1      12.331  13.570  17.766  0.00  0.00    +0.000 C 
BRANCH  29  30
ATOM     30  C   UNL     1      11.252  14.143  16.845  0.00  0.00    +0.000 C 
BRANCH  30  31
ATOM     31  C   UNL     1      11.184  15.633  16.948  0.00  0.00    +0.000 C 
ATOM     32  C   UNL     1      10.120  16.351  17.327  0.00  0.00    +0.000 C 
BRANCH  32  33
ATOM     33  C   UNL     1       8.872  15.764  17.685  0.00  0.00    +0.000 C 
ATOM     34  C   UNL     1       7.809  15.323  18.037  0.00  0.00    +0.000 C 
BRANCH  34  35
ATOM     35  C   UNL     1       6.525  14.871  18.520  0.00  0.00    +0.000 C 
ATOM     36  O   UNL     1       6.189  15.035  19.683  0.00  0.00    +0.000 OA
BRANCH  35  37
ATOM     37  O   UNL     1       5.766  14.255  17.581  0.00  0.00    +0.000 OA
ATOM     38  H   UNL     1       4.829  14.135  17.841  0.00  0.00    +0.000 HD
ENDBRANCH  35  37
ENDBRANCH  34  35
ENDBRANCH  32  33
ENDBRANCH  30  31
ENDBRANCH  29  30
ENDBRANCH  28  29
ENDBRANCH  27  28
ENDBRANCH  26  27
ENDBRANCH  25  26
ENDBRANCH  24  25
ENDBRANCH  23  24
ENDBRANCH  22  23
ENDBRANCH  21  22
ENDBRANCH  20  21
ENDBRANCH   1  20
TORSDOF 27
ENDMDL
