MODEL 1
REMARK VINA RESULT:      -8.1      0.000      0.000
REMARK  Name = 
REMARK  6 active torsions:
REMARK  status: ('A' for Active; 'I' for Inactive)
REMARK    1  A    between atoms: C_2  and  C_3
REMARK    2  A    between atoms: C_3  and  N_4
REMARK    3  A    between atoms: C_5  and  C_7
REMARK    4  A    between atoms: C_7  and  O_8
REMARK    5  A    between atoms: O_8  and  C_9
REMARK    6  A    between atoms: C_9  and  C_11
REMARK                            x       y       z     vdW  Elec       q    Type
REMARK                         _______ _______ _______ _____ _____    ______ ____
ROOT
ATOM      1  C   UNL     1       5.310   5.049  17.011  0.00  0.00    +0.000 A 
ATOM      2  C   UNL     1       6.347   5.582  17.771  0.00  0.00    +0.000 A 
ATOM      3  C   UNL     1       6.445   5.212  19.098  0.00  0.00    +0.000 A 
ATOM      4  N   UNL     1       5.597   4.388  19.725  0.00  0.00    +0.000 NA
ATOM      5  C   UNL     1       4.573   3.896  19.013  0.00  0.00    +0.000 A 
ATOM      6  C   UNL     1       3.653   3.110  19.693  0.00  0.00    +0.000 A 
ATOM      7  C   UNL     1       2.523   2.582  19.068  0.00  0.00    +0.000 A 
ATOM      8  C   UNL     1       2.324   2.810  17.717  0.00  0.00    +0.000 A 
ATOM      9  C   UNL     1       3.241   3.585  17.008  0.00  0.00    +0.000 A 
ATOM     10  C   UNL     1       4.373   4.171  17.635  0.00  0.00    +0.000 A 
ATOM     11  C   UNL     1       7.575   5.890  19.808  0.00  0.00    +0.000 C 
ATOM     12  C   UNL     1       8.213   6.746  18.713  0.00  0.00    +0.000 C 
ATOM     13  C   UNL     1       7.421   6.556  17.410  0.00  0.00    +0.000 C 
ENDROOT
BRANCH   1  14
ATOM     14  C   UNL     1       5.169   5.404  15.571  0.00  0.00    +0.000 C 
ATOM     15  O   UNL     1       5.076   6.546  15.138  0.00  0.00    +0.000 OA
BRANCH  14  16
ATOM     16  O   UNL     1       5.181   4.292  14.800  0.00  0.00    +0.000 OA
BRANCH  16  17
ATOM     17  C   UNL     1       6.391   4.074  14.076  0.00  0.00    +0.000 C 
BRANCH  17  19
ATOM     18  N   UNL     1       4.876   3.289  12.314  0.00  0.00    +0.000 N 
ATOM     19  C   UNL     1       6.145   3.731  12.605  0.00  0.00    +0.000 C 
ATOM     20  O   UNL     1       7.039   3.837  11.767  0.00  0.00    +0.000 OA
ATOM     21  H   UNL     1       4.273   3.014  13.091  0.00  0.00    +0.000 HD
BRANCH  18  22
ATOM     22  C   UNL     1       4.533   2.819  10.995  0.00  0.00    +0.000 C 
BRANCH  22  24
ATOM     23  C   UNL     1       3.042   4.177   9.514  0.00  0.00    +0.000 C 
ATOM     24  C   UNL     1       3.227   3.431  10.611  0.00  0.00    +0.000 C 
ENDBRANCH  22  24
ENDBRANCH  18  22
ENDBRANCH  17  19
ENDBRANCH  16  17
ENDBRANCH  14  16
ENDBRANCH   1  14
TORSDOF 6
ENDMDL
MODEL 2
REMARK VINA RESULT:      -8.1      2.576      3.468
REMARK  Name = 
REMARK  6 active torsions:
REMARK  status: ('A' for Active; 'I' for Inactive)
REMARK    1  A    between atoms: C_2  and  C_3
REMARK    2  A    between atoms: C_3  and  N_4
REMARK    3  A    between atoms: C_5  and  C_7
REMARK    4  A    between atoms: C_7  and  O_8
REMARK    5  A    between atoms: O_8  and  C_9
REMARK    6  A    between atoms: C_9  and  C_11
REMARK                            x       y       z     vdW  Elec       q    Type
REMARK                         _______ _______ _______ _____ _____    ______ ____
ROOT
ATOM      1  C   UNL     1       3.657   5.231  18.309  0.00  0.00    +0.000 A 
ATOM      2  C   UNL     1       3.133   6.521  18.299  0.00  0.00    +0.000 A 
ATOM      3  C   UNL     1       2.364   6.925  19.372  0.00  0.00    +0.000 A 
ATOM      4  N   UNL     1       2.060   6.158  20.426  0.00  0.00    +0.000 NA
ATOM      5  C   UNL     1       2.530   4.901  20.431  0.00  0.00    +0.000 A 
ATOM      6  C   UNL     1       2.141   4.088  21.486  0.00  0.00    +0.000 A 
ATOM      7  C   UNL     1       2.528   2.751  21.574  0.00  0.00    +0.000 A 
ATOM      8  C   UNL     1       3.360   2.218  20.603  0.00  0.00    +0.000 A 
ATOM      9  C   UNL     1       3.777   3.019  19.540  0.00  0.00    +0.000 A 
ATOM     10  C   UNL     1       3.356   4.369  19.407  0.00  0.00    +0.000 A 
ATOM     11  C   UNL     1       1.829   8.314  19.212  0.00  0.00    +0.000 C 
ATOM     12  C   UNL     1       2.399   8.756  17.864  0.00  0.00    +0.000 C 
ATOM     13  C   UNL     1       3.227   7.604  17.274  0.00  0.00    +0.000 C 
ENDROOT
BRANCH   1  14
ATOM     14  C   UNL     1       4.505   4.751  17.183  0.00  0.00    +0.000 C 
ATOM     15  O   UNL     1       4.093   4.121  16.216  0.00  0.00    +0.000 OA
BRANCH  14  16
ATOM     16  O   UNL     1       5.794   5.126  17.359  0.00  0.00    +0.000 OA
BRANCH  16  17
ATOM     17  C   UNL     1       6.757   4.293  16.716  0.00  0.00    +0.000 C 
BRANCH  17  19
ATOM     18  N   UNL     1       6.484   3.759  14.337  0.00  0.00    +0.000 N 
ATOM     19  C   UNL     1       6.974   4.666  15.248  0.00  0.00    +0.000 C 
ATOM     20  O   UNL     1       7.560   5.700  14.933  0.00  0.00    +0.000 OA
ATOM     21  H   UNL     1       6.221   2.833  14.676  0.00  0.00    +0.000 HD
BRANCH  18  22
ATOM     22  C   UNL     1       6.717   3.920  12.924  0.00  0.00    +0.000 C 
BRANCH  22  24
ATOM     23  C   UNL     1       5.520   2.174  11.590  0.00  0.00    +0.000 C 
ATOM     24  C   UNL     1       5.537   3.369  12.195  0.00  0.00    +0.000 C 
ENDBRANCH  22  24
ENDBRANCH  18  22
ENDBRANCH  17  19
ENDBRANCH  16  17
ENDBRANCH  14  16
ENDBRANCH   1  14
TORSDOF 6
ENDMDL
MODEL 3
REMARK VINA RESULT:      -7.8      2.772      4.309
REMARK  Name = 
REMARK  6 active torsions:
REMARK  status: ('A' for Active; 'I' for Inactive)
REMARK    1  A    between atoms: C_2  and  C_3
REMARK    2  A    between atoms: C_3  and  N_4
REMARK    3  A    between atoms: C_5  and  C_7
REMARK    4  A    between atoms: C_7  and  O_8
REMARK    5  A    between atoms: O_8  and  C_9
REMARK    6  A    between atoms: C_9  and  C_11
REMARK                            x       y       z     vdW  Elec       q    Type
REMARK                         _______ _______ _______ _____ _____    ______ ____
ROOT
ATOM      1  C   UNL     1       3.483   4.823  18.717  0.00  0.00    +0.000 A 
ATOM      2  C   UNL     1       3.154   3.979  19.774  0.00  0.00    +0.000 A 
ATOM      3  C   UNL     1       2.296   4.452  20.748  0.00  0.00    +0.000 A 
ATOM      4  N   UNL     1       1.765   5.680  20.767  0.00  0.00    +0.000 NA
ATOM      5  C   UNL     1       2.102   6.514  19.772  0.00  0.00    +0.000 A 
ATOM      6  C   UNL     1       1.613   7.811  19.845  0.00  0.00    +0.000 A 
ATOM      7  C   UNL     1       1.934   8.779  18.894  0.00  0.00    +0.000 A 
ATOM      8  C   UNL     1       2.732   8.436  17.816  0.00  0.00    +0.000 A 
ATOM      9  C   UNL     1       3.225   7.135  17.711  0.00  0.00    +0.000 A 
ATOM     10  C   UNL     1       2.949   6.147  18.694  0.00  0.00    +0.000 A 
ATOM     11  C   UNL     1       2.063   3.461  21.845  0.00  0.00    +0.000 C 
ATOM     12  C   UNL     1       2.896   2.254  21.411  0.00  0.00    +0.000 C 
ATOM     13  C   UNL     1       3.602   2.589  20.089  0.00  0.00    +0.000 C 
ENDROOT
BRANCH   1  14
ATOM     14  C   UNL     1       4.392   4.357  17.633  0.00  0.00    +0.000 C 
ATOM     15  O   UNL     1       4.136   3.453  16.846  0.00  0.00    +0.000 OA
BRANCH  14  16
ATOM     16  O   UNL     1       5.533   5.084  17.617  0.00  0.00    +0.000 OA
BRANCH  16  17
ATOM     17  C   UNL     1       6.665   4.418  17.060  0.00  0.00    +0.000 C 
BRANCH  17  19
ATOM     18  N   UNL     1       6.252   4.063  14.669  0.00  0.00    +0.000 N 
ATOM     19  C   UNL     1       6.925   4.812  15.605  0.00  0.00    +0.000 C 
ATOM     20  O   UNL     1       7.697   5.727  15.320  0.00  0.00    +0.000 OA
ATOM     21  H   UNL     1       5.820   3.190  14.973  0.00  0.00    +0.000 HD
BRANCH  18  22
ATOM     22  C   UNL     1       6.488   4.243  13.258  0.00  0.00    +0.000 C 
BRANCH  22  24
ATOM     23  C   UNL     1       4.711   3.424  11.700  0.00  0.00    +0.000 C 
ATOM     24  C   UNL     1       5.738   3.183  12.524  0.00  0.00    +0.000 C 
ENDBRANCH  22  24
ENDBRANCH  18  22
ENDBRANCH  17  19
ENDBRANCH  16  17
ENDBRANCH  14  16
ENDBRANCH   1  14
TORSDOF 6
ENDMDL
MODEL 4
REMARK VINA RESULT:      -7.8      2.204      2.905
REMARK  Name = 
REMARK  6 active torsions:
REMARK  status: ('A' for Active; 'I' for Inactive)
REMARK    1  A    between atoms: C_2  and  C_3
REMARK    2  A    between atoms: C_3  and  N_4
REMARK    3  A    between atoms: C_5  and  C_7
REMARK    4  A    between atoms: C_7  and  O_8
REMARK    5  A    between atoms: O_8  and  C_9
REMARK    6  A    between atoms: C_9  and  C_11
REMARK                            x       y       z     vdW  Elec       q    Type
REMARK                         _______ _______ _______ _____ _____    ______ ____
ROOT
ATOM      1  C   UNL     1       4.299   4.771  17.798  0.00  0.00    +0.000 A 
ATOM      2  C   UNL     1       3.804   6.072  17.759  0.00  0.00    +0.000 A 
ATOM      3  C   UNL     1       2.514   6.297  18.196  0.00  0.00    +0.000 A 
ATOM      4  N   UNL     1       1.682   5.347  18.640  0.00  0.00    +0.000 NA
ATOM      5  C   UNL     1       2.134   4.084  18.650  0.00  0.00    +0.000 A 
ATOM      6  C   UNL     1       1.238   3.097  19.032  0.00  0.00    +0.000 A 
ATOM      7  C   UNL     1       1.580   1.745  19.036  0.00  0.00    +0.000 A 
ATOM      8  C   UNL     1       2.866   1.368  18.687  0.00  0.00    +0.000 A 
ATOM      9  C   UNL     1       3.791   2.342  18.313  0.00  0.00    +0.000 A 
ATOM     10  C   UNL     1       3.449   3.720  18.256  0.00  0.00    +0.000 A 
ATOM     11  C   UNL     1       2.095   7.727  18.059  0.00  0.00    +0.000 C 
ATOM     12  C   UNL     1       3.340   8.402  17.480  0.00  0.00    +0.000 C 
ATOM     13  C   UNL     1       4.432   7.341  17.280  0.00  0.00    +0.000 C 
ENDROOT
BRANCH   1  14
ATOM     14  C   UNL     1       5.689   4.478  17.353  0.00  0.00    +0.000 C 
ATOM     15  O   UNL     1       6.639   4.288  18.104  0.00  0.00    +0.000 OA
BRANCH  14  16
ATOM     16  O   UNL     1       5.761   4.425  16.003  0.00  0.00    +0.000 OA
BRANCH  16  17
ATOM     17  C   UNL     1       6.906   5.058  15.434  0.00  0.00    +0.000 C 
BRANCH  17  19
ATOM     18  N   UNL     1       6.362   3.680  13.479  0.00  0.00    +0.000 N 
ATOM     19  C   UNL     1       7.052   4.778  13.937  0.00  0.00    +0.000 C 
ATOM     20  O   UNL     1       7.755   5.490  13.221  0.00  0.00    +0.000 OA
ATOM     21  H   UNL     1       5.997   3.021  14.167  0.00  0.00    +0.000 HD
BRANCH  18  22
ATOM     22  C   UNL     1       6.499   3.227  12.117  0.00  0.00    +0.000 C 
BRANCH  22  24
ATOM     23  C   UNL     1       4.092   3.440  11.468  0.00  0.00    +0.000 C 
ATOM     24  C   UNL     1       5.180   2.687  11.675  0.00  0.00    +0.000 C 
ENDBRANCH  22  24
ENDBRANCH  18  22
ENDBRANCH  17  19
ENDBRANCH  16  17
ENDBRANCH  14  16
ENDBRANCH   1  14
TORSDOF 6
ENDMDL
MODEL 5
REMARK VINA RESULT:      -7.8      4.897      6.551
REMARK  Name = 
REMARK  6 active torsions:
REMARK  status: ('A' for Active; 'I' for Inactive)
REMARK    1  A    between atoms: C_2  and  C_3
REMARK    2  A    between atoms: C_3  and  N_4
REMARK    3  A    between atoms: C_5  and  C_7
REMARK    4  A    between atoms: C_7  and  O_8
REMARK    5  A    between atoms: O_8  and  C_9
REMARK    6  A    between atoms: C_9  and  C_11
REMARK                            x       y       z     vdW  Elec       q    Type
REMARK                         _______ _______ _______ _____ _____    ______ ____
ROOT
ATOM      1  C   UNL     1       2.879   5.799  18.352  0.00  0.00    +0.000 A 
ATOM      2  C   UNL     1       3.872   5.707  17.380  0.00  0.00    +0.000 A 
ATOM      3  C   UNL     1       4.240   4.452  16.935  0.00  0.00    +0.000 A 
ATOM      4  N   UNL     1       3.726   3.302  17.386  0.00  0.00    +0.000 NA
ATOM      5  C   UNL     1       2.794   3.375  18.348  0.00  0.00    +0.000 A 
ATOM      6  C   UNL     1       2.328   2.175  18.867  0.00  0.00    +0.000 A 
ATOM      7  C   UNL     1       1.394   2.128  19.901  0.00  0.00    +0.000 A 
ATOM      8  C   UNL     1       0.878   3.309  20.407  0.00  0.00    +0.000 A 
ATOM      9  C   UNL     1       1.318   4.528  19.893  0.00  0.00    +0.000 A 
ATOM     10  C   UNL     1       2.304   4.600  18.872  0.00  0.00    +0.000 A 
ATOM     11  C   UNL     1       5.344   4.496  15.926  0.00  0.00    +0.000 C 
ATOM     12  C   UNL     1       5.618   5.992  15.770  0.00  0.00    +0.000 C 
ATOM     13  C   UNL     1       4.681   6.768  16.708  0.00  0.00    +0.000 C 
ENDROOT
BRANCH   1  14
ATOM     14  C   UNL     1       2.435   7.129  18.855  0.00  0.00    +0.000 C 
ATOM     15  O   UNL     1       2.525   7.502  20.018  0.00  0.00    +0.000 OA
BRANCH  14  16
ATOM     16  O   UNL     1       1.937   7.882  17.846  0.00  0.00    +0.000 OA
BRANCH  16  17
ATOM     17  C   UNL     1       1.883   9.283  18.110  0.00  0.00    +0.000 C 
BRANCH  17  19
ATOM     18  N   UNL     1      -0.364  10.020  17.459  0.00  0.00    +0.000 N 
ATOM     19  C   UNL     1       0.483   9.754  18.509  0.00  0.00    +0.000 C 
ATOM     20  O   UNL     1       0.168   9.891  19.690  0.00  0.00    +0.000 OA
ATOM     21  H   UNL     1       0.040  10.101  16.525  0.00  0.00    +0.000 HD
BRANCH  18  22
ATOM     22  C   UNL     1      -1.674  10.582  17.679  0.00  0.00    +0.000 C 
BRANCH  22  24
ATOM     23  C   UNL     1      -2.944  10.608  15.524  0.00  0.00    +0.000 C 
ATOM     24  C   UNL     1      -2.603   9.999  16.667  0.00  0.00    +0.000 C 
ENDBRANCH  22  24
ENDBRANCH  18  22
ENDBRANCH  17  19
ENDBRANCH  16  17
ENDBRANCH  14  16
ENDBRANCH   1  14
TORSDOF 6
ENDMDL
MODEL 6
REMARK VINA RESULT:      -7.8      2.647      6.030
REMARK  Name = 
REMARK  6 active torsions:
REMARK  status: ('A' for Active; 'I' for Inactive)
REMARK    1  A    between atoms: C_2  and  C_3
REMARK    2  A    between atoms: C_3  and  N_4
REMARK    3  A    between atoms: C_5  and  C_7
REMARK    4  A    between atoms: C_7  and  O_8
REMARK    5  A    between atoms: O_8  and  C_9
REMARK    6  A    between atoms: C_9  and  C_11
REMARK                            x       y       z     vdW  Elec       q    Type
REMARK                         _______ _______ _______ _____ _____    ______ ____
ROOT
ATOM      1  C   UNL     1       5.256   4.217  16.640  0.00  0.00    +0.000 A 
ATOM      2  C   UNL     1       6.003   4.882  17.608  0.00  0.00    +0.000 A 
ATOM      3  C   UNL     1       7.128   5.575  17.207  0.00  0.00    +0.000 A 
ATOM      4  N   UNL     1       7.574   5.643  15.948  0.00  0.00    +0.000 NA
ATOM      5  C   UNL     1       6.883   4.977  15.010  0.00  0.00    +0.000 A 
ATOM      6  C   UNL     1       7.400   4.984  13.722  0.00  0.00    +0.000 A 
ATOM      7  C   UNL     1       6.795   4.290  12.676  0.00  0.00    +0.000 A 
ATOM      8  C   UNL     1       5.617   3.600  12.909  0.00  0.00    +0.000 A 
ATOM      9  C   UNL     1       5.068   3.589  14.191  0.00  0.00    +0.000 A 
ATOM     10  C   UNL     1       5.694   4.251  15.282  0.00  0.00    +0.000 A 
ATOM     11  C   UNL     1       7.860   6.204  18.351  0.00  0.00    +0.000 C 
ATOM     12  C   UNL     1       7.009   5.823  19.564  0.00  0.00    +0.000 C 
ATOM     13  C   UNL     1       5.824   4.968  19.089  0.00  0.00    +0.000 C 
ENDROOT
BRANCH   1  14
ATOM     14  C   UNL     1       4.026   3.467  17.017  0.00  0.00    +0.000 C 
ATOM     15  O   UNL     1       2.885   3.904  16.926  0.00  0.00    +0.000 OA
BRANCH  14  16
ATOM     16  O   UNL     1       4.336   2.224  17.454  0.00  0.00    +0.000 OA
BRANCH  16  17
ATOM     17  C   UNL     1       3.331   1.597  18.250  0.00  0.00    +0.000 C 
BRANCH  17  19
ATOM     18  N   UNL     1       1.888   2.807  19.821  0.00  0.00    +0.000 N 
ATOM     19  C   UNL     1       3.140   2.280  19.605  0.00  0.00    +0.000 C 
ATOM     20  O   UNL     1       4.060   2.353  20.419  0.00  0.00    +0.000 OA
ATOM     21  H   UNL     1       1.264   2.906  19.019  0.00  0.00    +0.000 HD
BRANCH  18  22
ATOM     22  C   UNL     1       1.597   3.581  21.002  0.00  0.00    +0.000 C 
BRANCH  22  24
ATOM     23  C   UNL     1       2.358   5.756  20.029  0.00  0.00    +0.000 C 
ATOM     24  C   UNL     1       1.404   5.002  20.588  0.00  0.00    +0.000 C 
ENDBRANCH  22  24
ENDBRANCH  18  22
ENDBRANCH  17  19
ENDBRANCH  16  17
ENDBRANCH  14  16
ENDBRANCH   1  14
TORSDOF 6
ENDMDL
MODEL 7
REMARK VINA RESULT:      -7.8      4.865      7.252
REMARK  Name = 
REMARK  6 active torsions:
REMARK  status: ('A' for Active; 'I' for Inactive)
REMARK    1  A    between atoms: C_2  and  C_3
REMARK    2  A    between atoms: C_3  and  N_4
REMARK    3  A    between atoms: C_5  and  C_7
REMARK    4  A    between atoms: C_7  and  O_8
REMARK    5  A    between atoms: O_8  and  C_9
REMARK    6  A    between atoms: C_9  and  C_11
REMARK                            x       y       z     vdW  Elec       q    Type
REMARK                         _______ _______ _______ _____ _____    ______ ____
ROOT
ATOM      1  C   UNL     1       2.798   5.722  18.431  0.00  0.00    +0.000 A 
ATOM      2  C   UNL     1       2.208   4.561  18.923  0.00  0.00    +0.000 A 
ATOM      3  C   UNL     1       2.653   3.345  18.445  0.00  0.00    +0.000 A 
ATOM      4  N   UNL     1       3.606   3.191  17.519  0.00  0.00    +0.000 NA
ATOM      5  C   UNL     1       4.159   4.302  17.010  0.00  0.00    +0.000 A 
ATOM      6  C   UNL     1       5.086   4.135  15.991  0.00  0.00    +0.000 A 
ATOM      7  C   UNL     1       5.691   5.218  15.354  0.00  0.00    +0.000 A 
ATOM      8  C   UNL     1       5.396   6.505  15.772  0.00  0.00    +0.000 A 
ATOM      9  C   UNL     1       4.479   6.700  16.804  0.00  0.00    +0.000 A 
ATOM     10  C   UNL     1       3.815   5.612  17.434  0.00  0.00    +0.000 A 
ATOM     11  C   UNL     1       1.904   2.185  19.024  0.00  0.00    +0.000 C 
ATOM     12  C   UNL     1       0.911   2.850  19.978  0.00  0.00    +0.000 C 
ATOM     13  C   UNL     1       1.099   4.373  19.907  0.00  0.00    +0.000 C 
ENDROOT
BRANCH   1  14
ATOM     14  C   UNL     1       2.365   7.058  18.924  0.00  0.00    +0.000 C 
ATOM     15  O   UNL     1       2.538   7.472  20.064  0.00  0.00    +0.000 OA
BRANCH  14  16
ATOM     16  O   UNL     1       1.774   7.767  17.934  0.00  0.00    +0.000 OA
BRANCH  16  17
ATOM     17  C   UNL     1       1.859   9.185  18.075  0.00  0.00    +0.000 C 
BRANCH  17  19
ATOM     18  N   UNL     1      -0.293  10.272  17.624  0.00  0.00    +0.000 N 
ATOM     19  C   UNL     1       0.561   9.805  18.596  0.00  0.00    +0.000 C 
ATOM     20  O   UNL     1       0.329   9.881  19.801  0.00  0.00    +0.000 OA
ATOM     21  H   UNL     1       0.070  10.377  16.676  0.00  0.00    +0.000 HD
BRANCH  18  22
ATOM     22  C   UNL     1      -1.498  10.984  17.968  0.00  0.00    +0.000 C 
BRANCH  22  24
ATOM     23  C   UNL     1      -2.801   9.737  16.235  0.00  0.00    +0.000 C 
ATOM     24  C   UNL     1      -2.662  10.182  17.490  0.00  0.00    +0.000 C 
ENDBRANCH  22  24
ENDBRANCH  18  22
ENDBRANCH  17  19
ENDBRANCH  16  17
ENDBRANCH  14  16
ENDBRANCH   1  14
TORSDOF 6
ENDMDL
MODEL 8
REMARK VINA RESULT:      -7.7      2.536      3.315
REMARK  Name = 
REMARK  6 active torsions:
REMARK  status: ('A' for Active; 'I' for Inactive)
REMARK    1  A    between atoms: C_2  and  C_3
REMARK    2  A    between atoms: C_3  and  N_4
REMARK    3  A    between atoms: C_5  and  C_7
REMARK    4  A    between atoms: C_7  and  O_8
REMARK    5  A    between atoms: O_8  and  C_9
REMARK    6  A    between atoms: C_9  and  C_11
REMARK                            x       y       z     vdW  Elec       q    Type
REMARK                         _______ _______ _______ _____ _____    ______ ____
ROOT
ATOM      1  C   UNL     1       4.040   5.390  18.656  0.00  0.00    +0.000 A 
ATOM      2  C   UNL     1       3.376   6.608  18.540  0.00  0.00    +0.000 A 
ATOM      3  C   UNL     1       2.327   6.868  19.401  0.00  0.00    +0.000 A 
ATOM      4  N   UNL     1       1.880   6.022  20.336  0.00  0.00    +0.000 NA
ATOM      5  C   UNL     1       2.488   4.831  20.434  0.00  0.00    +0.000 A 
ATOM      6  C   UNL     1       1.964   3.929  21.349  0.00  0.00    +0.000 A 
ATOM      7  C   UNL     1       2.484   2.644  21.506  0.00  0.00    +0.000 A 
ATOM      8  C   UNL     1       3.584   2.260  20.759  0.00  0.00    +0.000 A 
ATOM      9  C   UNL     1       4.139   3.153  19.842  0.00  0.00    +0.000 A 
ATOM     10  C   UNL     1       3.596   4.449  19.633  0.00  0.00    +0.000 A 
ATOM     11  C   UNL     1       1.676   8.190  19.139  0.00  0.00    +0.000 C 
ATOM     12  C   UNL     1       2.492   8.759  17.977  0.00  0.00    +0.000 C 
ATOM     13  C   UNL     1       3.575   7.742  17.587  0.00  0.00    +0.000 C 
ENDROOT
BRANCH   1  14
ATOM     14  C   UNL     1       5.187   5.067  17.763  0.00  0.00    +0.000 C 
ATOM     15  O   UNL     1       6.357   5.006  18.122  0.00  0.00    +0.000 OA
BRANCH  14  16
ATOM     16  O   UNL     1       4.761   4.826  16.501  0.00  0.00    +0.000 OA
BRANCH  16  17
ATOM     17  C   UNL     1       5.353   5.649  15.497  0.00  0.00    +0.000 C 
BRANCH  17  19
ATOM     18  N   UNL     1       5.626   4.245  13.504  0.00  0.00    +0.000 N 
ATOM     19  C   UNL     1       6.265   4.863  14.553  0.00  0.00    +0.000 C 
ATOM     20  O   UNL     1       7.478   4.793  14.750  0.00  0.00    +0.000 OA
ATOM     21  H   UNL     1       4.610   4.163  13.543  0.00  0.00    +0.000 HD
BRANCH  18  22
ATOM     22  C   UNL     1       6.340   3.376  12.602  0.00  0.00    +0.000 C 
BRANCH  22  24
ATOM     23  C   UNL     1       4.236   3.182  11.264  0.00  0.00    +0.000 C 
ATOM     24  C   UNL     1       5.336   2.629  11.788  0.00  0.00    +0.000 C 
ENDBRANCH  22  24
ENDBRANCH  18  22
ENDBRANCH  17  19
ENDBRANCH  16  17
ENDBRANCH  14  16
ENDBRANCH   1  14
TORSDOF 6
ENDMDL
MODEL 9
REMARK VINA RESULT:      -7.7      4.612      7.187
REMARK  Name = 
REMARK  6 active torsions:
REMARK  status: ('A' for Active; 'I' for Inactive)
REMARK    1  A    between atoms: C_2  and  C_3
REMARK    2  A    between atoms: C_3  and  N_4
REMARK    3  A    between atoms: C_5  and  C_7
REMARK    4  A    between atoms: C_7  and  O_8
REMARK    5  A    between atoms: O_8  and  C_9
REMARK    6  A    between atoms: C_9  and  C_11
REMARK                            x       y       z     vdW  Elec       q    Type
REMARK                         _______ _______ _______ _____ _____    ______ ____
ROOT
ATOM      1  C   UNL     1       2.939   5.728  18.242  0.00  0.00    +0.000 A 
ATOM      2  C   UNL     1       4.000   5.693  17.342  0.00  0.00    +0.000 A 
ATOM      3  C   UNL     1       4.415   4.466  16.862  0.00  0.00    +0.000 A 
ATOM      4  N   UNL     1       3.883   3.290  17.215  0.00  0.00    +0.000 NA
ATOM      5  C   UNL     1       2.883   3.306  18.108  0.00  0.00    +0.000 A 
ATOM      6  C   UNL     1       2.395   2.078  18.531  0.00  0.00    +0.000 A 
ATOM      7  C   UNL     1       1.389   1.970  19.490  0.00  0.00    +0.000 A 
ATOM      8  C   UNL     1       0.823   3.119  20.016  0.00  0.00    +0.000 A 
ATOM      9  C   UNL     1       1.286   4.367  19.598  0.00  0.00    +0.000 A 
ATOM     10  C   UNL     1       2.342   4.499  18.657  0.00  0.00    +0.000 A 
ATOM     11  C   UNL     1       5.589   4.570  15.940  0.00  0.00    +0.000 C 
ATOM     12  C   UNL     1       5.856   6.075  15.880  0.00  0.00    +0.000 C 
ATOM     13  C   UNL     1       4.844   6.794  16.785  0.00  0.00    +0.000 C 
ENDROOT
BRANCH   1  14
ATOM     14  C   UNL     1       2.444   7.026  18.777  0.00  0.00    +0.000 C 
ATOM     15  O   UNL     1       2.526   7.377  19.948  0.00  0.00    +0.000 OA
BRANCH  14  16
ATOM     16  O   UNL     1       1.909   7.781  17.789  0.00  0.00    +0.000 OA
BRANCH  16  17
ATOM     17  C   UNL     1       1.986   9.190  17.998  0.00  0.00    +0.000 C 
BRANCH  17  19
ATOM     18  N   UNL     1       0.732  10.037  19.928  0.00  0.00    +0.000 N 
ATOM     19  C   UNL     1       0.696   9.771  18.579  0.00  0.00    +0.000 C 
ATOM     20  O   UNL     1      -0.293   9.962  17.873  0.00  0.00    +0.000 OA
ATOM     21  H   UNL     1       1.498   9.642  20.475  0.00  0.00    +0.000 HD
BRANCH  18  22
ATOM     22  C   UNL     1      -0.445  10.477  20.635  0.00  0.00    +0.000 C 
BRANCH  22  24
ATOM     23  C   UNL     1      -0.051   9.401  22.859  0.00  0.00    +0.000 C 
ATOM     24  C   UNL     1      -0.128  10.497  22.093  0.00  0.00    +0.000 C 
ENDBRANCH  22  24
ENDBRANCH  18  22
ENDBRANCH  17  19
ENDBRANCH  16  17
ENDBRANCH  14  16
ENDBRANCH   1  14
TORSDOF 6
ENDMDL
