MODEL 1
REMARK VINA RESULT:      -7.5      0.000      0.000
REMARK  Name = 
REMARK  9 active torsions:
REMARK  status: ('A' for Active; 'I' for Inactive)
REMARK    1  A    between atoms: C_1  and  O_2
REMARK    2  A    between atoms: O_2  and  C_3
REMARK    3  A    between atoms: C_6  and  C_7
REMARK    4  A    between atoms: N_10  and  C_11
REMARK    5  A    between atoms: C_14  and  O_15
REMARK    6  A    between atoms: C_16  and  N_17
REMARK    7  A    between atoms: C_21  and  C_22
REMARK    8  A    between atoms: C_25  and  C_26
REMARK    9  A    between atoms: C_30  and  C_31
REMARK                            x       y       z     vdW  Elec       q    Type
REMARK                         _______ _______ _______ _____ _____    ______ ____
ROOT
ATOM      1  C   UNL     1       0.153   9.811  21.168  0.00  0.00    +0.000 A 
ATOM      2  C   UNL     1      -0.395   9.057  22.234  0.00  0.00    +0.000 A 
ATOM      3  C   UNL     1      -1.087   9.918  23.037  0.00  0.00    +0.000 A 
ATOM      4  N   UNL     1      -1.073  11.182  22.479  0.00  0.00    +0.000 N 
ATOM      5  C   UNL     1      -0.293  11.143  21.289  0.00  0.00    +0.000 A 
ENDROOT
BRANCH   5   6
ATOM      6  C   UNL     1       0.034  12.348  20.455  0.00  0.00    +0.000 A 
ATOM      7  C   UNL     1       1.227  13.053  20.732  0.00  0.00    +0.000 A 
ATOM      8  C   UNL     1       1.543  14.273  20.117  0.00  0.00    +0.000 A 
ATOM      9  C   UNL     1       0.728  14.769  19.105  0.00  0.00    +0.000 A 
ATOM     10  C   UNL     1      -0.401  14.029  18.738  0.00  0.00    +0.000 A 
ATOM     11  C   UNL     1      -0.788  12.854  19.422  0.00  0.00    +0.000 A 
ATOM     12  C   UNL     1      -2.062  12.220  18.928  0.00  0.00    +0.000 C 
BRANCH   9  13
ATOM     13  C   UNL     1       0.977  16.051  18.389  0.00  0.00    +0.000 C 
ATOM     14  N   UNL     1      -0.079  16.865  18.102  0.00  0.00    +0.000 N 
ATOM     15  O   UNL     1       2.108  16.387  18.057  0.00  0.00    +0.000 OA
ATOM     16  H   UNL     1      -1.047  16.679  18.323  0.00  0.00    +0.000 HD
ATOM     17  H   UNL     1       0.139  17.718  17.602  0.00  0.00    +0.000 HD
ENDBRANCH   9  13
ENDBRANCH   5   6
BRANCH   1  21
ATOM     18  C   UNL     1       2.631   8.100  18.131  0.00  0.00    +0.000 A 
ATOM     19  C   UNL     1       2.485   7.471  19.367  0.00  0.00    +0.000 A 
ATOM     20  C   UNL     1       1.679   8.034  20.358  0.00  0.00    +0.000 A 
ATOM     21  C   UNL     1       1.029   9.259  20.138  0.00  0.00    +0.000 A 
ATOM     22  C   UNL     1       1.232   9.916  18.920  0.00  0.00    +0.000 A 
ATOM     23  C   UNL     1       2.006   9.328  17.912  0.00  0.00    +0.000 A 
BRANCH  18  25
ATOM     24  C   UNL     1       3.941   6.185  17.659  0.00  0.00    +0.000 C 
ATOM     25  O   UNL     1       3.435   7.448  17.239  0.00  0.00    +0.000 OA
ENDBRANCH  18  25
ENDBRANCH   1  21
BRANCH   4  26
ATOM     26  C   UNL     1      -1.764  12.283  23.091  0.00  0.00    +0.000 A 
ATOM     27  C   UNL     1      -1.082  13.439  23.492  0.00  0.00    +0.000 A 
ATOM     28  C   UNL     1      -1.749  14.466  24.174  0.00  0.00    +0.000 A 
ATOM     29  C   UNL     1      -3.118  14.376  24.413  0.00  0.00    +0.000 A 
ATOM     30  C   UNL     1      -3.803  13.253  23.969  0.00  0.00    +0.000 A 
ATOM     31  C   UNL     1      -3.150  12.202  23.304  0.00  0.00    +0.000 A 
BRANCH  30  32
ATOM     32  N   UNL     1      -5.229  13.125  24.180  0.00  0.00    +0.000 N 
ATOM     33  O   UNL     1      -5.946  14.099  23.916  0.00  0.00    +0.000 OA
ATOM     34  O   UNL     1      -5.627  12.054  24.672  0.00  0.00    +0.000 OA
ENDBRANCH  30  32
BRANCH  29  35
ATOM     35  O   UNL     1      -3.765  15.394  25.047  0.00  0.00    +0.000 OA
ATOM     36  H   UNL     1      -4.264  15.925  24.402  0.00  0.00    +0.000 HD
ENDBRANCH  29  35
ENDBRANCH   4  26
TORSDOF 7
ENDMDL
MODEL 2
REMARK VINA RESULT:      -7.3      0.601      1.164
REMARK  Name = 
REMARK  9 active torsions:
REMARK  status: ('A' for Active; 'I' for Inactive)
REMARK    1  A    between atoms: C_1  and  O_2
REMARK    2  A    between atoms: O_2  and  C_3
REMARK    3  A    between atoms: C_6  and  C_7
REMARK    4  A    between atoms: N_10  and  C_11
REMARK    5  A    between atoms: C_14  and  O_15
REMARK    6  A    between atoms: C_16  and  N_17
REMARK    7  A    between atoms: C_21  and  C_22
REMARK    8  A    between atoms: C_25  and  C_26
REMARK    9  A    between atoms: C_30  and  C_31
REMARK                            x       y       z     vdW  Elec       q    Type
REMARK                         _______ _______ _______ _____ _____    ______ ____
ROOT
ATOM      1  C   UNL     1       0.310   9.478  20.998  0.00  0.00    +0.000 A 
ATOM      2  C   UNL     1      -0.353   8.771  22.030  0.00  0.00    +0.000 A 
ATOM      3  C   UNL     1      -0.998   9.688  22.810  0.00  0.00    +0.000 A 
ATOM      4  N   UNL     1      -0.841  10.949  22.266  0.00  0.00    +0.000 N 
ATOM      5  C   UNL     1      -0.015  10.845  21.112  0.00  0.00    +0.000 A 
ENDROOT
BRANCH   5   6
ATOM      6  C   UNL     1       0.460  12.018  20.305  0.00  0.00    +0.000 A 
ATOM      7  C   UNL     1       1.735  12.557  20.590  0.00  0.00    +0.000 A 
ATOM      8  C   UNL     1       2.202  13.742  20.003  0.00  0.00    +0.000 A 
ATOM      9  C   UNL     1       1.452  14.364  19.010  0.00  0.00    +0.000 A 
ATOM     10  C   UNL     1       0.236  13.785  18.634  0.00  0.00    +0.000 A 
ATOM     11  C   UNL     1      -0.296  12.652  19.292  0.00  0.00    +0.000 A 
ATOM     12  C   UNL     1      -1.644  12.200  18.794  0.00  0.00    +0.000 C 
BRANCH   9  13
ATOM     13  C   UNL     1       1.860  15.622  18.324  0.00  0.00    +0.000 C 
ATOM     14  N   UNL     1       1.049  16.715  18.409  0.00  0.00    +0.000 N 
ATOM     15  O   UNL     1       2.907  15.692  17.690  0.00  0.00    +0.000 OA
ATOM     16  H   UNL     1       0.166  16.761  18.897  0.00  0.00    +0.000 HD
ATOM     17  H   UNL     1       1.363  17.542  17.915  0.00  0.00    +0.000 HD
ENDBRANCH   9  13
ENDBRANCH   5   6
BRANCH   1  21
ATOM     18  C   UNL     1       2.933   7.743  18.100  0.00  0.00    +0.000 A 
ATOM     19  C   UNL     1       2.197   8.887  17.796  0.00  0.00    +0.000 A 
ATOM     20  C   UNL     1       1.338   9.449  18.743  0.00  0.00    +0.000 A 
ATOM     21  C   UNL     1       1.178   8.852  20.002  0.00  0.00    +0.000 A 
ATOM     22  C   UNL     1       1.871   7.668  20.277  0.00  0.00    +0.000 A 
ATOM     23  C   UNL     1       2.764   7.131  19.342  0.00  0.00    +0.000 A 
BRANCH  18  25
ATOM     24  C   UNL     1       4.411   6.057  17.336  0.00  0.00    +0.000 C 
ATOM     25  O   UNL     1       3.748   7.294  17.098  0.00  0.00    +0.000 OA
ENDBRANCH  18  25
ENDBRANCH   1  21
BRANCH   4  26
ATOM     26  C   UNL     1      -1.454  12.106  22.857  0.00  0.00    +0.000 A 
ATOM     27  C   UNL     1      -0.724  13.277  23.095  0.00  0.00    +0.000 A 
ATOM     28  C   UNL     1      -1.306  14.365  23.760  0.00  0.00    +0.000 A 
ATOM     29  C   UNL     1      -2.644  14.319  24.143  0.00  0.00    +0.000 A 
ATOM     30  C   UNL     1      -3.382  13.177  23.861  0.00  0.00    +0.000 A 
ATOM     31  C   UNL     1      -2.812  12.067  23.217  0.00  0.00    +0.000 A 
BRANCH  30  32
ATOM     32  N   UNL     1      -4.780  13.091  24.226  0.00  0.00    +0.000 N 
ATOM     33  O   UNL     1      -5.168  12.066  24.803  0.00  0.00    +0.000 OA
ATOM     34  O   UNL     1      -5.508  14.037  23.878  0.00  0.00    +0.000 OA
ENDBRANCH  30  32
BRANCH  29  35
ATOM     35  O   UNL     1      -3.212  15.393  24.758  0.00  0.00    +0.000 OA
ATOM     36  H   UNL     1      -2.832  16.217  24.407  0.00  0.00    +0.000 HD
ENDBRANCH  29  35
ENDBRANCH   4  26
TORSDOF 7
ENDMDL
MODEL 3
REMARK VINA RESULT:      -7.2      2.792      3.711
REMARK  Name = 
REMARK  9 active torsions:
REMARK  status: ('A' for Active; 'I' for Inactive)
REMARK    1  A    between atoms: C_1  and  O_2
REMARK    2  A    between atoms: O_2  and  C_3
REMARK    3  A    between atoms: C_6  and  C_7
REMARK    4  A    between atoms: N_10  and  C_11
REMARK    5  A    between atoms: C_14  and  O_15
REMARK    6  A    between atoms: C_16  and  N_17
REMARK    7  A    between atoms: C_21  and  C_22
REMARK    8  A    between atoms: C_25  and  C_26
REMARK    9  A    between atoms: C_30  and  C_31
REMARK                            x       y       z     vdW  Elec       q    Type
REMARK                         _______ _______ _______ _____ _____    ______ ____
ROOT
ATOM      1  C   UNL     1       0.118  10.292  20.740  0.00  0.00    +0.000 A 
ATOM      2  C   UNL     1       0.345  10.733  22.066  0.00  0.00    +0.000 A 
ATOM      3  C   UNL     1      -0.574  11.705  22.341  0.00  0.00    +0.000 A 
ATOM      4  N   UNL     1      -1.435  11.843  21.268  0.00  0.00    +0.000 N 
ATOM      5  C   UNL     1      -1.019  10.956  20.236  0.00  0.00    +0.000 A 
ENDROOT
BRANCH   5   6
ATOM      6  C   UNL     1      -1.650  10.888  18.876  0.00  0.00    +0.000 A 
ATOM      7  C   UNL     1      -2.516   9.808  18.590  0.00  0.00    +0.000 A 
ATOM      8  C   UNL     1      -3.028   9.572  17.306  0.00  0.00    +0.000 A 
ATOM      9  C   UNL     1      -2.790  10.488  16.286  0.00  0.00    +0.000 A 
ATOM     10  C   UNL     1      -2.026  11.623  16.578  0.00  0.00    +0.000 A 
ATOM     11  C   UNL     1      -1.415  11.819  17.838  0.00  0.00    +0.000 A 
ATOM     12  C   UNL     1      -0.581  13.068  17.954  0.00  0.00    +0.000 C 
BRANCH   9  13
ATOM     13  C   UNL     1      -3.291  10.331  14.893  0.00  0.00    +0.000 C 
ATOM     14  N   UNL     1      -4.613  10.543  14.636  0.00  0.00    +0.000 N 
ATOM     15  O   UNL     1      -2.539  10.018  13.977  0.00  0.00    +0.000 OA
ATOM     16  H   UNL     1      -5.315  10.796  15.317  0.00  0.00    +0.000 HD
ATOM     17  H   UNL     1      -4.908  10.411  13.676  0.00  0.00    +0.000 HD
ENDBRANCH   9  13
ENDBRANCH   5   6
BRANCH   1  21
ATOM     18  C   UNL     1       2.457   7.336  18.719  0.00  0.00    +0.000 A 
ATOM     19  C   UNL     1       2.140   7.189  20.069  0.00  0.00    +0.000 A 
ATOM     20  C   UNL     1       1.380   8.159  20.727  0.00  0.00    +0.000 A 
ATOM     21  C   UNL     1       0.952   9.310  20.049  0.00  0.00    +0.000 A 
ATOM     22  C   UNL     1       1.327   9.480  18.712  0.00  0.00    +0.000 A 
ATOM     23  C   UNL     1       2.052   8.487  18.043  0.00  0.00    +0.000 A 
BRANCH  18  25
ATOM     24  C   UNL     1       4.077   5.646  19.075  0.00  0.00    +0.000 C 
ATOM     25  O   UNL     1       3.195   6.318  18.183  0.00  0.00    +0.000 OA
ENDBRANCH  18  25
ENDBRANCH   1  21
BRANCH   4  26
ATOM     26  C   UNL     1      -2.533  12.769  21.298  0.00  0.00    +0.000 A 
ATOM     27  C   UNL     1      -2.415  14.059  20.768  0.00  0.00    +0.000 A 
ATOM     28  C   UNL     1      -3.460  14.986  20.888  0.00  0.00    +0.000 A 
ATOM     29  C   UNL     1      -4.660  14.614  21.490  0.00  0.00    +0.000 A 
ATOM     30  C   UNL     1      -4.796  13.318  21.969  0.00  0.00    +0.000 A 
ATOM     31  C   UNL     1      -3.752  12.382  21.879  0.00  0.00    +0.000 A 
BRANCH  30  32
ATOM     32  N   UNL     1      -6.031  12.883  22.587  0.00  0.00    +0.000 N 
ATOM     33  O   UNL     1      -6.320  13.348  23.697  0.00  0.00    +0.000 OA
ATOM     34  O   UNL     1      -6.687  12.021  21.977  0.00  0.00    +0.000 OA
ENDBRANCH  30  32
BRANCH  29  35
ATOM     35  O   UNL     1      -5.683  15.509  21.573  0.00  0.00    +0.000 OA
ATOM     36  H   UNL     1      -6.244  15.304  22.341  0.00  0.00    +0.000 HD
ENDBRANCH  29  35
ENDBRANCH   4  26
TORSDOF 7
ENDMDL
MODEL 4
REMARK VINA RESULT:      -7.2      3.044      8.107
REMARK  Name = 
REMARK  9 active torsions:
REMARK  status: ('A' for Active; 'I' for Inactive)
REMARK    1  A    between atoms: C_1  and  O_2
REMARK    2  A    between atoms: O_2  and  C_3
REMARK    3  A    between atoms: C_6  and  C_7
REMARK    4  A    between atoms: N_10  and  C_11
REMARK    5  A    between atoms: C_14  and  O_15
REMARK    6  A    between atoms: C_16  and  N_17
REMARK    7  A    between atoms: C_21  and  C_22
REMARK    8  A    between atoms: C_25  and  C_26
REMARK    9  A    between atoms: C_30  and  C_31
REMARK                            x       y       z     vdW  Elec       q    Type
REMARK                         _______ _______ _______ _____ _____    ______ ____
ROOT
ATOM      1  C   UNL     1      -1.344  11.508  21.484  0.00  0.00    +0.000 A 
ATOM      2  C   UNL     1      -0.414  11.208  22.509  0.00  0.00    +0.000 A 
ATOM      3  C   UNL     1       0.509  10.345  21.990  0.00  0.00    +0.000 A 
ATOM      4  N   UNL     1       0.252  10.148  20.646  0.00  0.00    +0.000 N 
ATOM      5  C   UNL     1      -0.920  10.877  20.297  0.00  0.00    +0.000 A 
ENDROOT
BRANCH   5   6
ATOM      6  C   UNL     1      -1.569  10.833  18.945  0.00  0.00    +0.000 A 
ATOM      7  C   UNL     1      -2.422   9.747  18.644  0.00  0.00    +0.000 A 
ATOM      8  C   UNL     1      -2.950   9.534  17.362  0.00  0.00    +0.000 A 
ATOM      9  C   UNL     1      -2.741  10.479  16.362  0.00  0.00    +0.000 A 
ATOM     10  C   UNL     1      -1.990  11.618  16.671  0.00  0.00    +0.000 A 
ATOM     11  C   UNL     1      -1.364  11.792  17.926  0.00  0.00    +0.000 A 
ATOM     12  C   UNL     1      -0.547  13.051  18.062  0.00  0.00    +0.000 C 
BRANCH   9  13
ATOM     13  C   UNL     1      -3.259  10.347  14.972  0.00  0.00    +0.000 C 
ATOM     14  N   UNL     1      -4.580  10.586  14.733  0.00  0.00    +0.000 N 
ATOM     15  O   UNL     1      -2.522  10.033  14.044  0.00  0.00    +0.000 OA
ATOM     16  H   UNL     1      -5.270  10.843  15.424  0.00  0.00    +0.000 HD
ATOM     17  H   UNL     1      -4.887  10.471  13.775  0.00  0.00    +0.000 HD
ENDBRANCH   9  13
ENDBRANCH   5   6
BRANCH   1  21
ATOM     18  C   UNL     1      -4.748  14.020  22.109  0.00  0.00    +0.000 A 
ATOM     19  C   UNL     1      -4.263  13.213  23.137  0.00  0.00    +0.000 A 
ATOM     20  C   UNL     1      -3.154  12.391  22.929  0.00  0.00    +0.000 A 
ATOM     21  C   UNL     1      -2.531  12.339  21.672  0.00  0.00    +0.000 A 
ATOM     22  C   UNL     1      -3.063  13.103  20.628  0.00  0.00    +0.000 A 
ATOM     23  C   UNL     1      -4.148  13.959  20.851  0.00  0.00    +0.000 A 
BRANCH  18  25
ATOM     24  C   UNL     1      -5.740  15.508  23.661  0.00  0.00    +0.000 C 
ATOM     25  O   UNL     1      -5.830  14.789  22.436  0.00  0.00    +0.000 OA
ENDBRANCH  18  25
ENDBRANCH   1  21
BRANCH   4  26
ATOM     26  C   UNL     1       1.095   9.317  19.832  0.00  0.00    +0.000 A 
ATOM     27  C   UNL     1       1.499   9.719  18.553  0.00  0.00    +0.000 A 
ATOM     28  C   UNL     1       2.241   8.860  17.730  0.00  0.00    +0.000 A 
ATOM     29  C   UNL     1       2.638   7.609  18.199  0.00  0.00    +0.000 A 
ATOM     30  C   UNL     1       2.280   7.232  19.486  0.00  0.00    +0.000 A 
ATOM     31  C   UNL     1       1.517   8.068  20.317  0.00  0.00    +0.000 A 
BRANCH  30  32
ATOM     32  N   UNL     1       2.684   5.949  20.020  0.00  0.00    +0.000 N 
ATOM     33  O   UNL     1       3.844   5.570  19.807  0.00  0.00    +0.000 OA
ATOM     34  O   UNL     1       1.811   5.289  20.608  0.00  0.00    +0.000 OA
ENDBRANCH  30  32
BRANCH  29  35
ATOM     35  O   UNL     1       3.387   6.794  17.405  0.00  0.00    +0.000 OA
ATOM     36  H   UNL     1       4.206   7.247  17.141  0.00  0.00    +0.000 HD
ENDBRANCH  29  35
ENDBRANCH   4  26
TORSDOF 7
ENDMDL
MODEL 5
REMARK VINA RESULT:      -7.2      1.990      7.537
REMARK  Name = 
REMARK  9 active torsions:
REMARK  status: ('A' for Active; 'I' for Inactive)
REMARK    1  A    between atoms: C_1  and  O_2
REMARK    2  A    between atoms: O_2  and  C_3
REMARK    3  A    between atoms: C_6  and  C_7
REMARK    4  A    between atoms: N_10  and  C_11
REMARK    5  A    between atoms: C_14  and  O_15
REMARK    6  A    between atoms: C_16  and  N_17
REMARK    7  A    between atoms: C_21  and  C_22
REMARK    8  A    between atoms: C_25  and  C_26
REMARK    9  A    between atoms: C_30  and  C_31
REMARK                            x       y       z     vdW  Elec       q    Type
REMARK                         _______ _______ _______ _____ _____    ______ ____
ROOT
ATOM      1  C   UNL     1      -0.731  11.057  22.281  0.00  0.00    +0.000 A 
ATOM      2  C   UNL     1      -1.005   9.755  22.768  0.00  0.00    +0.000 A 
ATOM      3  C   UNL     1      -0.348   8.867  21.965  0.00  0.00    +0.000 A 
ATOM      4  N   UNL     1       0.404   9.556  21.032  0.00  0.00    +0.000 N 
ATOM      5  C   UNL     1       0.181  10.950  21.211  0.00  0.00    +0.000 A 
ENDROOT
BRANCH   5   6
ATOM      6  C   UNL     1       0.751  12.016  20.322  0.00  0.00    +0.000 A 
ATOM      7  C   UNL     1       2.059  12.482  20.585  0.00  0.00    +0.000 A 
ATOM      8  C   UNL     1       2.619  13.579  19.913  0.00  0.00    +0.000 A 
ATOM      9  C   UNL     1       1.930  14.170  18.859  0.00  0.00    +0.000 A 
ATOM     10  C   UNL     1       0.679  13.651  18.509  0.00  0.00    +0.000 A 
ATOM     11  C   UNL     1       0.058  12.617  19.246  0.00  0.00    +0.000 A 
ATOM     12  C   UNL     1      -1.313  12.225  18.761  0.00  0.00    +0.000 C 
BRANCH   9  13
ATOM     13  C   UNL     1       2.438  15.335  18.082  0.00  0.00    +0.000 C 
ATOM     14  N   UNL     1       3.519  15.167  17.269  0.00  0.00    +0.000 N 
ATOM     15  O   UNL     1       1.903  16.435  18.159  0.00  0.00    +0.000 OA
ATOM     16  H   UNL     1       4.035  14.309  17.139  0.00  0.00    +0.000 HD
ATOM     17  H   UNL     1       3.835  15.991  16.772  0.00  0.00    +0.000 HD
ENDBRANCH   9  13
ENDBRANCH   5   6
BRANCH   1  21
ATOM     18  C   UNL     1      -2.446  14.577  23.999  0.00  0.00    +0.000 A 
ATOM     19  C   UNL     1      -3.188  13.401  23.902  0.00  0.00    +0.000 A 
ATOM     20  C   UNL     1      -2.627  12.254  23.336  0.00  0.00    +0.000 A 
ATOM     21  C   UNL     1      -1.319  12.277  22.827  0.00  0.00    +0.000 A 
ATOM     22  C   UNL     1      -0.604  13.479  22.870  0.00  0.00    +0.000 A 
ATOM     23  C   UNL     1      -1.153  14.615  23.476  0.00  0.00    +0.000 A 
BRANCH  18  25
ATOM     24  C   UNL     1      -2.321  16.443  25.452  0.00  0.00    +0.000 C 
ATOM     25  O   UNL     1      -3.098  15.628  24.581  0.00  0.00    +0.000 OA
ENDBRANCH  18  25
ENDBRANCH   1  21
BRANCH   4  26
ATOM     26  C   UNL     1       1.236   8.871  20.082  0.00  0.00    +0.000 A 
ATOM     27  C   UNL     1       1.437   9.377  18.791  0.00  0.00    +0.000 A 
ATOM     28  C   UNL     1       2.171   8.654  17.841  0.00  0.00    +0.000 A 
ATOM     29  C   UNL     1       2.763   7.441  18.188  0.00  0.00    +0.000 A 
ATOM     30  C   UNL     1       2.606   6.965  19.482  0.00  0.00    +0.000 A 
ATOM     31  C   UNL     1       1.855   7.663  20.442  0.00  0.00    +0.000 A 
BRANCH  30  32
ATOM     32  N   UNL     1       3.217   5.718  19.891  0.00  0.00    +0.000 N 
ATOM     33  O   UNL     1       4.390   5.507  19.555  0.00  0.00    +0.000 OA
ATOM     34  O   UNL     1       2.492   4.916  20.505  0.00  0.00    +0.000 OA
ENDBRANCH  30  32
BRANCH  29  35
ATOM     35  O   UNL     1       3.503   6.760  17.269  0.00  0.00    +0.000 OA
ATOM     36  H   UNL     1       4.045   6.084  17.712  0.00  0.00    +0.000 HD
ENDBRANCH  29  35
ENDBRANCH   4  26
TORSDOF 7
ENDMDL
MODEL 6
REMARK VINA RESULT:      -7.2      3.056      8.131
REMARK  Name = 
REMARK  9 active torsions:
REMARK  status: ('A' for Active; 'I' for Inactive)
REMARK    1  A    between atoms: C_1  and  O_2
REMARK    2  A    between atoms: O_2  and  C_3
REMARK    3  A    between atoms: C_6  and  C_7
REMARK    4  A    between atoms: N_10  and  C_11
REMARK    5  A    between atoms: C_14  and  O_15
REMARK    6  A    between atoms: C_16  and  N_17
REMARK    7  A    between atoms: C_21  and  C_22
REMARK    8  A    between atoms: C_25  and  C_26
REMARK    9  A    between atoms: C_30  and  C_31
REMARK                            x       y       z     vdW  Elec       q    Type
REMARK                         _______ _______ _______ _____ _____    ______ ____
ROOT
ATOM      1  C   UNL     1      -1.376  11.475  21.531  0.00  0.00    +0.000 A 
ATOM      2  C   UNL     1      -0.452  11.158  22.556  0.00  0.00    +0.000 A 
ATOM      3  C   UNL     1       0.469  10.297  22.031  0.00  0.00    +0.000 A 
ATOM      4  N   UNL     1       0.217  10.117  20.684  0.00  0.00    +0.000 N 
ATOM      5  C   UNL     1      -0.949  10.856  20.338  0.00  0.00    +0.000 A 
ENDROOT
BRANCH   5   6
ATOM      6  C   UNL     1      -1.592  10.831  18.982  0.00  0.00    +0.000 A 
ATOM      7  C   UNL     1      -2.469   9.766  18.674  0.00  0.00    +0.000 A 
ATOM      8  C   UNL     1      -2.994   9.570  17.388  0.00  0.00    +0.000 A 
ATOM      9  C   UNL     1      -2.758  10.512  16.392  0.00  0.00    +0.000 A 
ATOM     10  C   UNL     1      -1.983  11.633  16.709  0.00  0.00    +0.000 A 
ATOM     11  C   UNL     1      -1.359  11.788  17.968  0.00  0.00    +0.000 A 
ATOM     12  C   UNL     1      -0.515  13.028  18.112  0.00  0.00    +0.000 C 
BRANCH   9  13
ATOM     13  C   UNL     1      -3.272  10.398  14.999  0.00  0.00    +0.000 C 
ATOM     14  N   UNL     1      -4.588  10.656  14.756  0.00  0.00    +0.000 N 
ATOM     15  O   UNL     1      -2.536  10.079  14.072  0.00  0.00    +0.000 OA
ATOM     16  H   UNL     1      -5.278  10.918  15.446  0.00  0.00    +0.000 HD
ATOM     17  H   UNL     1      -4.893  10.551  13.796  0.00  0.00    +0.000 HD
ENDBRANCH   9  13
ENDBRANCH   5   6
BRANCH   1  21
ATOM     18  C   UNL     1      -4.909  13.836  22.016  0.00  0.00    +0.000 A 
ATOM     19  C   UNL     1      -4.196  13.863  20.818  0.00  0.00    +0.000 A 
ATOM     20  C   UNL     1      -3.040  13.094  20.664  0.00  0.00    +0.000 A 
ATOM     21  C   UNL     1      -2.561  12.309  21.723  0.00  0.00    +0.000 A 
ATOM     22  C   UNL     1      -3.244  12.337  22.943  0.00  0.00    +0.000 A 
ATOM     23  C   UNL     1      -4.427  13.075  23.081  0.00  0.00    +0.000 A 
BRANCH  18  25
ATOM     24  C   UNL     1      -6.306  15.273  23.277  0.00  0.00    +0.000 C 
ATOM     25  O   UNL     1      -6.028  14.621  22.043  0.00  0.00    +0.000 OA
ENDBRANCH  18  25
ENDBRANCH   1  21
BRANCH   4  26
ATOM     26  C   UNL     1       1.060   9.292  19.864  0.00  0.00    +0.000 A 
ATOM     27  C   UNL     1       1.441   9.690  18.577  0.00  0.00    +0.000 A 
ATOM     28  C   UNL     1       2.183   8.836  17.749  0.00  0.00    +0.000 A 
ATOM     29  C   UNL     1       2.604   7.594  18.221  0.00  0.00    +0.000 A 
ATOM     30  C   UNL     1       2.270   7.222  19.515  0.00  0.00    +0.000 A 
ATOM     31  C   UNL     1       1.507   8.053  20.352  0.00  0.00    +0.000 A 
BRANCH  30  32
ATOM     32  N   UNL     1       2.699   5.948  20.053  0.00  0.00    +0.000 N 
ATOM     33  O   UNL     1       1.898   5.312  20.751  0.00  0.00    +0.000 OA
ATOM     34  O   UNL     1       3.872   5.610  19.819  0.00  0.00    +0.000 OA
ENDBRANCH  30  32
BRANCH  29  35
ATOM     35  O   UNL     1       3.353   6.784  17.423  0.00  0.00    +0.000 OA
ATOM     36  H   UNL     1       3.512   5.933  17.867  0.00  0.00    +0.000 HD
ENDBRANCH  29  35
ENDBRANCH   4  26
TORSDOF 7
ENDMDL
MODEL 7
REMARK VINA RESULT:      -7.1      1.190      1.947
REMARK  Name = 
REMARK  9 active torsions:
REMARK  status: ('A' for Active; 'I' for Inactive)
REMARK    1  A    between atoms: C_1  and  O_2
REMARK    2  A    between atoms: O_2  and  C_3
REMARK    3  A    between atoms: C_6  and  C_7
REMARK    4  A    between atoms: N_10  and  C_11
REMARK    5  A    between atoms: C_14  and  O_15
REMARK    6  A    between atoms: C_16  and  N_17
REMARK    7  A    between atoms: C_21  and  C_22
REMARK    8  A    between atoms: C_25  and  C_26
REMARK    9  A    between atoms: C_30  and  C_31
REMARK                            x       y       z     vdW  Elec       q    Type
REMARK                         _______ _______ _______ _____ _____    ______ ____
ROOT
ATOM      1  C   UNL     1       0.119   9.825  21.256  0.00  0.00    +0.000 A 
ATOM      2  C   UNL     1      -0.373   9.053  22.337  0.00  0.00    +0.000 A 
ATOM      3  C   UNL     1      -1.060   9.894  23.166  0.00  0.00    +0.000 A 
ATOM      4  N   UNL     1      -1.097  11.160  22.613  0.00  0.00    +0.000 N 
ATOM      5  C   UNL     1      -0.357  11.145  21.397  0.00  0.00    +0.000 A 
ENDROOT
BRANCH   5   6
ATOM      6  C   UNL     1      -0.089  12.360  20.557  0.00  0.00    +0.000 A 
ATOM      7  C   UNL     1       1.091  13.099  20.802  0.00  0.00    +0.000 A 
ATOM      8  C   UNL     1       1.352  14.329  20.181  0.00  0.00    +0.000 A 
ATOM      9  C   UNL     1       0.495  14.802  19.193  0.00  0.00    +0.000 A 
ATOM     10  C   UNL     1      -0.622  14.030  18.857  0.00  0.00    +0.000 A 
ATOM     11  C   UNL     1      -0.955  12.843  19.549  0.00  0.00    +0.000 A 
ATOM     12  C   UNL     1      -2.224  12.173  19.091  0.00  0.00    +0.000 C 
BRANCH   9  13
ATOM     13  C   UNL     1       0.685  16.093  18.474  0.00  0.00    +0.000 C 
ATOM     14  N   UNL     1      -0.410  16.840  18.154  0.00  0.00    +0.000 N 
ATOM     15  O   UNL     1       1.802  16.493  18.168  0.00  0.00    +0.000 OA
ATOM     16  H   UNL     1      -1.370  16.599  18.353  0.00  0.00    +0.000 HD
ATOM     17  H   UNL     1      -0.230  17.702  17.654  0.00  0.00    +0.000 HD
ENDBRANCH   9  13
ENDBRANCH   5   6
BRANCH   1  21
ATOM     18  C   UNL     1       2.537   8.189  18.131  0.00  0.00    +0.000 A 
ATOM     19  C   UNL     1       2.436   7.543  19.362  0.00  0.00    +0.000 A 
ATOM     20  C   UNL     1       1.649   8.082  20.383  0.00  0.00    +0.000 A 
ATOM     21  C   UNL     1       0.975   9.298  20.195  0.00  0.00    +0.000 A 
ATOM     22  C   UNL     1       1.133   9.973  18.980  0.00  0.00    +0.000 A 
ATOM     23  C   UNL     1       1.887   9.409  17.944  0.00  0.00    +0.000 A 
BRANCH  18  25
ATOM     24  C   UNL     1       3.946   6.351  17.636  0.00  0.00    +0.000 C 
ATOM     25  O   UNL     1       3.326   7.560  17.209  0.00  0.00    +0.000 OA
ENDBRANCH  18  25
ENDBRANCH   1  21
BRANCH   4  26
ATOM     26  C   UNL     1      -1.795  12.241  23.251  0.00  0.00    +0.000 A 
ATOM     27  C   UNL     1      -3.136  12.118  23.633  0.00  0.00    +0.000 A 
ATOM     28  C   UNL     1      -3.835  13.209  24.167  0.00  0.00    +0.000 A 
ATOM     29  C   UNL     1      -3.184  14.422  24.381  0.00  0.00    +0.000 A 
ATOM     30  C   UNL     1      -1.840  14.528  24.049  0.00  0.00    +0.000 A 
ATOM     31  C   UNL     1      -1.128  13.454  23.491  0.00  0.00    +0.000 A 
BRANCH  30  32
ATOM     32  N   UNL     1      -1.119  15.764  24.269  0.00  0.00    +0.000 N 
ATOM     33  O   UNL     1      -0.207  15.764  25.107  0.00  0.00    +0.000 OA
ATOM     34  O   UNL     1      -1.511  16.759  23.636  0.00  0.00    +0.000 OA
ENDBRANCH  30  32
BRANCH  29  35
ATOM     35  O   UNL     1      -3.861  15.468  24.931  0.00  0.00    +0.000 OA
ATOM     36  H   UNL     1      -3.837  15.407  25.902  0.00  0.00    +0.000 HD
ENDBRANCH  29  35
ENDBRANCH   4  26
TORSDOF 7
ENDMDL
MODEL 8
REMARK VINA RESULT:      -7.0      3.355      6.549
REMARK  Name = 
REMARK  9 active torsions:
REMARK  status: ('A' for Active; 'I' for Inactive)
REMARK    1  A    between atoms: C_1  and  O_2
REMARK    2  A    between atoms: O_2  and  C_3
REMARK    3  A    between atoms: C_6  and  C_7
REMARK    4  A    between atoms: N_10  and  C_11
REMARK    5  A    between atoms: C_14  and  O_15
REMARK    6  A    between atoms: C_16  and  N_17
REMARK    7  A    between atoms: C_21  and  C_22
REMARK    8  A    between atoms: C_25  and  C_26
REMARK    9  A    between atoms: C_30  and  C_31
REMARK                            x       y       z     vdW  Elec       q    Type
REMARK                         _______ _______ _______ _____ _____    ______ ____
ROOT
ATOM      1  C   UNL     1      -2.482  16.305  20.448  0.00  0.00    +0.000 A 
ATOM      2  C   UNL     1      -3.610  17.147  20.291  0.00  0.00    +0.000 A 
ATOM      3  C   UNL     1      -4.702  16.462  20.741  0.00  0.00    +0.000 A 
ATOM      4  N   UNL     1      -4.303  15.244  21.258  0.00  0.00    +0.000 N 
ATOM      5  C   UNL     1      -2.896  15.119  21.087  0.00  0.00    +0.000 A 
ENDROOT
BRANCH   5   6
ATOM      6  C   UNL     1      -2.109  13.889  21.438  0.00  0.00    +0.000 A 
ATOM      7  C   UNL     1      -1.801  12.972  20.408  0.00  0.00    +0.000 A 
ATOM      8  C   UNL     1      -1.210  11.725  20.660  0.00  0.00    +0.000 A 
ATOM      9  C   UNL     1      -0.790  11.406  21.947  0.00  0.00    +0.000 A 
ATOM     10  C   UNL     1      -0.987  12.347  22.963  0.00  0.00    +0.000 A 
ATOM     11  C   UNL     1      -1.677  13.561  22.744  0.00  0.00    +0.000 A 
ATOM     12  C   UNL     1      -1.846  14.427  23.965  0.00  0.00    +0.000 C 
BRANCH   9  13
ATOM     13  C   UNL     1      -0.151  10.112  22.317  0.00  0.00    +0.000 C 
ATOM     14  N   UNL     1      -0.069   9.123  21.382  0.00  0.00    +0.000 N 
ATOM     15  O   UNL     1       0.301   9.923  23.440  0.00  0.00    +0.000 OA
ATOM     16  H   UNL     1      -0.415   9.174  20.434  0.00  0.00    +0.000 HD
ATOM     17  H   UNL     1       0.361   8.258  21.685  0.00  0.00    +0.000 HD
ENDBRANCH   9  13
ENDBRANCH   5   6
BRANCH   1  21
ATOM     18  C   UNL     1       1.503  17.196  19.178  0.00  0.00    +0.000 A 
ATOM     19  C   UNL     1       1.213  17.014  20.529  0.00  0.00    +0.000 A 
ATOM     20  C   UNL     1      -0.090  16.727  20.942  0.00  0.00    +0.000 A 
ATOM     21  C   UNL     1      -1.133  16.651  20.006  0.00  0.00    +0.000 A 
ATOM     22  C   UNL     1      -0.846  16.899  18.659  0.00  0.00    +0.000 A 
ATOM     23  C   UNL     1       0.469  17.143  18.244  0.00  0.00    +0.000 A 
BRANCH  18  25
ATOM     24  C   UNL     1       3.520  16.446  18.189  0.00  0.00    +0.000 C 
ATOM     25  O   UNL     1       2.815  17.460  18.897  0.00  0.00    +0.000 OA
ENDBRANCH  18  25
ENDBRANCH   1  21
BRANCH   4  26
ATOM     26  C   UNL     1      -5.243  14.330  21.845  0.00  0.00    +0.000 A 
ATOM     27  C   UNL     1      -5.565  14.389  23.207  0.00  0.00    +0.000 A 
ATOM     28  C   UNL     1      -6.410  13.433  23.789  0.00  0.00    +0.000 A 
ATOM     29  C   UNL     1      -6.989  12.439  23.003  0.00  0.00    +0.000 A 
ATOM     30  C   UNL     1      -6.710  12.412  21.644  0.00  0.00    +0.000 A 
ATOM     31  C   UNL     1      -5.849  13.346  21.046  0.00  0.00    +0.000 A 
BRANCH  30  32
ATOM     32  N   UNL     1      -7.303  11.408  20.787  0.00  0.00    +0.000 N 
ATOM     33  O   UNL     1      -7.368  10.246  21.211  0.00  0.00    +0.000 OA
ATOM     34  O   UNL     1      -7.654  11.777  19.653  0.00  0.00    +0.000 OA
ENDBRANCH  30  32
BRANCH  29  35
ATOM     35  O   UNL     1      -7.835  11.534  23.569  0.00  0.00    +0.000 OA
ATOM     36  H   UNL     1      -8.523  11.276  22.931  0.00  0.00    +0.000 HD
ENDBRANCH  29  35
ENDBRANCH   4  26
TORSDOF 7
ENDMDL
MODEL 9
REMARK VINA RESULT:      -7.0      2.610      3.382
REMARK  Name = 
REMARK  9 active torsions:
REMARK  status: ('A' for Active; 'I' for Inactive)
REMARK    1  A    between atoms: C_1  and  O_2
REMARK    2  A    between atoms: O_2  and  C_3
REMARK    3  A    between atoms: C_6  and  C_7
REMARK    4  A    between atoms: N_10  and  C_11
REMARK    5  A    between atoms: C_14  and  O_15
REMARK    6  A    between atoms: C_16  and  N_17
REMARK    7  A    between atoms: C_21  and  C_22
REMARK    8  A    between atoms: C_25  and  C_26
REMARK    9  A    between atoms: C_30  and  C_31
REMARK                            x       y       z     vdW  Elec       q    Type
REMARK                         _______ _______ _______ _____ _____    ______ ____
ROOT
ATOM      1  C   UNL     1       0.511   9.717  20.843  0.00  0.00    +0.000 A 
ATOM      2  C   UNL     1       0.813   9.919  22.212  0.00  0.00    +0.000 A 
ATOM      3  C   UNL     1      -0.063  10.849  22.695  0.00  0.00    +0.000 A 
ATOM      4  N   UNL     1      -0.968  11.189  21.706  0.00  0.00    +0.000 N 
ATOM      5  C   UNL     1      -0.627  10.482  20.519  0.00  0.00    +0.000 A 
ENDROOT
BRANCH   5   6
ATOM      6  C   UNL     1      -1.323  10.664  19.201  0.00  0.00    +0.000 A 
ATOM      7  C   UNL     1      -2.322   9.733  18.835  0.00  0.00    +0.000 A 
ATOM      8  C   UNL     1      -2.916   9.725  17.564  0.00  0.00    +0.000 A 
ATOM      9  C   UNL     1      -2.618  10.734  16.654  0.00  0.00    +0.000 A 
ATOM     10  C   UNL     1      -1.713  11.729  17.038  0.00  0.00    +0.000 A 
ATOM     11  C   UNL     1      -1.027  11.689  18.274  0.00  0.00    +0.000 A 
ATOM     12  C   UNL     1      -0.047  12.812  18.494  0.00  0.00    +0.000 C 
BRANCH   9  13
ATOM     13  C   UNL     1      -3.197  10.816  15.284  0.00  0.00    +0.000 C 
ATOM     14  N   UNL     1      -2.759   9.949  14.328  0.00  0.00    +0.000 N 
ATOM     15  O   UNL     1      -4.056  11.644  15.004  0.00  0.00    +0.000 OA
ATOM     16  H   UNL     1      -2.053   9.238  14.452  0.00  0.00    +0.000 HD
ATOM     17  H   UNL     1      -3.172  10.054  13.409  0.00  0.00    +0.000 HD
ENDBRANCH   9  13
ENDBRANCH   5   6
BRANCH   1  21
ATOM     18  C   UNL     1       2.666   7.099  18.236  0.00  0.00    +0.000 A 
ATOM     19  C   UNL     1       2.464   6.761  19.574  0.00  0.00    +0.000 A 
ATOM     20  C   UNL     1       1.764   7.621  20.424  0.00  0.00    +0.000 A 
ATOM     21  C   UNL     1       1.282   8.851  19.953  0.00  0.00    +0.000 A 
ATOM     22  C   UNL     1       1.544   9.212  18.627  0.00  0.00    +0.000 A 
ATOM     23  C   UNL     1       2.208   8.330  17.766  0.00  0.00    +0.000 A 
BRANCH  18  25
ATOM     24  C   UNL     1       3.271   4.827  17.955  0.00  0.00    +0.000 C 
ATOM     25  O   UNL     1       3.354   6.174  17.502  0.00  0.00    +0.000 OA
ENDBRANCH  18  25
ENDBRANCH   1  21
BRANCH   4  26
ATOM     26  C   UNL     1      -2.036  12.119  21.950  0.00  0.00    +0.000 A 
ATOM     27  C   UNL     1      -2.189  13.273  21.172  0.00  0.00    +0.000 A 
ATOM     28  C   UNL     1      -3.175  14.221  21.479  0.00  0.00    +0.000 A 
ATOM     29  C   UNL     1      -4.058  13.998  22.532  0.00  0.00    +0.000 A 
ATOM     30  C   UNL     1      -3.939  12.829  23.270  0.00  0.00    +0.000 A 
ATOM     31  C   UNL     1      -2.943  11.877  22.995  0.00  0.00    +0.000 A 
BRANCH  30  32
ATOM     32  N   UNL     1      -4.846  12.548  24.363  0.00  0.00    +0.000 N 
ATOM     33  O   UNL     1      -4.367  12.431  25.500  0.00  0.00    +0.000 OA
ATOM     34  O   UNL     1      -6.042  12.384  24.069  0.00  0.00    +0.000 OA
ENDBRANCH  30  32
BRANCH  29  35
ATOM     35  O   UNL     1      -5.035  14.908  22.803  0.00  0.00    +0.000 OA
ATOM     36  H   UNL     1      -5.802  14.757  22.223  0.00  0.00    +0.000 HD
ENDBRANCH  29  35
ENDBRANCH   4  26
TORSDOF 7
ENDMDL
