MODEL 1
REMARK VINA RESULT:      -7.1      0.000      0.000
REMARK  Name = 
REMARK  2 active torsions:
REMARK  status: ('A' for Active; 'I' for Inactive)
REMARK    1  A    between atoms: N_1  and  N_2
REMARK    2  A    between atoms: C_3  and  C_5
REMARK                            x       y       z     vdW  Elec       q    Type
REMARK                         _______ _______ _______ _____ _____    ______ ____
ROOT
ATOM      1  C   UNL     1       6.891   5.308  16.787  0.00  0.00    +0.000 A 
ATOM      2  C   UNL     1       5.761   4.509  16.885  0.00  0.00    +0.000 A 
ATOM      3  C   UNL     1       5.269   3.934  15.722  0.00  0.00    +0.000 A 
ATOM      4  C   UNL     1       5.939   4.138  14.511  0.00  0.00    +0.000 A 
ATOM      5  C   UNL     1       5.493   3.529  13.325  0.00  0.00    +0.000 A 
ATOM      6  C   UNL     1       6.199   3.703  12.137  0.00  0.00    +0.000 A 
ATOM      7  C   UNL     1       7.346   4.487  12.132  0.00  0.00    +0.000 A 
ATOM      8  C   UNL     1       7.775   5.109  13.309  0.00  0.00    +0.000 A 
ATOM      9  C   UNL     1       7.092   4.956  14.509  0.00  0.00    +0.000 A 
ATOM     10  N   UNL     1       7.554   5.557  15.623  0.00  0.00    +0.000 NA
ENDROOT
BRANCH   1  12
ATOM     11  N   UNL     1       7.519   5.065  19.122  0.00  0.00    +0.000 N 
ATOM     12  C   UNL     1       7.449   5.918  18.029  0.00  0.00    +0.000 C 
ATOM     13  O   UNL     1       7.798   7.103  18.043  0.00  0.00    +0.000 OA
ATOM     14  H   UNL     1       7.419   4.067  18.935  0.00  0.00    +0.000 HD
BRANCH  11  15
ATOM     15  N   UNL     1       8.059   5.534  20.334  0.00  0.00    +0.000 NA
ATOM     16  H   UNL     1       9.073   5.625  20.250  0.00  0.00    +0.000 HD
ATOM     17  H   UNL     1       7.890   4.809  21.041  0.00  0.00    +0.000 HD
ENDBRANCH  11  15
ENDBRANCH   1  12
TORSDOF 2
ENDMDL
MODEL 2
REMARK VINA RESULT:      -7.1      3.009      5.204
REMARK  Name = 
REMARK  2 active torsions:
REMARK  status: ('A' for Active; 'I' for Inactive)
REMARK    1  A    between atoms: N_1  and  N_2
REMARK    2  A    between atoms: C_3  and  C_5
REMARK                            x       y       z     vdW  Elec       q    Type
REMARK                         _______ _______ _______ _____ _____    ______ ____
ROOT
ATOM      1  C   UNL     1       5.459   4.845  16.596  0.00  0.00    +0.000 A 
ATOM      2  C   UNL     1       4.866   6.031  17.005  0.00  0.00    +0.000 A 
ATOM      3  C   UNL     1       3.631   5.958  17.632  0.00  0.00    +0.000 A 
ATOM      4  C   UNL     1       3.047   4.708  17.870  0.00  0.00    +0.000 A 
ATOM      5  C   UNL     1       1.820   4.600  18.547  0.00  0.00    +0.000 A 
ATOM      6  C   UNL     1       1.276   3.347  18.819  0.00  0.00    +0.000 A 
ATOM      7  C   UNL     1       1.953   2.204  18.410  0.00  0.00    +0.000 A 
ATOM      8  C   UNL     1       3.163   2.317  17.718  0.00  0.00    +0.000 A 
ATOM      9  C   UNL     1       3.731   3.552  17.431  0.00  0.00    +0.000 A 
ATOM     10  N   UNL     1       4.909   3.611  16.780  0.00  0.00    +0.000 NA
ENDROOT
BRANCH   1  12
ATOM     11  N   UNL     1       6.796   5.409  14.648  0.00  0.00    +0.000 N 
ATOM     12  C   UNL     1       6.797   4.900  15.939  0.00  0.00    +0.000 C 
ATOM     13  O   UNL     1       7.804   4.500  16.533  0.00  0.00    +0.000 OA
ATOM     14  H   UNL     1       5.959   5.911  14.351  0.00  0.00    +0.000 HD
BRANCH  11  15
ATOM     15  N   UNL     1       8.012   5.533  13.951  0.00  0.00    +0.000 NA
ATOM     16  H   UNL     1       8.303   4.621  13.595  0.00  0.00    +0.000 HD
ATOM     17  H   UNL     1       8.724   5.819  14.631  0.00  0.00    +0.000 HD
ENDBRANCH  11  15
ENDBRANCH   1  12
TORSDOF 2
ENDMDL
MODEL 3
REMARK VINA RESULT:      -7.0      4.111      6.297
REMARK  Name = 
REMARK  2 active torsions:
REMARK  status: ('A' for Active; 'I' for Inactive)
REMARK    1  A    between atoms: N_1  and  N_2
REMARK    2  A    between atoms: C_3  and  C_5
REMARK                            x       y       z     vdW  Elec       q    Type
REMARK                         _______ _______ _______ _____ _____    ______ ____
ROOT
ATOM      1  C   UNL     1       4.417   4.227  17.867  0.00  0.00    +0.000 A 
ATOM      2  C   UNL     1       3.287   4.899  17.424  0.00  0.00    +0.000 A 
ATOM      3  C   UNL     1       2.111   4.738  18.141  0.00  0.00    +0.000 A 
ATOM      4  C   UNL     1       2.106   3.950  19.297  0.00  0.00    +0.000 A 
ATOM      5  C   UNL     1       0.943   3.808  20.072  0.00  0.00    +0.000 A 
ATOM      6  C   UNL     1       0.967   3.059  21.247  0.00  0.00    +0.000 A 
ATOM      7  C   UNL     1       2.151   2.449  21.644  0.00  0.00    +0.000 A 
ATOM      8  C   UNL     1       3.302   2.575  20.859  0.00  0.00    +0.000 A 
ATOM      9  C   UNL     1       3.309   3.314  19.682  0.00  0.00    +0.000 A 
ATOM     10  N   UNL     1       4.447   3.425  18.969  0.00  0.00    +0.000 NA
ENDROOT
BRANCH   1  12
ATOM     11  N   UNL     1       6.845   4.156  17.860  0.00  0.00    +0.000 N 
ATOM     12  C   UNL     1       5.696   4.404  17.122  0.00  0.00    +0.000 C 
ATOM     13  O   UNL     1       5.689   4.759  15.939  0.00  0.00    +0.000 OA
ATOM     14  H   UNL     1       6.727   3.658  18.743  0.00  0.00    +0.000 HD
BRANCH  11  15
ATOM     15  N   UNL     1       8.104   4.265  17.242  0.00  0.00    +0.000 NA
ATOM     16  H   UNL     1       8.318   3.403  16.737  0.00  0.00    +0.000 HD
ATOM     17  H   UNL     1       8.803   4.344  17.989  0.00  0.00    +0.000 HD
ENDBRANCH  11  15
ENDBRANCH   1  12
TORSDOF 2
ENDMDL
MODEL 4
REMARK VINA RESULT:      -6.9      3.135      5.411
REMARK  Name = 
REMARK  2 active torsions:
REMARK  status: ('A' for Active; 'I' for Inactive)
REMARK    1  A    between atoms: N_1  and  N_2
REMARK    2  A    between atoms: C_3  and  C_5
REMARK                            x       y       z     vdW  Elec       q    Type
REMARK                         _______ _______ _______ _____ _____    ______ ____
ROOT
ATOM      1  C   UNL     1       5.634   4.712  17.409  0.00  0.00    +0.000 A 
ATOM      2  C   UNL     1       5.587   5.497  18.552  0.00  0.00    +0.000 A 
ATOM      3  C   UNL     1       4.462   5.406  19.358  0.00  0.00    +0.000 A 
ATOM      4  C   UNL     1       3.442   4.508  19.025  0.00  0.00    +0.000 A 
ATOM      5  C   UNL     1       2.313   4.357  19.849  0.00  0.00    +0.000 A 
ATOM      6  C   UNL     1       1.329   3.425  19.529  0.00  0.00    +0.000 A 
ATOM      7  C   UNL     1       1.470   2.647  18.386  0.00  0.00    +0.000 A 
ATOM      8  C   UNL     1       2.584   2.814  17.558  0.00  0.00    +0.000 A 
ATOM      9  C   UNL     1       3.582   3.737  17.849  0.00  0.00    +0.000 A 
ATOM     10  N   UNL     1       4.648   3.849  17.033  0.00  0.00    +0.000 NA
ENDROOT
BRANCH   1  12
ATOM     11  N   UNL     1       6.640   5.349  15.292  0.00  0.00    +0.000 N 
ATOM     12  C   UNL     1       6.844   4.779  16.541  0.00  0.00    +0.000 C 
ATOM     13  O   UNL     1       7.927   4.336  16.938  0.00  0.00    +0.000 OA
ATOM     14  H   UNL     1       5.776   5.877  15.162  0.00  0.00    +0.000 HD
BRANCH  11  15
ATOM     15  N   UNL     1       7.725   5.489  14.407  0.00  0.00    +0.000 NA
ATOM     16  H   UNL     1       8.584   5.167  14.857  0.00  0.00    +0.000 HD
ATOM     17  H   UNL     1       7.847   6.493  14.234  0.00  0.00    +0.000 HD
ENDBRANCH  11  15
ENDBRANCH   1  12
TORSDOF 2
ENDMDL
MODEL 5
REMARK VINA RESULT:      -6.8      3.785      6.151
REMARK  Name = 
REMARK  2 active torsions:
REMARK  status: ('A' for Active; 'I' for Inactive)
REMARK    1  A    between atoms: N_1  and  N_2
REMARK    2  A    between atoms: C_3  and  C_5
REMARK                            x       y       z     vdW  Elec       q    Type
REMARK                         _______ _______ _______ _____ _____    ______ ____
ROOT
ATOM      1  C   UNL     1       4.875   4.466  18.040  0.00  0.00    +0.000 A 
ATOM      2  C   UNL     1       3.806   5.132  17.457  0.00  0.00    +0.000 A 
ATOM      3  C   UNL     1       2.545   4.939  18.002  0.00  0.00    +0.000 A 
ATOM      4  C   UNL     1       2.395   4.125  19.131  0.00  0.00    +0.000 A 
ATOM      5  C   UNL     1       1.138   3.950  19.734  0.00  0.00    +0.000 A 
ATOM      6  C   UNL     1       1.012   3.176  20.885  0.00  0.00    +0.000 A 
ATOM      7  C   UNL     1       2.140   2.573  21.430  0.00  0.00    +0.000 A 
ATOM      8  C   UNL     1       3.386   2.733  20.814  0.00  0.00    +0.000 A 
ATOM      9  C   UNL     1       3.543   3.497  19.665  0.00  0.00    +0.000 A 
ATOM     10  N   UNL     1       4.766   3.640  19.119  0.00  0.00    +0.000 NA
ENDROOT
BRANCH   1  12
ATOM     11  N   UNL     1       6.279   5.206  16.200  0.00  0.00    +0.000 N 
ATOM     12  C   UNL     1       6.242   4.677  17.482  0.00  0.00    +0.000 C 
ATOM     13  O   UNL     1       7.242   4.377  18.143  0.00  0.00    +0.000 OA
ATOM     14  H   UNL     1       5.415   5.619  15.847  0.00  0.00    +0.000 HD
BRANCH  11  15
ATOM     15  N   UNL     1       7.520   5.472  15.594  0.00  0.00    +0.000 NA
ATOM     16  H   UNL     1       7.598   4.953  14.718  0.00  0.00    +0.000 HD
ATOM     17  H   UNL     1       8.247   5.101  16.216  0.00  0.00    +0.000 HD
ENDBRANCH  11  15
ENDBRANCH   1  12
TORSDOF 2
ENDMDL
MODEL 6
REMARK VINA RESULT:      -6.8      3.721      5.772
REMARK  Name = 
REMARK  2 active torsions:
REMARK  status: ('A' for Active; 'I' for Inactive)
REMARK    1  A    between atoms: N_1  and  N_2
REMARK    2  A    between atoms: C_3  and  C_5
REMARK                            x       y       z     vdW  Elec       q    Type
REMARK                         _______ _______ _______ _____ _____    ______ ____
ROOT
ATOM      1  C   UNL     1       4.266   5.474  17.048  0.00  0.00    +0.000 A 
ATOM      2  C   UNL     1       3.868   6.422  17.979  0.00  0.00    +0.000 A 
ATOM      3  C   UNL     1       2.885   6.065  18.891  0.00  0.00    +0.000 A 
ATOM      4  C   UNL     1       2.362   4.768  18.873  0.00  0.00    +0.000 A 
ATOM      5  C   UNL     1       1.401   4.362  19.815  0.00  0.00    +0.000 A 
ATOM      6  C   UNL     1       0.925   3.053  19.815  0.00  0.00    +0.000 A 
ATOM      7  C   UNL     1       1.405   2.151  18.873  0.00  0.00    +0.000 A 
ATOM      8  C   UNL     1       2.346   2.564  17.923  0.00  0.00    +0.000 A 
ATOM      9  C   UNL     1       2.838   3.863  17.897  0.00  0.00    +0.000 A 
ATOM     10  N   UNL     1       3.759   4.210  16.977  0.00  0.00    +0.000 NA
ENDROOT
BRANCH   1  12
ATOM     11  N   UNL     1       6.454   5.008  16.100  0.00  0.00    +0.000 N 
ATOM     12  C   UNL     1       5.337   5.830  16.073  0.00  0.00    +0.000 C 
ATOM     13  O   UNL     1       5.204   6.804  15.323  0.00  0.00    +0.000 OA
ATOM     14  H   UNL     1       6.359   4.117  16.589  0.00  0.00    +0.000 HD
BRANCH  11  15
ATOM     15  N   UNL     1       7.509   5.239  15.198  0.00  0.00    +0.000 NA
ATOM     16  H   UNL     1       7.630   4.428  14.589  0.00  0.00    +0.000 HD
ATOM     17  H   UNL     1       8.369   5.318  15.751  0.00  0.00    +0.000 HD
ENDBRANCH  11  15
ENDBRANCH   1  12
TORSDOF 2
ENDMDL
MODEL 7
REMARK VINA RESULT:      -6.8      3.423      5.470
REMARK  Name = 
REMARK  2 active torsions:
REMARK  status: ('A' for Active; 'I' for Inactive)
REMARK    1  A    between atoms: N_1  and  N_2
REMARK    2  A    between atoms: C_3  and  C_5
REMARK                            x       y       z     vdW  Elec       q    Type
REMARK                         _______ _______ _______ _____ _____    ______ ____
ROOT
ATOM      1  C   UNL     1       5.430   4.256  18.322  0.00  0.00    +0.000 A 
ATOM      2  C   UNL     1       4.763   4.421  17.117  0.00  0.00    +0.000 A 
ATOM      3  C   UNL     1       3.432   4.038  17.052  0.00  0.00    +0.000 A 
ATOM      4  C   UNL     1       2.796   3.544  18.197  0.00  0.00    +0.000 A 
ATOM      5  C   UNL     1       1.436   3.195  18.176  0.00  0.00    +0.000 A 
ATOM      6  C   UNL     1       0.806   2.750  19.336  0.00  0.00    +0.000 A 
ATOM      7  C   UNL     1       1.535   2.650  20.514  0.00  0.00    +0.000 A 
ATOM      8  C   UNL     1       2.895   2.979  20.527  0.00  0.00    +0.000 A 
ATOM      9  C   UNL     1       3.552   3.424  19.386  0.00  0.00    +0.000 A 
ATOM     10  N   UNL     1       4.857   3.749  19.450  0.00  0.00    +0.000 NA
ENDROOT
BRANCH   1  12
ATOM     11  N   UNL     1       7.235   5.193  19.651  0.00  0.00    +0.000 N 
ATOM     12  C   UNL     1       6.856   4.682  18.418  0.00  0.00    +0.000 C 
ATOM     13  O   UNL     1       7.608   4.581  17.442  0.00  0.00    +0.000 OA
ATOM     14  H   UNL     1       6.605   5.020  20.435  0.00  0.00    +0.000 HD
BRANCH  11  15
ATOM     15  N   UNL     1       8.568   5.595  19.856  0.00  0.00    +0.000 NA
ATOM     16  H   UNL     1       9.175   5.151  19.164  0.00  0.00    +0.000 HD
ATOM     17  H   UNL     1       8.857   5.231  20.770  0.00  0.00    +0.000 HD
ENDBRANCH  11  15
ENDBRANCH   1  12
TORSDOF 2
ENDMDL
MODEL 8
REMARK VINA RESULT:      -6.8      3.629      5.782
REMARK  Name = 
REMARK  2 active torsions:
REMARK  status: ('A' for Active; 'I' for Inactive)
REMARK    1  A    between atoms: N_1  and  N_2
REMARK    2  A    between atoms: C_3  and  C_5
REMARK                            x       y       z     vdW  Elec       q    Type
REMARK                         _______ _______ _______ _____ _____    ______ ____
ROOT
ATOM      1  C   UNL     1       5.035   4.439  17.974  0.00  0.00    +0.000 A 
ATOM      2  C   UNL     1       4.367   3.879  16.894  0.00  0.00    +0.000 A 
ATOM      3  C   UNL     1       3.101   3.356  17.113  0.00  0.00    +0.000 A 
ATOM      4  C   UNL     1       2.525   3.443  18.385  0.00  0.00    +0.000 A 
ATOM      5  C   UNL     1       1.225   2.966  18.625  0.00  0.00    +0.000 A 
ATOM      6  C   UNL     1       0.647   3.104  19.885  0.00  0.00    +0.000 A 
ATOM      7  C   UNL     1       1.368   3.713  20.905  0.00  0.00    +0.000 A 
ATOM      8  C   UNL     1       2.670   4.167  20.668  0.00  0.00    +0.000 A 
ATOM      9  C   UNL     1       3.274   4.043  19.423  0.00  0.00    +0.000 A 
ATOM     10  N   UNL     1       4.522   4.515  19.235  0.00  0.00    +0.000 NA
ENDROOT
BRANCH   1  12
ATOM     11  N   UNL     1       6.412   6.171  16.971  0.00  0.00    +0.000 N 
ATOM     12  C   UNL     1       6.388   5.027  17.756  0.00  0.00    +0.000 C 
ATOM     13  O   UNL     1       7.389   4.494  18.246  0.00  0.00    +0.000 OA
ATOM     14  H   UNL     1       5.520   6.640  16.814  0.00  0.00    +0.000 HD
BRANCH  11  15
ATOM     15  N   UNL     1       7.636   6.821  16.730  0.00  0.00    +0.000 NA
ATOM     16  H   UNL     1       8.338   6.501  17.399  0.00  0.00    +0.000 HD
ATOM     17  H   UNL     1       7.491   7.819  16.918  0.00  0.00    +0.000 HD
ENDBRANCH  11  15
ENDBRANCH   1  12
TORSDOF 2
ENDMDL
MODEL 9
REMARK VINA RESULT:      -6.7      3.726      5.738
REMARK  Name = 
REMARK  2 active torsions:
REMARK  status: ('A' for Active; 'I' for Inactive)
REMARK    1  A    between atoms: N_1  and  N_2
REMARK    2  A    between atoms: C_3  and  C_5
REMARK                            x       y       z     vdW  Elec       q    Type
REMARK                         _______ _______ _______ _____ _____    ______ ____
ROOT
ATOM      1  C   UNL     1       4.488   5.386  17.280  0.00  0.00    +0.000 A 
ATOM      2  C   UNL     1       4.289   4.167  16.648  0.00  0.00    +0.000 A 
ATOM      3  C   UNL     1       3.372   3.288  17.205  0.00  0.00    +0.000 A 
ATOM      4  C   UNL     1       2.654   3.665  18.345  0.00  0.00    +0.000 A 
ATOM      5  C   UNL     1       1.683   2.816  18.903  0.00  0.00    +0.000 A 
ATOM      6  C   UNL     1       0.943   3.226  20.009  0.00  0.00    +0.000 A 
ATOM      7  C   UNL     1       1.175   4.480  20.561  0.00  0.00    +0.000 A 
ATOM      8  C   UNL     1       2.157   5.314  20.016  0.00  0.00    +0.000 A 
ATOM      9  C   UNL     1       2.913   4.933  18.914  0.00  0.00    +0.000 A 
ATOM     10  N   UNL     1       3.833   5.779  18.410  0.00  0.00    +0.000 NA
ENDROOT
BRANCH   1  12
ATOM     11  N   UNL     1       6.510   6.713  17.511  0.00  0.00    +0.000 N 
ATOM     12  C   UNL     1       5.454   6.354  16.686  0.00  0.00    +0.000 C 
ATOM     13  O   UNL     1       5.281   6.790  15.542  0.00  0.00    +0.000 OA
ATOM     14  H   UNL     1       6.673   6.128  18.332  0.00  0.00    +0.000 HD
BRANCH  11  15
ATOM     15  N   UNL     1       7.494   7.598  17.034  0.00  0.00    +0.000 NA
ATOM     16  H   UNL     1       7.735   7.363  16.070  0.00  0.00    +0.000 HD
ATOM     17  H   UNL     1       8.341   7.438  17.591  0.00  0.00    +0.000 HD
ENDBRANCH  11  15
ENDBRANCH   1  12
TORSDOF 2
ENDMDL
