MODEL 1
REMARK VINA RESULT:      -7.4      0.000      0.000
REMARK  Name = 
REMARK  4 active torsions:
REMARK  status: ('A' for Active; 'I' for Inactive)
REMARK    1  A    between atoms: N_3  and  C_4
REMARK    2  A    between atoms: N_12  and  C_13
REMARK    3  A    between atoms: C_17  and  N_18
REMARK    4  A    between atoms: N_21  and  C_22
REMARK                            x       y       z     vdW  Elec       q    Type
REMARK                         _______ _______ _______ _____ _____    ______ ____
ROOT
ATOM      1  C   UNL     1       4.482   5.660  17.898  0.00  0.00    +0.000 C 
ATOM      2  C   UNL     1       4.928   4.724  16.764  0.00  0.00    +0.000 C 
ATOM      3  C   UNL     1       5.757   5.469  15.715  0.00  0.00    +0.000 C 
ATOM      4  C   UNL     1       6.974   6.147  16.341  0.00  0.00    +0.000 C 
ATOM      5  C   UNL     1       6.620   6.995  17.572  0.00  0.00    +0.000 C 
ATOM      6  C   UNL     1       5.735   6.245  18.569  0.00  0.00    +0.000 C 
ENDROOT
BRANCH   1  10
ATOM      7  O   UNL     1       2.754   7.397  19.392  0.00  0.00    +0.000 OA
ATOM      8  C   UNL     1       2.756   7.468  18.171  0.00  0.00    +0.000 C 
ATOM      9  N   UNL     1       1.979   8.312  17.398  0.00  0.00    +0.000 N 
ATOM     10  N   UNL     1       3.559   6.675  17.381  0.00  0.00    +0.000 N 
ATOM     11  H   UNL     1       1.904   8.066  16.424  0.00  0.00    +0.000 HD
ATOM     12  H   UNL     1       3.533   6.831  16.386  0.00  0.00    +0.000 HD
BRANCH   9  13
ATOM     13  C   UNL     1       1.109   9.327  17.857  0.00  0.00    +0.000 A 
ATOM     14  C   UNL     1      -0.278   9.287  17.695  0.00  0.00    +0.000 A 
ATOM     15  C   UNL     1      -1.068  10.345  18.155  0.00  0.00    +0.000 A 
ATOM     16 CL   UNL     1      -2.778  10.285  17.955  0.00  0.00    +0.000 Cl
ATOM     17  C   UNL     1      -0.494  11.450  18.777  0.00  0.00    +0.000 A 
ATOM     18  C   UNL     1       0.884  11.477  18.959  0.00  0.00    +0.000 A 
ATOM     19 CL   UNL     1       1.614  12.837  19.723  0.00  0.00    +0.000 Cl
ATOM     20  C   UNL     1       1.683  10.420  18.518  0.00  0.00    +0.000 A 
ENDBRANCH   9  13
ENDBRANCH   1  10
BRANCH   5  21
ATOM     21  N   UNL     1       7.836   7.471  18.217  0.00  0.00    +0.000 N 
ATOM     22  C   UNL     1       8.115   8.819  18.232  0.00  0.00    +0.000 C 
ATOM     23  O   UNL     1       7.345   9.639  17.744  0.00  0.00    +0.000 OA
ATOM     24  N   UNL     1       9.312   9.112  18.850  0.00  0.00    +0.000 N 
ATOM     25  H   UNL     1       8.569   6.812  18.435  0.00  0.00    +0.000 HD
ATOM     26  H   UNL     1       9.978   8.358  18.927  0.00  0.00    +0.000 HD
BRANCH  24  27
ATOM     27  C   UNL     1       9.770  10.419  19.131  0.00  0.00    +0.000 A 
ATOM     28  C   UNL     1      10.545  11.155  18.227  0.00  0.00    +0.000 A 
ATOM     29  C   UNL     1      11.015  12.422  18.565  0.00  0.00    +0.000 A 
ATOM     30 CL   UNL     1      11.991  13.295  17.445  0.00  0.00    +0.000 Cl
ATOM     31  C   UNL     1      10.708  12.985  19.797  0.00  0.00    +0.000 A 
ATOM     32  C   UNL     1       9.903  12.273  20.681  0.00  0.00    +0.000 A 
ATOM     33 CL   UNL     1       9.516  12.958  22.212  0.00  0.00    +0.000 Cl
ATOM     34  C   UNL     1       9.418  11.002  20.352  0.00  0.00    +0.000 A 
ENDBRANCH  24  27
ENDBRANCH   5  21
TORSDOF 4
ENDMDL
MODEL 2
REMARK VINA RESULT:      -7.4      0.268      2.331
REMARK  Name = 
REMARK  4 active torsions:
REMARK  status: ('A' for Active; 'I' for Inactive)
REMARK    1  A    between atoms: N_3  and  C_4
REMARK    2  A    between atoms: N_12  and  C_13
REMARK    3  A    between atoms: C_17  and  N_18
REMARK    4  A    between atoms: N_21  and  C_22
REMARK                            x       y       z     vdW  Elec       q    Type
REMARK                         _______ _______ _______ _____ _____    ______ ____
ROOT
ATOM      1  C   UNL     1       4.379   5.763  17.896  0.00  0.00    +0.000 C 
ATOM      2  C   UNL     1       4.782   4.832  16.741  0.00  0.00    +0.000 C 
ATOM      3  C   UNL     1       5.597   5.576  15.680  0.00  0.00    +0.000 C 
ATOM      4  C   UNL     1       6.840   6.227  16.283  0.00  0.00    +0.000 C 
ATOM      5  C   UNL     1       6.530   7.067  17.532  0.00  0.00    +0.000 C 
ATOM      6  C   UNL     1       5.658   6.321  18.542  0.00  0.00    +0.000 C 
ENDROOT
BRANCH   1  10
ATOM      7  O   UNL     1       2.633   7.433  19.444  0.00  0.00    +0.000 OA
ATOM      8  C   UNL     1       2.648   7.556  18.227  0.00  0.00    +0.000 C 
ATOM      9  N   UNL     1       1.878   8.432  17.483  0.00  0.00    +0.000 N 
ATOM     10  N   UNL     1       3.460   6.798  17.413  0.00  0.00    +0.000 N 
ATOM     11  H   UNL     1       1.814   8.228  16.499  0.00  0.00    +0.000 HD
ATOM     12  H   UNL     1       3.445   6.997  16.425  0.00  0.00    +0.000 HD
BRANCH   9  13
ATOM     13  C   UNL     1       1.002   9.425  17.975  0.00  0.00    +0.000 A 
ATOM     14  C   UNL     1       1.419  10.507  18.756  0.00  0.00    +0.000 A 
ATOM     15  C   UNL     1       0.484  11.434  19.226  0.00  0.00    +0.000 A 
ATOM     16 CL   UNL     1       1.009  12.765  20.184  0.00  0.00    +0.000 Cl
ATOM     17  C   UNL     1      -0.869  11.300  18.928  0.00  0.00    +0.000 A 
ATOM     18  C   UNL     1      -1.279  10.237  18.132  0.00  0.00    +0.000 A 
ATOM     19 CL   UNL     1      -2.949  10.052  17.756  0.00  0.00    +0.000 Cl
ATOM     20  C   UNL     1      -0.354   9.312  17.644  0.00  0.00    +0.000 A 
ENDBRANCH   9  13
ENDBRANCH   1  10
BRANCH   5  21
ATOM     21  N   UNL     1       7.769   7.517  18.151  0.00  0.00    +0.000 N 
ATOM     22  C   UNL     1       8.070   8.859  18.174  0.00  0.00    +0.000 C 
ATOM     23  O   UNL     1       7.301   9.697  17.714  0.00  0.00    +0.000 OA
ATOM     24  N   UNL     1       9.287   9.126  18.765  0.00  0.00    +0.000 N 
ATOM     25  H   UNL     1       8.496   6.843  18.343  0.00  0.00    +0.000 HD
ATOM     26  H   UNL     1       9.943   8.362  18.817  0.00  0.00    +0.000 HD
BRANCH  24  27
ATOM     27  C   UNL     1       9.772  10.423  19.049  0.00  0.00    +0.000 A 
ATOM     28  C   UNL     1       9.529  11.066  20.269  0.00  0.00    +0.000 A 
ATOM     29  C   UNL     1       9.987  12.365  20.488  0.00  0.00    +0.000 A 
ATOM     30 CL   UNL     1       9.651  13.144  21.986  0.00  0.00    +0.000 Cl
ATOM     31  C   UNL     1      10.706  13.035  19.507  0.00  0.00    +0.000 A 
ATOM     32  C   UNL     1      10.984  12.382  18.310  0.00  0.00    +0.000 A 
ATOM     33 CL   UNL     1      11.874  13.203  17.086  0.00  0.00    +0.000 Cl
ATOM     34  C   UNL     1      10.537  11.077  18.080  0.00  0.00    +0.000 A 
ENDBRANCH  24  27
ENDBRANCH   5  21
TORSDOF 4
ENDMDL
MODEL 3
REMARK VINA RESULT:      -7.3      0.335      1.669
REMARK  Name = 
REMARK  4 active torsions:
REMARK  status: ('A' for Active; 'I' for Inactive)
REMARK    1  A    between atoms: N_3  and  C_4
REMARK    2  A    between atoms: N_12  and  C_13
REMARK    3  A    between atoms: C_17  and  N_18
REMARK    4  A    between atoms: N_21  and  C_22
REMARK                            x       y       z     vdW  Elec       q    Type
REMARK                         _______ _______ _______ _____ _____    ______ ____
ROOT
ATOM      1  C   UNL     1       4.343   5.798  17.954  0.00  0.00    +0.000 C 
ATOM      2  C   UNL     1       4.714   4.821  16.827  0.00  0.00    +0.000 C 
ATOM      3  C   UNL     1       5.501   5.519  15.716  0.00  0.00    +0.000 C 
ATOM      4  C   UNL     1       6.760   6.192  16.259  0.00  0.00    +0.000 C 
ATOM      5  C   UNL     1       6.484   7.082  17.481  0.00  0.00    +0.000 C 
ATOM      6  C   UNL     1       5.638   6.379  18.543  0.00  0.00    +0.000 C 
ENDROOT
BRANCH   1  10
ATOM      7  O   UNL     1       2.579   7.476  19.475  0.00  0.00    +0.000 OA
ATOM      8  C   UNL     1       2.592   7.578  18.256  0.00  0.00    +0.000 C 
ATOM      9  N   UNL     1       1.812   8.433  17.497  0.00  0.00    +0.000 N 
ATOM     10  N   UNL     1       3.412   6.815  17.454  0.00  0.00    +0.000 N 
ATOM     11  H   UNL     1       1.750   8.211  16.516  0.00  0.00    +0.000 HD
ATOM     12  H   UNL     1       3.394   6.996  16.463  0.00  0.00    +0.000 HD
BRANCH   9  13
ATOM     13  C   UNL     1       0.926   9.424  17.973  0.00  0.00    +0.000 A 
ATOM     14  C   UNL     1      -0.450   9.415  17.727  0.00  0.00    +0.000 A 
ATOM     15  C   UNL     1      -1.256  10.449  18.211  0.00  0.00    +0.000 A 
ATOM     16 CL   UNL     1      -2.951  10.425  17.906  0.00  0.00    +0.000 Cl
ATOM     17  C   UNL     1      -0.710  11.500  18.942  0.00  0.00    +0.000 A 
ATOM     18  C   UNL     1       0.654  11.497  19.206  0.00  0.00    +0.000 A 
ATOM     19 CL   UNL     1       1.349  12.790  20.105  0.00  0.00    +0.000 Cl
ATOM     20  C   UNL     1       1.469  10.462  18.741  0.00  0.00    +0.000 A 
ENDBRANCH   9  13
ENDBRANCH   1  10
BRANCH   5  21
ATOM     21  N   UNL     1       7.739   7.554  18.049  0.00  0.00    +0.000 N 
ATOM     22  C   UNL     1       8.018   8.901  18.059  0.00  0.00    +0.000 C 
ATOM     23  O   UNL     1       7.217   9.725  17.630  0.00  0.00    +0.000 OA
ATOM     24  N   UNL     1       9.253   9.190  18.600  0.00  0.00    +0.000 N 
ATOM     25  H   UNL     1       8.486   6.893  18.212  0.00  0.00    +0.000 HD
ATOM     26  H   UNL     1       9.923   8.437  18.626  0.00  0.00    +0.000 HD
BRANCH  24  27
ATOM     27  C   UNL     1       9.727  10.496  18.863  0.00  0.00    +0.000 A 
ATOM     28  C   UNL     1       9.571  11.116  20.109  0.00  0.00    +0.000 A 
ATOM     29  C   UNL     1      10.011  12.422  20.309  0.00  0.00    +0.000 A 
ATOM     30 CL   UNL     1       9.782  13.172  21.843  0.00  0.00    +0.000 Cl
ATOM     31  C   UNL     1      10.629  13.125  19.283  0.00  0.00    +0.000 A 
ATOM     32  C   UNL     1      10.823  12.497  18.057  0.00  0.00    +0.000 A 
ATOM     33 CL   UNL     1      11.586  13.357  16.776  0.00  0.00    +0.000 Cl
ATOM     34  C   UNL     1      10.391  11.183  17.844  0.00  0.00    +0.000 A 
ENDBRANCH  24  27
ENDBRANCH   5  21
TORSDOF 4
ENDMDL
MODEL 4
REMARK VINA RESULT:      -7.3      4.592      8.584
REMARK  Name = 
REMARK  4 active torsions:
REMARK  status: ('A' for Active; 'I' for Inactive)
REMARK    1  A    between atoms: N_3  and  C_4
REMARK    2  A    between atoms: N_12  and  C_13
REMARK    3  A    between atoms: C_17  and  N_18
REMARK    4  A    between atoms: N_21  and  C_22
REMARK                            x       y       z     vdW  Elec       q    Type
REMARK                         _______ _______ _______ _____ _____    ______ ____
ROOT
ATOM      1  C   UNL     1       0.239  12.289  21.126  0.00  0.00    +0.000 C 
ATOM      2  C   UNL     1      -1.224  12.125  20.686  0.00  0.00    +0.000 C 
ATOM      3  C   UNL     1      -1.328  11.375  19.356  0.00  0.00    +0.000 C 
ATOM      4  C   UNL     1      -0.649  10.009  19.429  0.00  0.00    +0.000 C 
ATOM      5  C   UNL     1       0.778  10.079  19.995  0.00  0.00    +0.000 C 
ATOM      6  C   UNL     1       0.860  10.892  21.287  0.00  0.00    +0.000 C 
ENDROOT
BRANCH   1  10
ATOM      7  O   UNL     1       2.734  13.649  21.527  0.00  0.00    +0.000 OA
ATOM      8  C   UNL     1       2.155  13.774  20.458  0.00  0.00    +0.000 C 
ATOM      9  N   UNL     1       2.574  14.538  19.383  0.00  0.00    +0.000 N 
ATOM     10  N   UNL     1       0.957  13.152  20.183  0.00  0.00    +0.000 N 
ATOM     11  H   UNL     1       1.869  14.746  18.694  0.00  0.00    +0.000 HD
ATOM     12  H   UNL     1       0.571  13.270  19.259  0.00  0.00    +0.000 HD
BRANCH   9  13
ATOM     13  C   UNL     1       3.794  15.241  19.262  0.00  0.00    +0.000 A 
ATOM     14  C   UNL     1       4.864  14.802  18.478  0.00  0.00    +0.000 A 
ATOM     15  C   UNL     1       6.049  15.543  18.432  0.00  0.00    +0.000 A 
ATOM     16 CL   UNL     1       7.361  14.997  17.458  0.00  0.00    +0.000 Cl
ATOM     17  C   UNL     1       6.186  16.722  19.159  0.00  0.00    +0.000 A 
ATOM     18  C   UNL     1       5.112  17.169  19.920  0.00  0.00    +0.000 A 
ATOM     19 CL   UNL     1       5.262  18.623  20.830  0.00  0.00    +0.000 Cl
ATOM     20  C   UNL     1       3.918  16.447  19.963  0.00  0.00    +0.000 A 
ENDBRANCH   9  13
ENDBRANCH   1  10
BRANCH   5  21
ATOM     21  N   UNL     1       1.302   8.735  20.196  0.00  0.00    +0.000 N 
ATOM     22  C   UNL     1       1.800   8.031  19.124  0.00  0.00    +0.000 C 
ATOM     23  O   UNL     1       1.847   8.522  18.000  0.00  0.00    +0.000 OA
ATOM     24  N   UNL     1       2.231   6.767  19.465  0.00  0.00    +0.000 N 
ATOM     25  H   UNL     1       1.085   8.245  21.052  0.00  0.00    +0.000 HD
ATOM     26  H   UNL     1       1.864   6.379  20.321  0.00  0.00    +0.000 HD
BRANCH  24  27
ATOM     27  C   UNL     1       2.915   5.890  18.592  0.00  0.00    +0.000 A 
ATOM     28  C   UNL     1       4.000   6.304  17.809  0.00  0.00    +0.000 A 
ATOM     29  C   UNL     1       4.614   5.418  16.927  0.00  0.00    +0.000 A 
ATOM     30 CL   UNL     1       5.929   5.960  15.954  0.00  0.00    +0.000 Cl
ATOM     31  C   UNL     1       4.174   4.105  16.822  0.00  0.00    +0.000 A 
ATOM     32  C   UNL     1       3.123   3.680  17.629  0.00  0.00    +0.000 A 
ATOM     33 CL   UNL     1       2.566   2.056  17.508  0.00  0.00    +0.000 Cl
ATOM     34  C   UNL     1       2.501   4.557  18.525  0.00  0.00    +0.000 A 
ENDBRANCH  24  27
ENDBRANCH   5  21
TORSDOF 4
ENDMDL
MODEL 5
REMARK VINA RESULT:      -7.2      5.470     11.417
REMARK  Name = 
REMARK  4 active torsions:
REMARK  status: ('A' for Active; 'I' for Inactive)
REMARK    1  A    between atoms: N_3  and  C_4
REMARK    2  A    between atoms: N_12  and  C_13
REMARK    3  A    between atoms: C_17  and  N_18
REMARK    4  A    between atoms: N_21  and  C_22
REMARK                            x       y       z     vdW  Elec       q    Type
REMARK                         _______ _______ _______ _____ _____    ______ ____
ROOT
ATOM      1  C   UNL     1       0.606  10.607  19.977  0.00  0.00    +0.000 C 
ATOM      2  C   UNL     1       1.291  11.980  20.068  0.00  0.00    +0.000 C 
ATOM      3  C   UNL     1       1.072  12.800  18.794  0.00  0.00    +0.000 C 
ATOM      4  C   UNL     1      -0.414  12.978  18.492  0.00  0.00    +0.000 C 
ATOM      5  C   UNL     1      -1.194  11.655  18.522  0.00  0.00    +0.000 C 
ATOM      6  C   UNL     1      -0.902  10.826  19.773  0.00  0.00    +0.000 C 
ENDROOT
BRANCH   1  10
ATOM      7  O   UNL     1       1.879   8.049  20.249  0.00  0.00    +0.000 OA
ATOM      8  C   UNL     1       1.831   8.575  19.146  0.00  0.00    +0.000 C 
ATOM      9  N   UNL     1       2.353   8.063  17.971  0.00  0.00    +0.000 N 
ATOM     10  N   UNL     1       1.234   9.797  18.929  0.00  0.00    +0.000 N 
ATOM     11  H   UNL     1       2.464   8.724  17.219  0.00  0.00    +0.000 HD
ATOM     12  H   UNL     1       1.196  10.135  17.980  0.00  0.00    +0.000 HD
BRANCH   9  13
ATOM     13  C   UNL     1       2.952   6.797  17.786  0.00  0.00    +0.000 A 
ATOM     14  C   UNL     1       2.269   5.588  17.941  0.00  0.00    +0.000 A 
ATOM     15  C   UNL     1       2.941   4.375  17.765  0.00  0.00    +0.000 A 
ATOM     16 CL   UNL     1       2.089   2.890  17.953  0.00  0.00    +0.000 Cl
ATOM     17  C   UNL     1       4.293   4.347  17.434  0.00  0.00    +0.000 A 
ATOM     18  C   UNL     1       4.966   5.550  17.257  0.00  0.00    +0.000 A 
ATOM     19 CL   UNL     1       6.639   5.537  16.852  0.00  0.00    +0.000 Cl
ATOM     20  C   UNL     1       4.302   6.769  17.415  0.00  0.00    +0.000 A 
ENDBRANCH   9  13
ENDBRANCH   1  10
BRANCH   5  21
ATOM     21  N   UNL     1      -2.622  11.913  18.395  0.00  0.00    +0.000 N 
ATOM     22  C   UNL     1      -3.330  12.373  19.481  0.00  0.00    +0.000 C 
ATOM     23  O   UNL     1      -2.780  12.608  20.552  0.00  0.00    +0.000 OA
ATOM     24  N   UNL     1      -4.672  12.541  19.215  0.00  0.00    +0.000 N 
ATOM     25  H   UNL     1      -3.122  11.536  17.602  0.00  0.00    +0.000 HD
ATOM     26  H   UNL     1      -5.044  12.035  18.426  0.00  0.00    +0.000 HD
BRANCH  24  27
ATOM     27  C   UNL     1      -5.597  13.136  20.104  0.00  0.00    +0.000 A 
ATOM     28  C   UNL     1      -5.879  14.507  20.089  0.00  0.00    +0.000 A 
ATOM     29  C   UNL     1      -6.762  15.058  21.015  0.00  0.00    +0.000 A 
ATOM     30 CL   UNL     1      -7.070  16.753  20.993  0.00  0.00    +0.000 Cl
ATOM     31  C   UNL     1      -7.391  14.255  21.957  0.00  0.00    +0.000 A 
ATOM     32  C   UNL     1      -7.144  12.885  21.947  0.00  0.00    +0.000 A 
ATOM     33 CL   UNL     1      -7.916  11.878  23.110  0.00  0.00    +0.000 Cl
ATOM     34  C   UNL     1      -6.265  12.317  21.018  0.00  0.00    +0.000 A 
ENDBRANCH  24  27
ENDBRANCH   5  21
TORSDOF 4
ENDMDL
MODEL 6
REMARK VINA RESULT:      -7.2      5.317     11.633
REMARK  Name = 
REMARK  4 active torsions:
REMARK  status: ('A' for Active; 'I' for Inactive)
REMARK    1  A    between atoms: N_3  and  C_4
REMARK    2  A    between atoms: N_12  and  C_13
REMARK    3  A    between atoms: C_17  and  N_18
REMARK    4  A    between atoms: N_21  and  C_22
REMARK                            x       y       z     vdW  Elec       q    Type
REMARK                         _______ _______ _______ _____ _____    ______ ____
ROOT
ATOM      1  C   UNL     1       0.551  10.037  19.905  0.00  0.00    +0.000 C 
ATOM      2  C   UNL     1       1.112  11.416  20.286  0.00  0.00    +0.000 C 
ATOM      3  C   UNL     1       1.048  12.392  19.108  0.00  0.00    +0.000 C 
ATOM      4  C   UNL     1      -0.376  12.536  18.577  0.00  0.00    +0.000 C 
ATOM      5  C   UNL     1      -1.054  11.185  18.304  0.00  0.00    +0.000 C 
ATOM      6  C   UNL     1      -0.914  10.208  19.472  0.00  0.00    +0.000 C 
ENDROOT
BRANCH   1  10
ATOM      7  O   UNL     1       1.931   7.526  20.063  0.00  0.00    +0.000 OA
ATOM      8  C   UNL     1       2.033   8.197  19.046  0.00  0.00    +0.000 C 
ATOM      9  N   UNL     1       2.779   7.878  17.925  0.00  0.00    +0.000 N 
ATOM     10  N   UNL     1       1.400   9.410  18.888  0.00  0.00    +0.000 N 
ATOM     11  H   UNL     1       2.971   8.642  17.296  0.00  0.00    +0.000 HD
ATOM     12  H   UNL     1       1.499   9.875  17.999  0.00  0.00    +0.000 HD
BRANCH   9  13
ATOM     13  C   UNL     1       3.485   6.678  17.686  0.00  0.00    +0.000 A 
ATOM     14  C   UNL     1       4.853   6.628  17.403  0.00  0.00    +0.000 A 
ATOM     15  C   UNL     1       5.473   5.401  17.151  0.00  0.00    +0.000 A 
ATOM     16 CL   UNL     1       7.160   5.350  16.808  0.00  0.00    +0.000 Cl
ATOM     17  C   UNL     1       4.747   4.213  17.178  0.00  0.00    +0.000 A 
ATOM     18  C   UNL     1       3.392   4.261  17.482  0.00  0.00    +0.000 A 
ATOM     19 CL   UNL     1       2.476   2.804  17.516  0.00  0.00    +0.000 Cl
ATOM     20  C   UNL     1       2.763   5.479  17.750  0.00  0.00    +0.000 A 
ENDBRANCH   9  13
ENDBRANCH   1  10
BRANCH   5  21
ATOM     21  N   UNL     1      -2.456  11.388  17.965  0.00  0.00    +0.000 N 
ATOM     22  C   UNL     1      -3.316  11.906  18.906  0.00  0.00    +0.000 C 
ATOM     23  O   UNL     1      -2.923  12.237  20.020  0.00  0.00    +0.000 OA
ATOM     24  N   UNL     1      -4.612  12.011  18.449  0.00  0.00    +0.000 N 
ATOM     25  H   UNL     1      -2.834  10.937  17.144  0.00  0.00    +0.000 HD
ATOM     26  H   UNL     1      -4.861  11.436  17.658  0.00  0.00    +0.000 HD
BRANCH  24  27
ATOM     27  C   UNL     1      -5.662  12.641  19.154  0.00  0.00    +0.000 A 
ATOM     28  C   UNL     1      -6.194  12.114  20.338  0.00  0.00    +0.000 A 
ATOM     29  C   UNL     1      -7.262  12.744  20.975  0.00  0.00    +0.000 A 
ATOM     30 CL   UNL     1      -7.916  12.061  22.414  0.00  0.00    +0.000 Cl
ATOM     31  C   UNL     1      -7.805  13.912  20.457  0.00  0.00    +0.000 A 
ATOM     32  C   UNL     1      -7.251  14.459  19.303  0.00  0.00    +0.000 A 
ATOM     33 CL   UNL     1      -7.917  15.907  18.650  0.00  0.00    +0.000 Cl
ATOM     34  C   UNL     1      -6.175  13.842  18.657  0.00  0.00    +0.000 A 
ENDBRANCH  24  27
ENDBRANCH   5  21
TORSDOF 4
ENDMDL
MODEL 7
REMARK VINA RESULT:      -7.1      4.545      8.713
REMARK  Name = 
REMARK  4 active torsions:
REMARK  status: ('A' for Active; 'I' for Inactive)
REMARK    1  A    between atoms: N_3  and  C_4
REMARK    2  A    between atoms: N_12  and  C_13
REMARK    3  A    between atoms: C_17  and  N_18
REMARK    4  A    between atoms: N_21  and  C_22
REMARK                            x       y       z     vdW  Elec       q    Type
REMARK                         _______ _______ _______ _____ _____    ______ ____
ROOT
ATOM      1  C   UNL     1       0.198  12.559  20.443  0.00  0.00    +0.000 C 
ATOM      2  C   UNL     1      -1.164  12.398  19.750  0.00  0.00    +0.000 C 
ATOM      3  C   UNL     1      -1.036  11.627  18.435  0.00  0.00    +0.000 C 
ATOM      4  C   UNL     1      -0.395  10.257  18.649  0.00  0.00    +0.000 C 
ATOM      5  C   UNL     1       0.908  10.326  19.460  0.00  0.00    +0.000 C 
ATOM      6  C   UNL     1       0.767  11.160  20.733  0.00  0.00    +0.000 C 
ENDROOT
BRANCH   1  10
ATOM      7  O   UNL     1       2.624  13.862  21.249  0.00  0.00    +0.000 OA
ATOM      8  C   UNL     1       2.232  13.996  20.099  0.00  0.00    +0.000 C 
ATOM      9  N   UNL     1       2.841  14.745  19.108  0.00  0.00    +0.000 N 
ATOM     10  N   UNL     1       1.081  13.400  19.631  0.00  0.00    +0.000 N 
ATOM     11  H   UNL     1       2.264  14.967  18.312  0.00  0.00    +0.000 HD
ATOM     12  H   UNL     1       0.856  13.524  18.656  0.00  0.00    +0.000 HD
BRANCH   9  13
ATOM     13  C   UNL     1       4.080  15.419  19.189  0.00  0.00    +0.000 A 
ATOM     14  C   UNL     1       4.282  16.580  19.940  0.00  0.00    +0.000 A 
ATOM     15  C   UNL     1       5.534  17.201  19.947  0.00  0.00    +0.000 A 
ATOM     16 CL   UNL     1       5.774  18.629  20.880  0.00  0.00    +0.000 Cl
ATOM     17  C   UNL     1       6.596  16.680  19.213  0.00  0.00    +0.000 A 
ATOM     18  C   UNL     1       6.401  15.513  18.486  0.00  0.00    +0.000 A 
ATOM     19 CL   UNL     1       7.701  14.854  17.568  0.00  0.00    +0.000 Cl
ATOM     20  C   UNL     1       5.159  14.873  18.482  0.00  0.00    +0.000 A 
ENDBRANCH   9  13
ENDBRANCH   1  10
BRANCH   5  21
ATOM     21  N   UNL     1       1.375   8.982  19.772  0.00  0.00    +0.000 N 
ATOM     22  C   UNL     1       1.877   8.186  18.768  0.00  0.00    +0.000 C 
ATOM     23  O   UNL     1       1.977   8.593  17.615  0.00  0.00    +0.000 OA
ATOM     24  N   UNL     1       2.249   6.935  19.211  0.00  0.00    +0.000 N 
ATOM     25  H   UNL     1       1.114   8.562  20.652  0.00  0.00    +0.000 HD
ATOM     26  H   UNL     1       1.842   6.622  20.080  0.00  0.00    +0.000 HD
BRANCH  24  27
ATOM     27  C   UNL     1       2.925   5.974  18.425  0.00  0.00    +0.000 A 
ATOM     28  C   UNL     1       2.497   4.644  18.330  0.00  0.00    +0.000 A 
ATOM     29  C   UNL     1       3.222   3.719  17.581  0.00  0.00    +0.000 A 
ATOM     30 CL   UNL     1       2.689   2.083  17.503  0.00  0.00    +0.000 Cl
ATOM     31  C   UNL     1       4.371   4.104  16.902  0.00  0.00    +0.000 A 
ATOM     32  C   UNL     1       4.775   5.434  16.962  0.00  0.00    +0.000 A 
ATOM     33 CL   UNL     1       6.199   5.924  16.126  0.00  0.00    +0.000 Cl
ATOM     34  C   UNL     1       4.053   6.375  17.704  0.00  0.00    +0.000 A 
ENDBRANCH  24  27
ENDBRANCH   5  21
TORSDOF 4
ENDMDL
MODEL 8
REMARK VINA RESULT:      -7.1      1.119      2.271
REMARK  Name = 
REMARK  4 active torsions:
REMARK  status: ('A' for Active; 'I' for Inactive)
REMARK    1  A    between atoms: N_3  and  C_4
REMARK    2  A    between atoms: N_12  and  C_13
REMARK    3  A    between atoms: C_17  and  N_18
REMARK    4  A    between atoms: N_21  and  C_22
REMARK                            x       y       z     vdW  Elec       q    Type
REMARK                         _______ _______ _______ _____ _____    ______ ____
ROOT
ATOM      1  C   UNL     1       4.664   5.340  17.857  0.00  0.00    +0.000 C 
ATOM      2  C   UNL     1       5.086   4.627  16.563  0.00  0.00    +0.000 C 
ATOM      3  C   UNL     1       5.735   5.598  15.574  0.00  0.00    +0.000 C 
ATOM      4  C   UNL     1       6.936   6.310  16.194  0.00  0.00    +0.000 C 
ATOM      5  C   UNL     1       6.622   6.932  17.563  0.00  0.00    +0.000 C 
ATOM      6  C   UNL     1       5.913   5.958  18.505  0.00  0.00    +0.000 C 
ENDROOT
BRANCH   1  10
ATOM      7  O   UNL     1       3.102   6.842  19.738  0.00  0.00    +0.000 OA
ATOM      8  C   UNL     1       2.893   6.989  18.542  0.00  0.00    +0.000 C 
ATOM      9  N   UNL     1       1.943   7.817  17.972  0.00  0.00    +0.000 N 
ATOM     10  N   UNL     1       3.601   6.310  17.575  0.00  0.00    +0.000 N 
ATOM     11  H   UNL     1       1.721   7.627  17.007  0.00  0.00    +0.000 HD
ATOM     12  H   UNL     1       3.398   6.525  16.612  0.00  0.00    +0.000 HD
BRANCH   9  13
ATOM     13  C   UNL     1       1.098   8.731  18.640  0.00  0.00    +0.000 A 
ATOM     14  C   UNL     1       1.068   8.884  20.028  0.00  0.00    +0.000 A 
ATOM     15  C   UNL     1       0.183   9.793  20.615  0.00  0.00    +0.000 A 
ATOM     16 CL   UNL     1       0.157   9.977  22.327  0.00  0.00    +0.000 Cl
ATOM     17  C   UNL     1      -0.679  10.558  19.834  0.00  0.00    +0.000 A 
ATOM     18  C   UNL     1      -0.632  10.422  18.452  0.00  0.00    +0.000 A 
ATOM     19 CL   UNL     1      -1.693  11.357  17.469  0.00  0.00    +0.000 Cl
ATOM     20  C   UNL     1       0.258   9.529  17.852  0.00  0.00    +0.000 A 
ENDBRANCH   9  13
ENDBRANCH   1  10
BRANCH   5  21
ATOM     21  N   UNL     1       7.843   7.443  18.171  0.00  0.00    +0.000 N 
ATOM     22  C   UNL     1       8.089   8.797  18.170  0.00  0.00    +0.000 C 
ATOM     23  O   UNL     1       7.285   9.595  17.699  0.00  0.00    +0.000 OA
ATOM     24  N   UNL     1       9.294   9.124  18.754  0.00  0.00    +0.000 N 
ATOM     25  H   UNL     1       8.598   6.803  18.373  0.00  0.00    +0.000 HD
ATOM     26  H   UNL     1       9.981   8.388  18.817  0.00  0.00    +0.000 HD
BRANCH  24  27
ATOM     27  C   UNL     1       9.727  10.444  19.014  0.00  0.00    +0.000 A 
ATOM     28  C   UNL     1       9.552  11.061  20.259  0.00  0.00    +0.000 A 
ATOM     29  C   UNL     1       9.951  12.381  20.457  0.00  0.00    +0.000 A 
ATOM     30 CL   UNL     1       9.699  13.126  21.990  0.00  0.00    +0.000 Cl
ATOM     31  C   UNL     1      10.545  13.102  19.429  0.00  0.00    +0.000 A 
ATOM     32  C   UNL     1      10.757  12.478  18.204  0.00  0.00    +0.000 A 
ATOM     33 CL   UNL     1      11.490  13.361  16.920  0.00  0.00    +0.000 Cl
ATOM     34  C   UNL     1      10.368  11.151  17.993  0.00  0.00    +0.000 A 
ENDBRANCH  24  27
ENDBRANCH   5  21
TORSDOF 4
ENDMDL
MODEL 9
REMARK VINA RESULT:      -7.0      5.499     11.529
REMARK  Name = 
REMARK  4 active torsions:
REMARK  status: ('A' for Active; 'I' for Inactive)
REMARK    1  A    between atoms: N_3  and  C_4
REMARK    2  A    between atoms: N_12  and  C_13
REMARK    3  A    between atoms: C_17  and  N_18
REMARK    4  A    between atoms: N_21  and  C_22
REMARK                            x       y       z     vdW  Elec       q    Type
REMARK                         _______ _______ _______ _____ _____    ______ ____
ROOT
ATOM      1  C   UNL     1       0.510  10.157  20.066  0.00  0.00    +0.000 C 
ATOM      2  C   UNL     1       1.181  11.522  20.290  0.00  0.00    +0.000 C 
ATOM      3  C   UNL     1       1.102  12.397  19.037  0.00  0.00    +0.000 C 
ATOM      4  C   UNL     1      -0.343  12.594  18.582  0.00  0.00    +0.000 C 
ATOM      5  C   UNL     1      -1.121  11.274  18.469  0.00  0.00    +0.000 C 
ATOM      6  C   UNL     1      -0.966  10.391  19.708  0.00  0.00    +0.000 C 
ENDROOT
BRANCH   1  10
ATOM      7  O   UNL     1       1.850   7.641  20.397  0.00  0.00    +0.000 OA
ATOM      8  C   UNL     1       1.871   8.186  19.303  0.00  0.00    +0.000 C 
ATOM      9  N   UNL     1       2.504   7.716  18.166  0.00  0.00    +0.000 N 
ATOM     10  N   UNL     1       1.249   9.390  19.059  0.00  0.00    +0.000 N 
ATOM     11  H   UNL     1       2.652   8.395  17.436  0.00  0.00    +0.000 HD
ATOM     12  H   UNL     1       1.275   9.746  18.116  0.00  0.00    +0.000 HD
BRANCH   9  13
ATOM     13  C   UNL     1       3.162   6.475  18.009  0.00  0.00    +0.000 A 
ATOM     14  C   UNL     1       4.546   6.346  17.870  0.00  0.00    +0.000 A 
ATOM     15  C   UNL     1       5.118   5.083  17.692  0.00  0.00    +0.000 A 
ATOM     16 CL   UNL     1       6.826   4.933  17.526  0.00  0.00    +0.000 Cl
ATOM     17  C   UNL     1       4.327   3.938  17.650  0.00  0.00    +0.000 A 
ATOM     18  C   UNL     1       2.953   4.065  17.812  0.00  0.00    +0.000 A 
ATOM     19 CL   UNL     1       1.957   2.662  17.760  0.00  0.00    +0.000 Cl
ATOM     20  C   UNL     1       2.370   5.320  18.006  0.00  0.00    +0.000 A 
ENDBRANCH   9  13
ENDBRANCH   1  10
BRANCH   5  21
ATOM     21  N   UNL     1      -2.526  11.543  18.199  0.00  0.00    +0.000 N 
ATOM     22  C   UNL     1      -3.329  12.041  19.199  0.00  0.00    +0.000 C 
ATOM     23  O   UNL     1      -2.881  12.301  20.311  0.00  0.00    +0.000 OA
ATOM     24  N   UNL     1      -4.637  12.215  18.800  0.00  0.00    +0.000 N 
ATOM     25  H   UNL     1      -2.953  11.149  17.372  0.00  0.00    +0.000 HD
ATOM     26  H   UNL     1      -4.938  11.691  17.993  0.00  0.00    +0.000 HD
BRANCH  24  27
ATOM     27  C   UNL     1      -5.635  12.844  19.579  0.00  0.00    +0.000 A 
ATOM     28  C   UNL     1      -6.247  14.043  19.192  0.00  0.00    +0.000 A 
ATOM     29  C   UNL     1      -7.192  14.653  20.014  0.00  0.00    +0.000 A 
ATOM     30 CL   UNL     1      -7.909  16.142  19.527  0.00  0.00    +0.000 Cl
ATOM     31  C   UNL     1      -7.557  14.074  21.223  0.00  0.00    +0.000 A 
ATOM     32  C   UNL     1      -6.980  12.862  21.590  0.00  0.00    +0.000 A 
ATOM     33 CL   UNL     1      -7.423  12.135  23.087  0.00  0.00    +0.000 Cl
ATOM     34  C   UNL     1      -6.035  12.235  20.771  0.00  0.00    +0.000 A 
ENDBRANCH  24  27
ENDBRANCH   5  21
TORSDOF 4
ENDMDL
