MODEL 1
REMARK VINA RESULT:      -7.1      0.000      0.000
REMARK  Name = 
REMARK  3 active torsions:
REMARK  status: ('A' for Active; 'I' for Inactive)
REMARK    1  A    between atoms: C_2  and  C_11
REMARK    2  A    between atoms: N_3  and  C_4
REMARK    3  A    between atoms: C_14  and  N_15
REMARK                            x       y       z     vdW  Elec       q    Type
REMARK                         _______ _______ _______ _____ _____    ______ ____
ROOT
ATOM      1  O   UNL     1       6.495   5.025  18.587  0.00  0.00    +0.000 OA
ATOM      2  C   UNL     1       5.787   4.429  17.778  0.00  0.00    +0.000 C 
ATOM      3  N   UNL     1       4.685   3.696  18.191  0.00  0.00    +0.000 N 
ATOM      4  H   UNL     1       4.031   3.430  17.467  0.00  0.00    +0.000 HD
ENDROOT
BRANCH   3   5
ATOM      5  C   UNL     1       4.207   3.731  19.589  0.00  0.00    +0.000 C 
ATOM      6  C   UNL     1       3.303   4.953  19.831  0.00  0.00    +0.000 C 
ATOM      7  C   UNL     1       1.819   4.737  19.517  0.00  0.00    +0.000 C 
ATOM      8  C   UNL     1       1.019   4.236  20.722  0.00  0.00    +0.000 C 
ATOM      9  C   UNL     1       1.310   2.803  21.158  0.00  0.00    +0.000 C 
ATOM     10  C   UNL     1       2.785   2.466  21.352  0.00  0.00    +0.000 C 
ATOM     11  C   UNL     1       3.564   2.399  20.036  0.00  0.00    +0.000 C 
ENDBRANCH   3   5
BRANCH   2  12
ATOM     12  C   UNL     1       6.097   4.481  16.351  0.00  0.00    +0.000 A 
ATOM     13  C   UNL     1       5.340   3.865  15.364  0.00  0.00    +0.000 A 
ATOM     14  C   UNL     1       5.866   4.045  14.055  0.00  0.00    +0.000 A 
ATOM     15  C   UNL     1       7.024   4.789  14.085  0.00  0.00    +0.000 A 
ATOM     16  S   UNL     1       7.453   5.274  15.667  0.00  0.00    +0.000 S 
BRANCH  15  17
ATOM     17  N   UNL     1       7.825   5.146  12.940  0.00  0.00    +0.000 N 
ATOM     18  O   UNL     1       7.527   4.596  11.868  0.00  0.00    +0.000 OA
ATOM     19  O   UNL     1       8.735   5.966  13.098  0.00  0.00    +0.000 OA
ENDBRANCH  15  17
ENDBRANCH   2  12
TORSDOF 3
ENDMDL
MODEL 2
REMARK VINA RESULT:      -6.8      1.119      1.543
REMARK  Name = 
REMARK  3 active torsions:
REMARK  status: ('A' for Active; 'I' for Inactive)
REMARK    1  A    between atoms: C_2  and  C_11
REMARK    2  A    between atoms: N_3  and  C_4
REMARK    3  A    between atoms: C_14  and  N_15
REMARK                            x       y       z     vdW  Elec       q    Type
REMARK                         _______ _______ _______ _____ _____    ______ ____
ROOT
ATOM      1  O   UNL     1       6.340   5.402  18.554  0.00  0.00    +0.000 OA
ATOM      2  C   UNL     1       5.818   4.586  17.798  0.00  0.00    +0.000 C 
ATOM      3  N   UNL     1       4.849   3.704  18.251  0.00  0.00    +0.000 N 
ATOM      4  H   UNL     1       4.310   3.230  17.538  0.00  0.00    +0.000 HD
ENDROOT
BRANCH   3   5
ATOM      5  C   UNL     1       4.274   3.810  19.609  0.00  0.00    +0.000 C 
ATOM      6  C   UNL     1       3.282   4.984  19.696  0.00  0.00    +0.000 C 
ATOM      7  C   UNL     1       1.840   4.647  19.305  0.00  0.00    +0.000 C 
ATOM      8  C   UNL     1       0.991   4.185  20.492  0.00  0.00    +0.000 C 
ATOM      9  C   UNL     1       1.337   2.811  21.055  0.00  0.00    +0.000 C 
ATOM     10  C   UNL     1       2.813   2.587  21.370  0.00  0.00    +0.000 C 
ATOM     11  C   UNL     1       3.684   2.475  20.116  0.00  0.00    +0.000 C 
ENDBRANCH   3   5
BRANCH   2  12
ATOM     12  C   UNL     1       6.213   4.527  16.392  0.00  0.00    +0.000 A 
ATOM     13  C   UNL     1       7.265   5.248  15.845  0.00  0.00    +0.000 A 
ATOM     14  C   UNL     1       7.431   5.034  14.449  0.00  0.00    +0.000 A 
ATOM     15  C   UNL     1       6.484   4.159  13.968  0.00  0.00    +0.000 A 
ATOM     16  S   UNL     1       5.428   3.594  15.188  0.00  0.00    +0.000 S 
BRANCH  15  17
ATOM     17  N   UNL     1       6.351   3.734  12.596  0.00  0.00    +0.000 N 
ATOM     18  O   UNL     1       7.242   4.107  11.817  0.00  0.00    +0.000 OA
ATOM     19  O   UNL     1       5.379   3.034  12.293  0.00  0.00    +0.000 OA
ENDBRANCH  15  17
ENDBRANCH   2  12
TORSDOF 3
ENDMDL
MODEL 3
REMARK VINA RESULT:      -6.5      1.583      2.081
REMARK  Name = 
REMARK  3 active torsions:
REMARK  status: ('A' for Active; 'I' for Inactive)
REMARK    1  A    between atoms: C_2  and  C_11
REMARK    2  A    between atoms: N_3  and  C_4
REMARK    3  A    between atoms: C_14  and  N_15
REMARK                            x       y       z     vdW  Elec       q    Type
REMARK                         _______ _______ _______ _____ _____    ______ ____
ROOT
ATOM      1  O   UNL     1       3.429   4.603  17.268  0.00  0.00    +0.000 OA
ATOM      2  C   UNL     1       4.430   3.907  17.108  0.00  0.00    +0.000 C 
ATOM      3  N   UNL     1       4.566   2.686  17.750  0.00  0.00    +0.000 N 
ATOM      4  H   UNL     1       5.293   2.077  17.398  0.00  0.00    +0.000 HD
ENDROOT
BRANCH   3   5
ATOM      5  C   UNL     1       3.456   2.081  18.516  0.00  0.00    +0.000 C 
ATOM      6  C   UNL     1       3.615   2.354  20.023  0.00  0.00    +0.000 C 
ATOM      7  C   UNL     1       3.001   3.668  20.514  0.00  0.00    +0.000 C 
ATOM      8  C   UNL     1       1.545   3.518  20.962  0.00  0.00    +0.000 C 
ATOM      9  C   UNL     1       0.535   3.268  19.847  0.00  0.00    +0.000 C 
ATOM     10  C   UNL     1       0.889   2.137  18.886  0.00  0.00    +0.000 C 
ATOM     11  C   UNL     1       2.066   2.476  17.968  0.00  0.00    +0.000 C 
ENDBRANCH   3   5
BRANCH   2  12
ATOM     12  C   UNL     1       5.507   4.360  16.230  0.00  0.00    +0.000 A 
ATOM     13  C   UNL     1       6.614   5.080  16.658  0.00  0.00    +0.000 A 
ATOM     14  C   UNL     1       7.507   5.420  15.605  0.00  0.00    +0.000 A 
ATOM     15  C   UNL     1       7.044   4.956  14.395  0.00  0.00    +0.000 A 
ATOM     16  S   UNL     1       5.566   4.109  14.536  0.00  0.00    +0.000 S 
BRANCH  15  17
ATOM     17  N   UNL     1       7.693   5.139  13.120  0.00  0.00    +0.000 N 
ATOM     18  O   UNL     1       8.652   5.927  13.099  0.00  0.00    +0.000 OA
ATOM     19  O   UNL     1       7.263   4.505  12.150  0.00  0.00    +0.000 OA
ENDBRANCH  15  17
ENDBRANCH   2  12
TORSDOF 3
ENDMDL
MODEL 4
REMARK VINA RESULT:      -6.4      1.361      2.099
REMARK  Name = 
REMARK  3 active torsions:
REMARK  status: ('A' for Active; 'I' for Inactive)
REMARK    1  A    between atoms: C_2  and  C_11
REMARK    2  A    between atoms: N_3  and  C_4
REMARK    3  A    between atoms: C_14  and  N_15
REMARK                            x       y       z     vdW  Elec       q    Type
REMARK                         _______ _______ _______ _____ _____    ______ ____
ROOT
ATOM      1  O   UNL     1       4.898   4.036  18.737  0.00  0.00    +0.000 OA
ATOM      2  C   UNL     1       4.560   4.402  17.613  0.00  0.00    +0.000 C 
ATOM      3  N   UNL     1       3.237   4.689  17.318  0.00  0.00    +0.000 N 
ATOM      4  H   UNL     1       3.072   5.196  16.458  0.00  0.00    +0.000 HD
ENDROOT
BRANCH   3   5
ATOM      5  C   UNL     1       2.198   4.738  18.369  0.00  0.00    +0.000 C 
ATOM      6  C   UNL     1       1.414   3.414  18.429  0.00  0.00    +0.000 C 
ATOM      7  C   UNL     1       2.024   2.337  19.332  0.00  0.00    +0.000 C 
ATOM      8  C   UNL     1       1.511   2.402  20.772  0.00  0.00    +0.000 C 
ATOM      9  C   UNL     1       1.990   3.598  21.590  0.00  0.00    +0.000 C 
ATOM     10  C   UNL     1       1.809   4.959  20.924  0.00  0.00    +0.000 C 
ATOM     11  C   UNL     1       2.755   5.179  19.741  0.00  0.00    +0.000 C 
ENDBRANCH   3   5
BRANCH   2  12
ATOM     12  C   UNL     1       5.558   4.541  16.555  0.00  0.00    +0.000 A 
ATOM     13  C   UNL     1       6.903   4.803  16.777  0.00  0.00    +0.000 A 
ATOM     14  C   UNL     1       7.661   4.915  15.579  0.00  0.00    +0.000 A 
ATOM     15  C   UNL     1       6.863   4.747  14.471  0.00  0.00    +0.000 A 
ATOM     16  S   UNL     1       5.231   4.439  14.875  0.00  0.00    +0.000 S 
BRANCH  15  17
ATOM     17  N   UNL     1       7.303   4.814  13.099  0.00  0.00    +0.000 N 
ATOM     18  O   UNL     1       8.113   5.713  12.825  0.00  0.00    +0.000 OA
ATOM     19  O   UNL     1       6.857   3.982  12.302  0.00  0.00    +0.000 OA
ENDBRANCH  15  17
ENDBRANCH   2  12
TORSDOF 3
ENDMDL
MODEL 5
REMARK VINA RESULT:      -6.3      1.552      2.079
REMARK  Name = 
REMARK  3 active torsions:
REMARK  status: ('A' for Active; 'I' for Inactive)
REMARK    1  A    between atoms: C_2  and  C_11
REMARK    2  A    between atoms: N_3  and  C_4
REMARK    3  A    between atoms: C_14  and  N_15
REMARK                            x       y       z     vdW  Elec       q    Type
REMARK                         _______ _______ _______ _____ _____    ______ ____
ROOT
ATOM      1  O   UNL     1       5.158   6.327  17.707  0.00  0.00    +0.000 OA
ATOM      2  C   UNL     1       4.849   5.353  17.024  0.00  0.00    +0.000 C 
ATOM      3  N   UNL     1       3.770   4.551  17.362  0.00  0.00    +0.000 N 
ATOM      4  H   UNL     1       3.441   3.921  16.643  0.00  0.00    +0.000 HD
ENDROOT
BRANCH   3   5
ATOM      5  C   UNL     1       2.841   4.916  18.452  0.00  0.00    +0.000 C 
ATOM      6  C   UNL     1       1.428   4.369  18.177  0.00  0.00    +0.000 C 
ATOM      7  C   UNL     1       1.174   2.944  18.679  0.00  0.00    +0.000 C 
ATOM      8  C   UNL     1       0.627   2.902  20.108  0.00  0.00    +0.000 C 
ATOM      9  C   UNL     1       1.614   3.291  21.204  0.00  0.00    +0.000 C 
ATOM     10  C   UNL     1       2.350   4.609  20.981  0.00  0.00    +0.000 C 
ATOM     11  C   UNL     1       3.380   4.538  19.850  0.00  0.00    +0.000 C 
ENDBRANCH   3   5
BRANCH   2  12
ATOM     12  C   UNL     1       5.620   5.019  15.828  0.00  0.00    +0.000 A 
ATOM     13  C   UNL     1       6.947   5.374  15.629  0.00  0.00    +0.000 A 
ATOM     14  C   UNL     1       7.462   4.949  14.373  0.00  0.00    +0.000 A 
ATOM     15  C   UNL     1       6.501   4.288  13.643  0.00  0.00    +0.000 A 
ATOM     16  S   UNL     1       5.010   4.169  14.470  0.00  0.00    +0.000 S 
BRANCH  15  17
ATOM     17  N   UNL     1       6.679   3.740  12.320  0.00  0.00    +0.000 N 
ATOM     18  O   UNL     1       7.509   4.311  11.595  0.00  0.00    +0.000 OA
ATOM     19  O   UNL     1       6.010   2.751  12.004  0.00  0.00    +0.000 OA
ENDBRANCH  15  17
ENDBRANCH   2  12
TORSDOF 3
ENDMDL
MODEL 6
REMARK VINA RESULT:      -6.3      1.288      1.613
REMARK  Name = 
REMARK  3 active torsions:
REMARK  status: ('A' for Active; 'I' for Inactive)
REMARK    1  A    between atoms: C_2  and  C_11
REMARK    2  A    between atoms: N_3  and  C_4
REMARK    3  A    between atoms: C_14  and  N_15
REMARK                            x       y       z     vdW  Elec       q    Type
REMARK                         _______ _______ _______ _____ _____    ______ ____
ROOT
ATOM      1  O   UNL     1       4.450   6.589  17.483  0.00  0.00    +0.000 OA
ATOM      2  C   UNL     1       4.450   5.447  17.029  0.00  0.00    +0.000 C 
ATOM      3  N   UNL     1       3.670   4.449  17.593  0.00  0.00    +0.000 N 
ATOM      4  H   UNL     1       3.546   3.613  17.037  0.00  0.00    +0.000 HD
ENDROOT
BRANCH   3   5
ATOM      5  C   UNL     1       2.678   4.741  18.650  0.00  0.00    +0.000 C 
ATOM      6  C   UNL     1       1.408   3.891  18.462  0.00  0.00    +0.000 C 
ATOM      7  C   UNL     1       1.444   2.512  19.127  0.00  0.00    +0.000 C 
ATOM      8  C   UNL     1       0.907   2.524  20.560  0.00  0.00    +0.000 C 
ATOM      9  C   UNL     1       1.787   3.229  21.588  0.00  0.00    +0.000 C 
ATOM     10  C   UNL     1       2.242   4.634  21.205  0.00  0.00    +0.000 C 
ATOM     11  C   UNL     1       3.272   4.643  20.073  0.00  0.00    +0.000 C 
ENDBRANCH   3   5
BRANCH   2  12
ATOM     12  C   UNL     1       5.282   5.114  15.874  0.00  0.00    +0.000 A 
ATOM     13  C   UNL     1       5.279   3.881  15.238  0.00  0.00    +0.000 A 
ATOM     14  C   UNL     1       6.196   3.803  14.154  0.00  0.00    +0.000 A 
ATOM     15  C   UNL     1       6.886   4.984  14.004  0.00  0.00    +0.000 A 
ATOM     16  S   UNL     1       6.416   6.170  15.142  0.00  0.00    +0.000 S 
BRANCH  15  17
ATOM     17  N   UNL     1       7.902   5.245  13.015  0.00  0.00    +0.000 N 
ATOM     18  O   UNL     1       7.725   4.737  11.897  0.00  0.00    +0.000 OA
ATOM     19  O   UNL     1       8.864   5.951  13.338  0.00  0.00    +0.000 OA
ENDBRANCH  15  17
ENDBRANCH   2  12
TORSDOF 3
ENDMDL
MODEL 7
REMARK VINA RESULT:      -6.3      1.400      2.066
REMARK  Name = 
REMARK  3 active torsions:
REMARK  status: ('A' for Active; 'I' for Inactive)
REMARK    1  A    between atoms: C_2  and  C_11
REMARK    2  A    between atoms: N_3  and  C_4
REMARK    3  A    between atoms: C_14  and  N_15
REMARK                            x       y       z     vdW  Elec       q    Type
REMARK                         _______ _______ _______ _____ _____    ______ ____
ROOT
ATOM      1  O   UNL     1       4.208   4.654  18.365  0.00  0.00    +0.000 OA
ATOM      2  C   UNL     1       4.563   3.928  17.439  0.00  0.00    +0.000 C 
ATOM      3  N   UNL     1       4.018   2.665  17.266  0.00  0.00    +0.000 N 
ATOM      4  H   UNL     1       4.185   2.227  16.369  0.00  0.00    +0.000 HD
ENDROOT
BRANCH   3   5
ATOM      5  C   UNL     1       2.871   2.196  18.072  0.00  0.00    +0.000 C 
ATOM      6  C   UNL     1       3.346   1.601  19.410  0.00  0.00    +0.000 C 
ATOM      7  C   UNL     1       3.506   2.610  20.551  0.00  0.00    +0.000 C 
ATOM      8  C   UNL     1       2.232   2.782  21.381  0.00  0.00    +0.000 C 
ATOM      9  C   UNL     1       1.081   3.499  20.682  0.00  0.00    +0.000 C 
ATOM     10  C   UNL     1       0.719   2.961  19.301  0.00  0.00    +0.000 C 
ATOM     11  C   UNL     1       1.776   3.273  18.239  0.00  0.00    +0.000 C 
ENDBRANCH   3   5
BRANCH   2  12
ATOM     12  C   UNL     1       5.579   4.386  16.493  0.00  0.00    +0.000 A 
ATOM     13  C   UNL     1       6.632   5.226  16.823  0.00  0.00    +0.000 A 
ATOM     14  C   UNL     1       7.469   5.543  15.717  0.00  0.00    +0.000 A 
ATOM     15  C   UNL     1       7.018   4.939  14.566  0.00  0.00    +0.000 A 
ATOM     16  S   UNL     1       5.618   3.992  14.825  0.00  0.00    +0.000 S 
BRANCH  15  17
ATOM     17  N   UNL     1       7.620   5.060  13.261  0.00  0.00    +0.000 N 
ATOM     18  O   UNL     1       7.139   4.347  12.366  0.00  0.00    +0.000 OA
ATOM     19  O   UNL     1       8.554   5.856  13.121  0.00  0.00    +0.000 OA
ENDBRANCH  15  17
ENDBRANCH   2  12
TORSDOF 3
ENDMDL
MODEL 8
REMARK VINA RESULT:      -6.2      5.520      8.111
REMARK  Name = 
REMARK  3 active torsions:
REMARK  status: ('A' for Active; 'I' for Inactive)
REMARK    1  A    between atoms: C_2  and  C_11
REMARK    2  A    between atoms: N_3  and  C_4
REMARK    3  A    between atoms: C_14  and  N_15
REMARK                            x       y       z     vdW  Elec       q    Type
REMARK                         _______ _______ _______ _____ _____    ______ ____
ROOT
ATOM      1  O   UNL     1       2.814   8.103  17.773  0.00  0.00    +0.000 OA
ATOM      2  C   UNL     1       2.200   7.695  18.756  0.00  0.00    +0.000 C 
ATOM      3  N   UNL     1       2.145   6.343  19.060  0.00  0.00    +0.000 N 
ATOM      4  H   UNL     1       1.825   6.109  19.991  0.00  0.00    +0.000 HD
ENDROOT
BRANCH   3   5
ATOM      5  C   UNL     1       2.956   5.348  18.327  0.00  0.00    +0.000 C 
ATOM      6  C   UNL     1       4.043   4.747  19.237  0.00  0.00    +0.000 C 
ATOM      7  C   UNL     1       3.607   3.526  20.052  0.00  0.00    +0.000 C 
ATOM      8  C   UNL     1       3.852   2.202  19.326  0.00  0.00    +0.000 C 
ATOM      9  C   UNL     1       2.952   1.932  18.124  0.00  0.00    +0.000 C 
ATOM     10  C   UNL     1       2.867   3.063  17.104  0.00  0.00    +0.000 C 
ATOM     11  C   UNL     1       2.094   4.279  17.618  0.00  0.00    +0.000 C 
ENDBRANCH   3   5
BRANCH   2  12
ATOM     12  C   UNL     1       1.505   8.636  19.632  0.00  0.00    +0.000 A 
ATOM     13  C   UNL     1       1.069   9.894  19.240  0.00  0.00    +0.000 A 
ATOM     14  C   UNL     1       0.442  10.626  20.286  0.00  0.00    +0.000 A 
ATOM     15  C   UNL     1       0.430   9.903  21.457  0.00  0.00    +0.000 A 
ATOM     16  S   UNL     1       1.148   8.360  21.286  0.00  0.00    +0.000 S 
BRANCH  15  17
ATOM     17  N   UNL     1      -0.113  10.350  22.716  0.00  0.00    +0.000 N 
ATOM     18  O   UNL     1      -0.925  11.286  22.663  0.00  0.00    +0.000 OA
ATOM     19  O   UNL     1       0.256   9.777  23.747  0.00  0.00    +0.000 OA
ENDBRANCH  15  17
ENDBRANCH   2  12
TORSDOF 3
ENDMDL
MODEL 9
REMARK VINA RESULT:      -6.2      5.888      8.518
REMARK  Name = 
REMARK  3 active torsions:
REMARK  status: ('A' for Active; 'I' for Inactive)
REMARK    1  A    between atoms: C_2  and  C_11
REMARK    2  A    between atoms: N_3  and  C_4
REMARK    3  A    between atoms: C_14  and  N_15
REMARK                            x       y       z     vdW  Elec       q    Type
REMARK                         _______ _______ _______ _____ _____    ______ ____
ROOT
ATOM      1  O   UNL     1       2.184   8.919  17.426  0.00  0.00    +0.000 OA
ATOM      2  C   UNL     1       1.879   8.430  18.511  0.00  0.00    +0.000 C 
ATOM      3  N   UNL     1       2.125   7.096  18.794  0.00  0.00    +0.000 N 
ATOM      4  H   UNL     1       2.060   6.828  19.767  0.00  0.00    +0.000 HD
ENDROOT
BRANCH   3   5
ATOM      5  C   UNL     1       2.914   6.240  17.883  0.00  0.00    +0.000 C 
ATOM      6  C   UNL     1       4.414   6.309  18.225  0.00  0.00    +0.000 C 
ATOM      7  C   UNL     1       4.885   5.308  19.285  0.00  0.00    +0.000 C 
ATOM      8  C   UNL     1       5.351   3.979  18.686  0.00  0.00    +0.000 C 
ATOM      9  C   UNL     1       4.252   3.097  18.101  0.00  0.00    +0.000 C 
ATOM     10  C   UNL     1       3.310   3.792  17.122  0.00  0.00    +0.000 C 
ATOM     11  C   UNL     1       2.373   4.795  17.800  0.00  0.00    +0.000 C 
ENDBRANCH   3   5
BRANCH   2  12
ATOM     12  C   UNL     1       1.241   9.255  19.536  0.00  0.00    +0.000 A 
ATOM     13  C   UNL     1       0.967  10.608  19.391  0.00  0.00    +0.000 A 
ATOM     14  C   UNL     1       0.364  11.188  20.541  0.00  0.00    +0.000 A 
ATOM     15  C   UNL     1       0.208  10.255  21.541  0.00  0.00    +0.000 A 
ATOM     16  S   UNL     1       0.764   8.703  21.086  0.00  0.00    +0.000 S 
BRANCH  15  17
ATOM     17  N   UNL     1      -0.354  10.505  22.846  0.00  0.00    +0.000 N 
ATOM     18  O   UNL     1      -1.284  11.325  22.895  0.00  0.00    +0.000 OA
ATOM     19  O   UNL     1       0.117   9.894  23.811  0.00  0.00    +0.000 OA
ENDBRANCH  15  17
ENDBRANCH   2  12
TORSDOF 3
ENDMDL
