MODEL 1
REMARK VINA RESULT:      -7.5      0.000      0.000
REMARK  Name = 
REMARK  6 active torsions:
REMARK  status: ('A' for Active; 'I' for Inactive)
REMARK    1  A    between atoms: C_1  and  C_2
REMARK    2  A    between atoms: C_4  and  C_5
REMARK    3  A    between atoms: N_8  and  C_9
REMARK    4  A    between atoms: C_9  and  N_11
REMARK    5  A    between atoms: N_14  and  C_15
REMARK    6  A    between atoms: C_15  and  C_16
REMARK                            x       y       z     vdW  Elec       q    Type
REMARK                         _______ _______ _______ _____ _____    ______ ____
ROOT
ATOM      1  N   UNL     1       3.906   5.389  18.844  0.00  0.00    +0.000 N 
ATOM      2  C   UNL     1       3.867   5.607  17.384  0.00  0.00    +0.000 C 
ATOM      3  C   UNL     1       5.118   6.335  16.842  0.00  0.00    +0.000 C 
ATOM      4  N   UNL     1       6.409   5.770  17.301  0.00  0.00    +0.000 NA
ATOM      5  C   UNL     1       6.379   5.726  18.781  0.00  0.00    +0.000 C 
ATOM      6  C   UNL     1       5.201   4.925  19.365  0.00  0.00    +0.000 C 
ENDROOT
BRANCH   1   7
ATOM      7  C   UNL     1       2.716   5.042  19.473  0.00  0.00    +0.000 C 
ATOM      8  S   UNL     1       1.786   3.703  19.074  0.00  0.00    +0.000 S 
BRANCH   7  16
ATOM      9  C   UNL     1       1.398   9.981  17.837  0.00  0.00    +0.000 C 
ATOM     10  C   UNL     1       1.376   9.234  19.133  0.00  0.00    +0.000 A 
ATOM     11  C   UNL     1       0.879   9.787  20.309  0.00  0.00    +0.000 A 
ATOM     12  C   UNL     1       0.895   9.019  21.470  0.00  0.00    +0.000 A 
ATOM     13  C   UNL     1       0.406   9.600  22.765  0.00  0.00    +0.000 C 
ATOM     14  N   UNL     1       1.342   7.736  21.501  0.00  0.00    +0.000 NA
ATOM     15  C   UNL     1       1.799   7.201  20.351  0.00  0.00    +0.000 A 
ATOM     16  N   UNL     1       2.244   5.875  20.448  0.00  0.00    +0.000 N 
ATOM     17  C   UNL     1       1.865   7.930  19.175  0.00  0.00    +0.000 A 
ATOM     18  H   UNL     1       2.424   5.601  21.406  0.00  0.00    +0.000 HD
ENDBRANCH   7  16
ENDBRANCH   1   7
BRANCH   4  19
ATOM     19  C   UNL     1       6.631   4.447  16.688  0.00  0.00    +0.000 C 
BRANCH  19  20
ATOM     20  C   UNL     1       6.790   4.471  15.182  0.00  0.00    +0.000 A 
ATOM     21  C   UNL     1       7.767   5.291  14.588  0.00  0.00    +0.000 A 
ATOM     22  C   UNL     1       7.922   5.313  13.202  0.00  0.00    +0.000 A 
ATOM     23  C   UNL     1       7.107   4.514  12.410  0.00  0.00    +0.000 A 
ATOM     24  F   UNL     1       7.258   4.534  11.080  0.00  0.00    +0.000 F 
ATOM     25  C   UNL     1       6.138   3.695  12.977  0.00  0.00    +0.000 A 
ATOM     26  C   UNL     1       5.978   3.673  14.363  0.00  0.00    +0.000 A 
ENDBRANCH  19  20
ENDBRANCH   4  19
TORSDOF 4
ENDMDL
MODEL 2
REMARK VINA RESULT:      -7.4      0.279      1.006
REMARK  Name = 
REMARK  6 active torsions:
REMARK  status: ('A' for Active; 'I' for Inactive)
REMARK    1  A    between atoms: C_1  and  C_2
REMARK    2  A    between atoms: C_4  and  C_5
REMARK    3  A    between atoms: N_8  and  C_9
REMARK    4  A    between atoms: C_9  and  N_11
REMARK    5  A    between atoms: N_14  and  C_15
REMARK    6  A    between atoms: C_15  and  C_16
REMARK                            x       y       z     vdW  Elec       q    Type
REMARK                         _______ _______ _______ _____ _____    ______ ____
ROOT
ATOM      1  N   UNL     1       3.634   5.326  19.033  0.00  0.00    +0.000 N 
ATOM      2  C   UNL     1       3.531   5.559  17.579  0.00  0.00    +0.000 C 
ATOM      3  C   UNL     1       4.775   6.253  16.982  0.00  0.00    +0.000 C 
ATOM      4  N   UNL     1       6.069   5.643  17.372  0.00  0.00    +0.000 NA
ATOM      5  C   UNL     1       6.110   5.586  18.851  0.00  0.00    +0.000 C 
ATOM      6  C   UNL     1       4.938   4.816  19.486  0.00  0.00    +0.000 C 
ENDROOT
BRANCH   1   7
ATOM      7  C   UNL     1       2.466   5.010  19.718  0.00  0.00    +0.000 C 
ATOM      8  S   UNL     1       1.543   3.636  19.438  0.00  0.00    +0.000 S 
BRANCH   7  16
ATOM      9  C   UNL     1       1.478   9.948  17.861  0.00  0.00    +0.000 C 
ATOM     10  C   UNL     1       1.373   9.253  19.182  0.00  0.00    +0.000 A 
ATOM     11  C   UNL     1       0.869   9.875  20.319  0.00  0.00    +0.000 A 
ATOM     12  C   UNL     1       0.804   9.152  21.507  0.00  0.00    +0.000 A 
ATOM     13  C   UNL     1       0.306   9.807  22.762  0.00  0.00    +0.000 C 
ATOM     14  N   UNL     1       1.178   7.849  21.599  0.00  0.00    +0.000 NA
ATOM     15  C   UNL     1       1.642   7.247  20.485  0.00  0.00    +0.000 A 
ATOM     16  N   UNL     1       2.010   5.903  20.645  0.00  0.00    +0.000 N 
ATOM     17  C   UNL     1       1.787   7.927  19.287  0.00  0.00    +0.000 A 
ATOM     18  H   UNL     1       2.142   5.656  21.618  0.00  0.00    +0.000 HD
ENDBRANCH   7  16
ENDBRANCH   1   7
BRANCH   4  19
ATOM     19  C   UNL     1       6.218   4.320  16.737  0.00  0.00    +0.000 C 
BRANCH  19  20
ATOM     20  C   UNL     1       6.503   4.364  15.251  0.00  0.00    +0.000 A 
ATOM     21  C   UNL     1       5.725   3.604  14.359  0.00  0.00    +0.000 A 
ATOM     22  C   UNL     1       5.980   3.646  12.988  0.00  0.00    +0.000 A 
ATOM     23  C   UNL     1       7.004   4.451  12.507  0.00  0.00    +0.000 A 
ATOM     24  F   UNL     1       7.246   4.493  11.191  0.00  0.00    +0.000 F 
ATOM     25  C   UNL     1       7.782   5.213  13.371  0.00  0.00    +0.000 A 
ATOM     26  C   UNL     1       7.533   5.170  14.744  0.00  0.00    +0.000 A 
ENDBRANCH  19  20
ENDBRANCH   4  19
TORSDOF 4
ENDMDL
MODEL 3
REMARK VINA RESULT:      -7.1      1.295      2.261
REMARK  Name = 
REMARK  6 active torsions:
REMARK  status: ('A' for Active; 'I' for Inactive)
REMARK    1  A    between atoms: C_1  and  C_2
REMARK    2  A    between atoms: C_4  and  C_5
REMARK    3  A    between atoms: N_8  and  C_9
REMARK    4  A    between atoms: C_9  and  N_11
REMARK    5  A    between atoms: N_14  and  C_15
REMARK    6  A    between atoms: C_15  and  C_16
REMARK                            x       y       z     vdW  Elec       q    Type
REMARK                         _______ _______ _______ _____ _____    ______ ____
ROOT
ATOM      1  N   UNL     1       3.884   6.262  18.834  0.00  0.00    +0.000 N 
ATOM      2  C   UNL     1       4.139   6.668  17.438  0.00  0.00    +0.000 C 
ATOM      3  C   UNL     1       5.634   6.616  17.050  0.00  0.00    +0.000 C 
ATOM      4  N   UNL     1       6.322   5.353  17.412  0.00  0.00    +0.000 NA
ATOM      5  C   UNL     1       6.106   5.124  18.859  0.00  0.00    +0.000 C 
ATOM      6  C   UNL     1       4.625   5.070  19.277  0.00  0.00    +0.000 C 
ENDROOT
BRANCH   1   7
ATOM      7  C   UNL     1       2.643   6.574  19.378  0.00  0.00    +0.000 C 
ATOM      8  S   UNL     1       1.808   5.601  20.460  0.00  0.00    +0.000 S 
BRANCH   7  16
ATOM      9  C   UNL     1       0.231   9.422  23.236  0.00  0.00    +0.000 C 
ATOM     10  C   UNL     1       0.437   9.565  21.761  0.00  0.00    +0.000 A 
ATOM     11  C   UNL     1      -0.000  10.675  21.047  0.00  0.00    +0.000 A 
ATOM     12  C   UNL     1       0.236  10.726  19.676  0.00  0.00    +0.000 A 
ATOM     13  C   UNL     1      -0.260  11.890  18.868  0.00  0.00    +0.000 C 
ATOM     14  N   UNL     1       0.910   9.754  19.005  0.00  0.00    +0.000 NA
ATOM     15  C   UNL     1       1.351   8.694  19.711  0.00  0.00    +0.000 A 
ATOM     16  N   UNL     1       2.038   7.727  18.963  0.00  0.00    +0.000 N 
ATOM     17  C   UNL     1       1.097   8.554  21.065  0.00  0.00    +0.000 A 
ATOM     18  H   UNL     1       1.865   7.817  17.970  0.00  0.00    +0.000 HD
ENDBRANCH   7  16
ENDBRANCH   1   7
BRANCH   4  19
ATOM     19  C   UNL     1       5.828   4.247  16.571  0.00  0.00    +0.000 C 
BRANCH  19  20
ATOM     20  C   UNL     1       6.267   4.314  15.124  0.00  0.00    +0.000 A 
ATOM     21  C   UNL     1       5.550   3.617  14.134  0.00  0.00    +0.000 A 
ATOM     22  C   UNL     1       5.946   3.681  12.799  0.00  0.00    +0.000 A 
ATOM     23  C   UNL     1       7.052   4.444  12.450  0.00  0.00    +0.000 A 
ATOM     24  F   UNL     1       7.431   4.506  11.167  0.00  0.00    +0.000 F 
ATOM     25  C   UNL     1       7.773   5.143  13.411  0.00  0.00    +0.000 A 
ATOM     26  C   UNL     1       7.382   5.078  14.749  0.00  0.00    +0.000 A 
ENDBRANCH  19  20
ENDBRANCH   4  19
TORSDOF 4
ENDMDL
MODEL 4
REMARK VINA RESULT:      -7.0      4.182      9.119
REMARK  Name = 
REMARK  6 active torsions:
REMARK  status: ('A' for Active; 'I' for Inactive)
REMARK    1  A    between atoms: C_1  and  C_2
REMARK    2  A    between atoms: C_4  and  C_5
REMARK    3  A    between atoms: N_8  and  C_9
REMARK    4  A    between atoms: C_9  and  N_11
REMARK    5  A    between atoms: N_14  and  C_15
REMARK    6  A    between atoms: C_15  and  C_16
REMARK                            x       y       z     vdW  Elec       q    Type
REMARK                         _______ _______ _______ _____ _____    ______ ____
ROOT
ATOM      1  N   UNL     1       2.267   7.407  19.065  0.00  0.00    +0.000 N 
ATOM      2  C   UNL     1       1.345   7.861  20.126  0.00  0.00    +0.000 C 
ATOM      3  C   UNL     1       1.282   9.399  20.262  0.00  0.00    +0.000 C 
ATOM      4  N   UNL     1       1.085  10.125  18.984  0.00  0.00    +0.000 NA
ATOM      5  C   UNL     1       2.145   9.684  18.050  0.00  0.00    +0.000 C 
ATOM      6  C   UNL     1       2.183   8.165  17.807  0.00  0.00    +0.000 C 
ENDROOT
BRANCH   1   7
ATOM      7  C   UNL     1       2.641   6.068  19.069  0.00  0.00    +0.000 C 
ATOM      8  S   UNL     1       2.507   5.048  20.395  0.00  0.00    +0.000 S 
BRANCH   7  16
ATOM      9  C   UNL     1       7.996   5.693  19.133  0.00  0.00    +0.000 C 
ATOM     10  C   UNL     1       6.904   5.366  18.163  0.00  0.00    +0.000 A 
ATOM     11  C   UNL     1       7.150   4.765  16.933  0.00  0.00    +0.000 A 
ATOM     12  C   UNL     1       6.073   4.493  16.093  0.00  0.00    +0.000 A 
ATOM     13  C   UNL     1       6.308   3.885  14.740  0.00  0.00    +0.000 C 
ATOM     14  N   UNL     1       4.785   4.756  16.435  0.00  0.00    +0.000 NA
ATOM     15  C   UNL     1       4.556   5.316  17.639  0.00  0.00    +0.000 A 
ATOM     16  N   UNL     1       3.206   5.561  17.934  0.00  0.00    +0.000 N 
ATOM     17  C   UNL     1       5.585   5.665  18.497  0.00  0.00    +0.000 A 
ATOM     18  H   UNL     1       2.626   5.547  17.104  0.00  0.00    +0.000 HD
ENDBRANCH   7  16
ENDBRANCH   1   7
BRANCH   4  19
ATOM     19  C   UNL     1      -0.277   9.884  18.469  0.00  0.00    +0.000 C 
BRANCH  19  20
ATOM     20  C   UNL     1      -1.325  10.844  18.991  0.00  0.00    +0.000 A 
ATOM     21  C   UNL     1      -1.058  11.635  20.124  0.00  0.00    +0.000 A 
ATOM     22  C   UNL     1      -2.017  12.525  20.605  0.00  0.00    +0.000 A 
ATOM     23  C   UNL     1      -3.239  12.631  19.954  0.00  0.00    +0.000 A 
ATOM     24  F   UNL     1      -4.160  13.487  20.416  0.00  0.00    +0.000 F 
ATOM     25  C   UNL     1      -3.522  11.862  18.831  0.00  0.00    +0.000 A 
ATOM     26  C   UNL     1      -2.566  10.967  18.349  0.00  0.00    +0.000 A 
ENDBRANCH  19  20
ENDBRANCH   4  19
TORSDOF 4
ENDMDL
MODEL 5
REMARK VINA RESULT:      -6.9      3.502      8.810
REMARK  Name = 
REMARK  6 active torsions:
REMARK  status: ('A' for Active; 'I' for Inactive)
REMARK    1  A    between atoms: C_1  and  C_2
REMARK    2  A    between atoms: C_4  and  C_5
REMARK    3  A    between atoms: N_8  and  C_9
REMARK    4  A    between atoms: C_9  and  N_11
REMARK    5  A    between atoms: N_14  and  C_15
REMARK    6  A    between atoms: C_15  and  C_16
REMARK                            x       y       z     vdW  Elec       q    Type
REMARK                         _______ _______ _______ _____ _____    ______ ____
ROOT
ATOM      1  N   UNL     1       4.766   4.720  17.836  0.00  0.00    +0.000 N 
ATOM      2  C   UNL     1       3.516   5.071  17.134  0.00  0.00    +0.000 C 
ATOM      3  C   UNL     1       2.289   5.144  18.070  0.00  0.00    +0.000 C 
ATOM      4  N   UNL     1       2.497   5.945  19.300  0.00  0.00    +0.000 NA
ATOM      5  C   UNL     1       3.699   5.414  19.984  0.00  0.00    +0.000 C 
ATOM      6  C   UNL     1       4.971   5.414  19.117  0.00  0.00    +0.000 C 
ENDROOT
BRANCH   1   7
ATOM      7  C   UNL     1       5.848   4.317  17.061  0.00  0.00    +0.000 C 
ATOM      8  S   UNL     1       7.453   4.631  17.434  0.00  0.00    +0.000 S 
BRANCH   7  16
ATOM      9  C   UNL     1       8.580   6.076  12.789  0.00  0.00    +0.000 C 
ATOM     10  C   UNL     1       7.568   5.007  13.054  0.00  0.00    +0.000 A 
ATOM     11  C   UNL     1       7.140   4.120  12.073  0.00  0.00    +0.000 A 
ATOM     12  C   UNL     1       6.195   3.153  12.409  0.00  0.00    +0.000 A 
ATOM     13  C   UNL     1       5.680   2.207  11.363  0.00  0.00    +0.000 C 
ATOM     14  N   UNL     1       5.696   3.013  13.665  0.00  0.00    +0.000 NA
ATOM     15  C   UNL     1       6.135   3.864  14.614  0.00  0.00    +0.000 A 
ATOM     16  N   UNL     1       5.584   3.667  15.889  0.00  0.00    +0.000 N 
ATOM     17  C   UNL     1       7.029   4.883  14.333  0.00  0.00    +0.000 A 
ATOM     18  H   UNL     1       4.738   3.111  15.858  0.00  0.00    +0.000 HD
ENDBRANCH   7  16
ENDBRANCH   1   7
BRANCH   4  19
ATOM     19  C   UNL     1       2.611   7.376  18.960  0.00  0.00    +0.000 C 
BRANCH  19  20
ATOM     20  C   UNL     1       1.645   8.276  19.701  0.00  0.00    +0.000 A 
ATOM     21  C   UNL     1       1.267   7.973  21.021  0.00  0.00    +0.000 A 
ATOM     22  C   UNL     1       0.382   8.802  21.710  0.00  0.00    +0.000 A 
ATOM     23  C   UNL     1      -0.120   9.936  21.084  0.00  0.00    +0.000 A 
ATOM     24  F   UNL     1      -0.969  10.732  21.747  0.00  0.00    +0.000 F 
ATOM     25  C   UNL     1       0.243  10.256  19.782  0.00  0.00    +0.000 A 
ATOM     26  C   UNL     1       1.125   9.426  19.088  0.00  0.00    +0.000 A 
ENDBRANCH  19  20
ENDBRANCH   4  19
TORSDOF 4
ENDMDL
MODEL 6
REMARK VINA RESULT:      -6.8      4.107      9.127
REMARK  Name = 
REMARK  6 active torsions:
REMARK  status: ('A' for Active; 'I' for Inactive)
REMARK    1  A    between atoms: C_1  and  C_2
REMARK    2  A    between atoms: C_4  and  C_5
REMARK    3  A    between atoms: N_8  and  C_9
REMARK    4  A    between atoms: C_9  and  N_11
REMARK    5  A    between atoms: N_14  and  C_15
REMARK    6  A    between atoms: C_15  and  C_16
REMARK                            x       y       z     vdW  Elec       q    Type
REMARK                         _______ _______ _______ _____ _____    ______ ____
ROOT
ATOM      1  N   UNL     1       2.288   7.136  19.363  0.00  0.00    +0.000 N 
ATOM      2  C   UNL     1       1.454   7.588  20.495  0.00  0.00    +0.000 C 
ATOM      3  C   UNL     1       1.431   9.123  20.662  0.00  0.00    +0.000 C 
ATOM      4  N   UNL     1       1.155   9.876  19.414  0.00  0.00    +0.000 NA
ATOM      5  C   UNL     1       2.137   9.433  18.397  0.00  0.00    +0.000 C 
ATOM      6  C   UNL     1       2.127   7.918  18.127  0.00  0.00    +0.000 C 
ENDROOT
BRANCH   1   7
ATOM      7  C   UNL     1       2.636   5.791  19.318  0.00  0.00    +0.000 C 
ATOM      8  S   UNL     1       2.484   4.727  20.606  0.00  0.00    +0.000 S 
BRANCH   7  16
ATOM      9  C   UNL     1       8.001   5.817  19.150  0.00  0.00    +0.000 C 
ATOM     10  C   UNL     1       6.896   5.398  18.231  0.00  0.00    +0.000 A 
ATOM     11  C   UNL     1       7.133   4.803  16.997  0.00  0.00    +0.000 A 
ATOM     12  C   UNL     1       6.045   4.442  16.207  0.00  0.00    +0.000 A 
ATOM     13  C   UNL     1       6.266   3.837  14.851  0.00  0.00    +0.000 C 
ATOM     14  N   UNL     1       4.756   4.612  16.603  0.00  0.00    +0.000 NA
ATOM     15  C   UNL     1       4.538   5.167  17.811  0.00  0.00    +0.000 A 
ATOM     16  N   UNL     1       3.187   5.315  18.163  0.00  0.00    +0.000 N 
ATOM     17  C   UNL     1       5.574   5.602  18.620  0.00  0.00    +0.000 A 
ATOM     18  H   UNL     1       2.575   5.248  17.360  0.00  0.00    +0.000 HD
ENDBRANCH   7  16
ENDBRANCH   1   7
BRANCH   4  19
ATOM     19  C   UNL     1      -0.244   9.669  18.995  0.00  0.00    +0.000 C 
BRANCH  19  20
ATOM     20  C   UNL     1      -1.195  10.769  19.418  0.00  0.00    +0.000 A 
ATOM     21  C   UNL     1      -2.288  11.112  18.602  0.00  0.00    +0.000 A 
ATOM     22  C   UNL     1      -3.170  12.119  18.990  0.00  0.00    +0.000 A 
ATOM     23  C   UNL     1      -2.966  12.781  20.193  0.00  0.00    +0.000 A 
ATOM     24  F   UNL     1      -3.815  13.748  20.566  0.00  0.00    +0.000 F 
ATOM     25  C   UNL     1      -1.895  12.456  21.017  0.00  0.00    +0.000 A 
ATOM     26  C   UNL     1      -1.007  11.451  20.630  0.00  0.00    +0.000 A 
ENDBRANCH  19  20
ENDBRANCH   4  19
TORSDOF 4
ENDMDL
MODEL 7
REMARK VINA RESULT:      -6.8      4.767      6.874
REMARK  Name = 
REMARK  6 active torsions:
REMARK  status: ('A' for Active; 'I' for Inactive)
REMARK    1  A    between atoms: C_1  and  C_2
REMARK    2  A    between atoms: C_4  and  C_5
REMARK    3  A    between atoms: N_8  and  C_9
REMARK    4  A    between atoms: C_9  and  N_11
REMARK    5  A    between atoms: N_14  and  C_15
REMARK    6  A    between atoms: C_15  and  C_16
REMARK                            x       y       z     vdW  Elec       q    Type
REMARK                         _______ _______ _______ _____ _____    ______ ____
ROOT
ATOM      1  N   UNL     1       0.846   9.559  19.475  0.00  0.00    +0.000 N 
ATOM      2  C   UNL     1       1.506   8.592  18.576  0.00  0.00    +0.000 C 
ATOM      3  C   UNL     1       2.554   7.710  19.290  0.00  0.00    +0.000 C 
ATOM      4  N   UNL     1       2.082   7.088  20.551  0.00  0.00    +0.000 NA
ATOM      5  C   UNL     1       1.568   8.171  21.420  0.00  0.00    +0.000 C 
ATOM      6  C   UNL     1       0.450   9.016  20.784  0.00  0.00    +0.000 C 
ENDROOT
BRANCH   1   7
ATOM      7  C   UNL     1       0.136  10.601  18.889  0.00  0.00    +0.000 C 
ATOM      8  S   UNL     1      -0.012  12.138  19.546  0.00  0.00    +0.000 S 
BRANCH   7  16
ATOM      9  C   UNL     1      -5.026  12.072  18.818  0.00  0.00    +0.000 C 
ATOM     10  C   UNL     1      -4.074  11.434  17.856  0.00  0.00    +0.000 A 
ATOM     11  C   UNL     1      -4.431  11.111  16.551  0.00  0.00    +0.000 A 
ATOM     12  C   UNL     1      -3.481  10.521  15.722  0.00  0.00    +0.000 A 
ATOM     13  C   UNL     1      -3.847  10.120  14.322  0.00  0.00    +0.000 C 
ATOM     14  N   UNL     1      -2.204  10.277  16.118  0.00  0.00    +0.000 NA
ATOM     15  C   UNL     1      -1.861  10.616  17.377  0.00  0.00    +0.000 A 
ATOM     16  N   UNL     1      -0.531  10.341  17.725  0.00  0.00    +0.000 N 
ATOM     17  C   UNL     1      -2.774  11.152  18.270  0.00  0.00    +0.000 A 
ATOM     18  H   UNL     1      -0.099   9.680  17.092  0.00  0.00    +0.000 HD
ENDBRANCH   7  16
ENDBRANCH   1   7
BRANCH   4  19
ATOM     19  C   UNL     1       1.073   6.053  20.259  0.00  0.00    +0.000 C 
BRANCH  19  20
ATOM     20  C   UNL     1       1.647   4.724  19.814  0.00  0.00    +0.000 A 
ATOM     21  C   UNL     1       2.245   3.863  20.751  0.00  0.00    +0.000 A 
ATOM     22  C   UNL     1       2.770   2.636  20.348  0.00  0.00    +0.000 A 
ATOM     23  C   UNL     1       2.693   2.265  19.011  0.00  0.00    +0.000 A 
ATOM     24  F   UNL     1       3.195   1.086  18.625  0.00  0.00    +0.000 F 
ATOM     25  C   UNL     1       2.102   3.100  18.069  0.00  0.00    +0.000 A 
ATOM     26  C   UNL     1       1.580   4.330  18.469  0.00  0.00    +0.000 A 
ENDBRANCH  19  20
ENDBRANCH   4  19
TORSDOF 4
ENDMDL
MODEL 8
REMARK VINA RESULT:      -6.7      4.963      7.453
REMARK  Name = 
REMARK  6 active torsions:
REMARK  status: ('A' for Active; 'I' for Inactive)
REMARK    1  A    between atoms: C_1  and  C_2
REMARK    2  A    between atoms: C_4  and  C_5
REMARK    3  A    between atoms: N_8  and  C_9
REMARK    4  A    between atoms: C_9  and  N_11
REMARK    5  A    between atoms: N_14  and  C_15
REMARK    6  A    between atoms: C_15  and  C_16
REMARK                            x       y       z     vdW  Elec       q    Type
REMARK                         _______ _______ _______ _____ _____    ______ ____
ROOT
ATOM      1  N   UNL     1      -0.247  10.707  20.544  0.00  0.00    +0.000 N 
ATOM      2  C   UNL     1       1.102  10.724  21.144  0.00  0.00    +0.000 C 
ATOM      3  C   UNL     1       1.382   9.507  22.054  0.00  0.00    +0.000 C 
ATOM      4  N   UNL     1       1.041   8.195  21.453  0.00  0.00    +0.000 NA
ATOM      5  C   UNL     1      -0.371   8.258  21.011  0.00  0.00    +0.000 C 
ATOM      6  C   UNL     1      -0.675   9.399  20.024  0.00  0.00    +0.000 C 
ENDROOT
BRANCH   1   7
ATOM      7  C   UNL     1      -0.715  11.888  19.980  0.00  0.00    +0.000 C 
ATOM      8  S   UNL     1       0.266  13.144  19.457  0.00  0.00    +0.000 S 
BRANCH   7  16
ATOM      9  C   UNL     1      -2.901  10.615  15.246  0.00  0.00    +0.000 C 
ATOM     10  C   UNL     1      -3.401  11.122  16.562  0.00  0.00    +0.000 A 
ATOM     11  C   UNL     1      -4.751  11.333  16.820  0.00  0.00    +0.000 A 
ATOM     12  C   UNL     1      -5.129  11.804  18.074  0.00  0.00    +0.000 A 
ATOM     13  C   UNL     1      -6.574  12.083  18.372  0.00  0.00    +0.000 C 
ATOM     14  N   UNL     1      -4.239  12.035  19.075  0.00  0.00    +0.000 NA
ATOM     15  C   UNL     1      -2.935  11.805  18.822  0.00  0.00    +0.000 A 
ATOM     16  N   UNL     1      -2.067  12.061  19.895  0.00  0.00    +0.000 N 
ATOM     17  C   UNL     1      -2.488  11.392  17.579  0.00  0.00    +0.000 A 
ATOM     18  H   UNL     1      -2.497  12.642  20.603  0.00  0.00    +0.000 HD
ENDBRANCH   7  16
ENDBRANCH   1   7
BRANCH   4  19
ATOM     19  C   UNL     1       1.976   7.882  20.356  0.00  0.00    +0.000 C 
BRANCH  19  20
ATOM     20  C   UNL     1       1.916   6.449  19.870  0.00  0.00    +0.000 A 
ATOM     21  C   UNL     1       2.158   6.150  18.517  0.00  0.00    +0.000 A 
ATOM     22  C   UNL     1       2.110   4.831  18.066  0.00  0.00    +0.000 A 
ATOM     23  C   UNL     1       1.827   3.811  18.965  0.00  0.00    +0.000 A 
ATOM     24  F   UNL     1       1.782   2.545  18.531  0.00  0.00    +0.000 F 
ATOM     25  C   UNL     1       1.588   4.084  20.306  0.00  0.00    +0.000 A 
ATOM     26  C   UNL     1       1.631   5.403  20.761  0.00  0.00    +0.000 A 
ENDBRANCH  19  20
ENDBRANCH   4  19
TORSDOF 4
ENDMDL
MODEL 9
REMARK VINA RESULT:      -6.6      2.988      7.485
REMARK  Name = 
REMARK  6 active torsions:
REMARK  status: ('A' for Active; 'I' for Inactive)
REMARK    1  A    between atoms: C_1  and  C_2
REMARK    2  A    between atoms: C_4  and  C_5
REMARK    3  A    between atoms: N_8  and  C_9
REMARK    4  A    between atoms: C_9  and  N_11
REMARK    5  A    between atoms: N_14  and  C_15
REMARK    6  A    between atoms: C_15  and  C_16
REMARK                            x       y       z     vdW  Elec       q    Type
REMARK                         _______ _______ _______ _____ _____    ______ ____
ROOT
ATOM      1  N   UNL     1       2.975   3.227  19.103  0.00  0.00    +0.000 N 
ATOM      2  C   UNL     1       2.288   4.277  18.324  0.00  0.00    +0.000 C 
ATOM      3  C   UNL     1       1.153   4.974  19.108  0.00  0.00    +0.000 C 
ATOM      4  N   UNL     1       1.530   5.426  20.469  0.00  0.00    +0.000 NA
ATOM      5  C   UNL     1       2.081   4.257  21.193  0.00  0.00    +0.000 C 
ATOM      6  C   UNL     1       3.280   3.589  20.495  0.00  0.00    +0.000 C 
ENDROOT
BRANCH   1   7
ATOM      7  C   UNL     1       3.778   2.332  18.405  0.00  0.00    +0.000 C 
ATOM      8  S   UNL     1       4.207   0.808  18.961  0.00  0.00    +0.000 S 
BRANCH   7  16
ATOM      9  C   UNL     1       7.679   6.007  18.725  0.00  0.00    +0.000 C 
ATOM     10  C   UNL     1       6.982   5.268  17.626  0.00  0.00    +0.000 A 
ATOM     11  C   UNL     1       7.333   5.410  16.288  0.00  0.00    +0.000 A 
ATOM     12  C   UNL     1       6.633   4.681  15.330  0.00  0.00    +0.000 A 
ATOM     13  C   UNL     1       6.958   4.844  13.874  0.00  0.00    +0.000 C 
ATOM     14  N   UNL     1       5.642   3.807  15.646  0.00  0.00    +0.000 NA
ATOM     15  C   UNL     1       5.326   3.658  16.948  0.00  0.00    +0.000 A 
ATOM     16  N   UNL     1       4.297   2.741  17.209  0.00  0.00    +0.000 N 
ATOM     17  C   UNL     1       5.943   4.396  17.944  0.00  0.00    +0.000 A 
ATOM     18  H   UNL     1       3.752   2.534  16.382  0.00  0.00    +0.000 HD
ENDBRANCH   7  16
ENDBRANCH   1   7
BRANCH   4  19
ATOM     19  C   UNL     1       2.477   6.554  20.385  0.00  0.00    +0.000 C 
BRANCH  19  20
ATOM     20  C   UNL     1       1.879   7.837  19.847  0.00  0.00    +0.000 A 
ATOM     21  C   UNL     1       2.131   8.233  18.521  0.00  0.00    +0.000 A 
ATOM     22  C   UNL     1       1.578   9.410  18.019  0.00  0.00    +0.000 A 
ATOM     23  C   UNL     1       0.770  10.189  18.837  0.00  0.00    +0.000 A 
ATOM     24  F   UNL     1       0.237  11.319  18.353  0.00  0.00    +0.000 F 
ATOM     25  C   UNL     1       0.505   9.814  20.149  0.00  0.00    +0.000 A 
ATOM     26  C   UNL     1       1.060   8.639  20.656  0.00  0.00    +0.000 A 
ENDBRANCH  19  20
ENDBRANCH   4  19
TORSDOF 4
ENDMDL
