MODEL 1
REMARK VINA RESULT:      -7.4      0.000      0.000
REMARK  Name = 
REMARK  7 active torsions:
REMARK  status: ('A' for Active; 'I' for Inactive)
REMARK    1  A    between atoms: C_1  and  C_2
REMARK    2  A    between atoms: C_2  and  C_3
REMARK    3  A    between atoms: C_6  and  C_7
REMARK    4  A    between atoms: C_7  and  N_8
REMARK    5  A    between atoms: N_8  and  C_9
REMARK    6  A    between atoms: N_8  and  C_10
REMARK    7  A    between atoms: C_12  and  C_13
REMARK                            x       y       z     vdW  Elec       q    Type
REMARK                         _______ _______ _______ _____ _____    ______ ____
ROOT
ATOM      1  N   UNL     1       5.477   4.203  15.966  0.00  0.00    +0.000 N 
ATOM      2  C   UNL     1       5.307   4.662  14.590  0.00  0.00    +0.000 C 
ENDROOT
BRANCH   1   3
ATOM      3  C   UNL     1       4.483   4.646  16.841  0.00  0.00    +0.000 A 
ATOM      4  N   UNL     1       4.235   5.971  16.991  0.00  0.00    +0.000 NA
ATOM      5  C   UNL     1       3.244   6.381  17.810  0.00  0.00    +0.000 A 
ATOM      6  C   UNL     1       2.983   7.854  17.902  0.00  0.00    +0.000 C 
ATOM      7  N   UNL     1       2.455   5.601  18.554  0.00  0.00    +0.000 NA
ATOM      8  C   UNL     1       2.748   4.299  18.433  0.00  0.00    +0.000 A 
ATOM      9  S   UNL     1       1.875   3.130  19.318  0.00  0.00    +0.000 S 
ATOM     10  C   UNL     1       2.822   1.856  18.688  0.00  0.00    +0.000 A 
ATOM     11  C   UNL     1       3.778   2.319  17.812  0.00  0.00    +0.000 A 
ATOM     12  C   UNL     1       3.727   3.746  17.627  0.00  0.00    +0.000 A 
ENDBRANCH   1   3
BRANCH   1  13
ATOM     13  C   UNL     1       6.852   4.150  16.490  0.00  0.00    +0.000 C 
BRANCH  13  17
ATOM     14  C   UNL     1       7.817   7.266  17.873  0.00  0.00    +0.000 A 
ATOM     15  N   UNL     1       7.984   6.552  18.965  0.00  0.00    +0.000 NA
ATOM     16  N   UNL     1       7.705   5.245  18.620  0.00  0.00    +0.000 NA
ATOM     17  C   UNL     1       7.387   5.258  17.340  0.00  0.00    +0.000 A 
ATOM     18  O   UNL     1       7.428   6.515  16.798  0.00  0.00    +0.000 OA
BRANCH  14  20
ATOM     19  C   UNL     1       8.812   9.355  18.748  0.00  0.00    +0.000 C 
ATOM     20  C   UNL     1       7.964   8.720  17.661  0.00  0.00    +0.000 C 
ENDBRANCH  14  20
ENDBRANCH  13  17
ENDBRANCH   1  13
TORSDOF 4
ENDMDL
MODEL 2
REMARK VINA RESULT:      -7.4      2.139      3.787
REMARK  Name = 
REMARK  7 active torsions:
REMARK  status: ('A' for Active; 'I' for Inactive)
REMARK    1  A    between atoms: C_1  and  C_2
REMARK    2  A    between atoms: C_2  and  C_3
REMARK    3  A    between atoms: C_6  and  C_7
REMARK    4  A    between atoms: C_7  and  N_8
REMARK    5  A    between atoms: N_8  and  C_9
REMARK    6  A    between atoms: N_8  and  C_10
REMARK    7  A    between atoms: C_12  and  C_13
REMARK                            x       y       z     vdW  Elec       q    Type
REMARK                         _______ _______ _______ _____ _____    ______ ____
ROOT
ATOM      1  N   UNL     1       6.080   5.412  17.965  0.00  0.00    +0.000 N 
ATOM      2  C   UNL     1       7.011   5.566  19.080  0.00  0.00    +0.000 C 
ENDROOT
BRANCH   1   3
ATOM      3  C   UNL     1       4.752   5.701  18.288  0.00  0.00    +0.000 A 
ATOM      4  N   UNL     1       4.206   6.898  17.961  0.00  0.00    +0.000 NA
ATOM      5  C   UNL     1       2.909   7.146  18.244  0.00  0.00    +0.000 A 
ATOM      6  C   UNL     1       2.345   8.467  17.818  0.00  0.00    +0.000 C 
ATOM      7  N   UNL     1       2.063   6.323  18.868  0.00  0.00    +0.000 NA
ATOM      8  C   UNL     1       2.633   5.166  19.230  0.00  0.00    +0.000 A 
ATOM      9  S   UNL     1       1.732   3.980  20.063  0.00  0.00    +0.000 S 
ATOM     10  C   UNL     1       3.085   2.945  20.181  0.00  0.00    +0.000 A 
ATOM     11  C   UNL     1       4.198   3.495  19.586  0.00  0.00    +0.000 A 
ATOM     12  C   UNL     1       3.941   4.782  18.995  0.00  0.00    +0.000 A 
ENDBRANCH   1   3
BRANCH   1  13
ATOM     13  C   UNL     1       6.313   4.285  17.047  0.00  0.00    +0.000 C 
BRANCH  13  17
ATOM     14  C   UNL     1       6.891   4.310  13.552  0.00  0.00    +0.000 A 
ATOM     15  N   UNL     1       7.627   5.362  13.839  0.00  0.00    +0.000 NA
ATOM     16  N   UNL     1       7.584   5.501  15.212  0.00  0.00    +0.000 NA
ATOM     17  C   UNL     1       6.822   4.522  15.662  0.00  0.00    +0.000 A 
ATOM     18  O   UNL     1       6.338   3.727  14.658  0.00  0.00    +0.000 OA
BRANCH  14  20
ATOM     19  C   UNL     1       5.107   3.317  12.154  0.00  0.00    +0.000 C 
ATOM     20  C   UNL     1       6.572   3.707  12.242  0.00  0.00    +0.000 C 
ENDBRANCH  14  20
ENDBRANCH  13  17
ENDBRANCH   1  13
TORSDOF 4
ENDMDL
MODEL 3
REMARK VINA RESULT:      -7.2      2.382      3.783
REMARK  Name = 
REMARK  7 active torsions:
REMARK  status: ('A' for Active; 'I' for Inactive)
REMARK    1  A    between atoms: C_1  and  C_2
REMARK    2  A    between atoms: C_2  and  C_3
REMARK    3  A    between atoms: C_6  and  C_7
REMARK    4  A    between atoms: C_7  and  N_8
REMARK    5  A    between atoms: N_8  and  C_9
REMARK    6  A    between atoms: N_8  and  C_10
REMARK    7  A    between atoms: C_12  and  C_13
REMARK                            x       y       z     vdW  Elec       q    Type
REMARK                         _______ _______ _______ _____ _____    ______ ____
ROOT
ATOM      1  N   UNL     1       4.399   5.783  17.087  0.00  0.00    +0.000 N 
ATOM      2  C   UNL     1       4.563   7.216  16.858  0.00  0.00    +0.000 C 
ENDROOT
BRANCH   1   3
ATOM      3  C   UNL     1       3.492   5.469  18.102  0.00  0.00    +0.000 A 
ATOM      4  N   UNL     1       3.065   6.423  18.966  0.00  0.00    +0.000 NA
ATOM      5  C   UNL     1       2.158   6.113  19.916  0.00  0.00    +0.000 A 
ATOM      6  C   UNL     1       1.686   7.216  20.814  0.00  0.00    +0.000 C 
ATOM      7  N   UNL     1       1.625   4.909  20.141  0.00  0.00    +0.000 NA
ATOM      8  C   UNL     1       2.097   3.968  19.312  0.00  0.00    +0.000 A 
ATOM      9  S   UNL     1       1.565   2.352  19.444  0.00  0.00    +0.000 S 
ATOM     10  C   UNL     1       2.593   1.845  18.178  0.00  0.00    +0.000 A 
ATOM     11  C   UNL     1       3.320   2.894  17.662  0.00  0.00    +0.000 A 
ATOM     12  C   UNL     1       3.017   4.151  18.294  0.00  0.00    +0.000 A 
ENDBRANCH   1   3
BRANCH   1  13
ATOM     13  C   UNL     1       5.606   4.946  16.988  0.00  0.00    +0.000 C 
BRANCH  13  17
ATOM     14  C   UNL     1       6.677   4.262  13.681  0.00  0.00    +0.000 A 
ATOM     15  N   UNL     1       7.589   5.170  13.956  0.00  0.00    +0.000 NA
ATOM     16  N   UNL     1       7.380   5.544  15.268  0.00  0.00    +0.000 NA
ATOM     17  C   UNL     1       6.353   4.836  15.698  0.00  0.00    +0.000 A 
ATOM     18  O   UNL     1       5.848   4.002  14.736  0.00  0.00    +0.000 OA
BRANCH  14  20
ATOM     19  C   UNL     1       4.938   3.476  12.106  0.00  0.00    +0.000 C 
ATOM     20  C   UNL     1       6.421   3.528  12.425  0.00  0.00    +0.000 C 
ENDBRANCH  14  20
ENDBRANCH  13  17
ENDBRANCH   1  13
TORSDOF 4
ENDMDL
MODEL 4
REMARK VINA RESULT:      -7.1      2.211      4.672
REMARK  Name = 
REMARK  7 active torsions:
REMARK  status: ('A' for Active; 'I' for Inactive)
REMARK    1  A    between atoms: C_1  and  C_2
REMARK    2  A    between atoms: C_2  and  C_3
REMARK    3  A    between atoms: C_6  and  C_7
REMARK    4  A    between atoms: C_7  and  N_8
REMARK    5  A    between atoms: N_8  and  C_9
REMARK    6  A    between atoms: N_8  and  C_10
REMARK    7  A    between atoms: C_12  and  C_13
REMARK                            x       y       z     vdW  Elec       q    Type
REMARK                         _______ _______ _______ _____ _____    ______ ____
ROOT
ATOM      1  N   UNL     1       6.849   5.455  17.876  0.00  0.00    +0.000 N 
ATOM      2  C   UNL     1       7.728   6.180  18.789  0.00  0.00    +0.000 C 
ENDROOT
BRANCH   1   3
ATOM      3  C   UNL     1       5.615   5.106  18.430  0.00  0.00    +0.000 A 
ATOM      4  N   UNL     1       5.452   3.915  19.056  0.00  0.00    +0.000 NA
ATOM      5  C   UNL     1       4.264   3.609  19.622  0.00  0.00    +0.000 A 
ATOM      6  C   UNL     1       4.153   2.300  20.342  0.00  0.00    +0.000 C 
ATOM      7  N   UNL     1       3.164   4.366  19.613  0.00  0.00    +0.000 NA
ATOM      8  C   UNL     1       3.329   5.516  18.946  0.00  0.00    +0.000 A 
ATOM      9  S   UNL     1       2.037   6.620  18.793  0.00  0.00    +0.000 S 
ATOM     10  C   UNL     1       2.979   7.687  17.850  0.00  0.00    +0.000 A 
ATOM     11  C   UNL     1       4.257   7.210  17.666  0.00  0.00    +0.000 A 
ATOM     12  C   UNL     1       4.488   5.954  18.330  0.00  0.00    +0.000 A 
ENDBRANCH   1   3
BRANCH   1  13
ATOM     13  C   UNL     1       7.479   4.472  16.978  0.00  0.00    +0.000 C 
BRANCH  13  17
ATOM     14  C   UNL     1       6.303   4.156  13.651  0.00  0.00    +0.000 A 
ATOM     15  N   UNL     1       7.134   5.152  13.429  0.00  0.00    +0.000 NA
ATOM     16  N   UNL     1       7.764   5.406  14.631  0.00  0.00    +0.000 NA
ATOM     17  C   UNL     1       7.269   4.546  15.500  0.00  0.00    +0.000 A 
ATOM     18  O   UNL     1       6.324   3.722  14.948  0.00  0.00    +0.000 OA
BRANCH  14  20
ATOM     19  C   UNL     1       6.097   2.558  11.773  0.00  0.00    +0.000 C 
ATOM     20  C   UNL     1       5.365   3.483  12.730  0.00  0.00    +0.000 C 
ENDBRANCH  14  20
ENDBRANCH  13  17
ENDBRANCH   1  13
TORSDOF 4
ENDMDL
MODEL 5
REMARK VINA RESULT:      -7.1      2.741      4.655
REMARK  Name = 
REMARK  7 active torsions:
REMARK  status: ('A' for Active; 'I' for Inactive)
REMARK    1  A    between atoms: C_1  and  C_2
REMARK    2  A    between atoms: C_2  and  C_3
REMARK    3  A    between atoms: C_6  and  C_7
REMARK    4  A    between atoms: C_7  and  N_8
REMARK    5  A    between atoms: N_8  and  C_9
REMARK    6  A    between atoms: N_8  and  C_10
REMARK    7  A    between atoms: C_12  and  C_13
REMARK                            x       y       z     vdW  Elec       q    Type
REMARK                         _______ _______ _______ _____ _____    ______ ____
ROOT
ATOM      1  N   UNL     1       5.385   5.204  18.066  0.00  0.00    +0.000 N 
ATOM      2  C   UNL     1       6.568   5.000  18.896  0.00  0.00    +0.000 C 
ENDROOT
BRANCH   1   3
ATOM      3  C   UNL     1       4.218   5.459  18.790  0.00  0.00    +0.000 A 
ATOM      4  N   UNL     1       3.760   4.563  19.699  0.00  0.00    +0.000 NA
ATOM      5  C   UNL     1       2.654   4.842  20.420  0.00  0.00    +0.000 A 
ATOM      6  C   UNL     1       2.220   3.838  21.444  0.00  0.00    +0.000 C 
ATOM      7  N   UNL     1       1.897   5.937  20.319  0.00  0.00    +0.000 NA
ATOM      8  C   UNL     1       2.334   6.787  19.380  0.00  0.00    +0.000 A 
ATOM      9  S   UNL     1       1.495   8.241  19.071  0.00  0.00    +0.000 S 
ATOM     10  C   UNL     1       2.576   8.670  17.820  0.00  0.00    +0.000 A 
ATOM     11  C   UNL     1       3.561   7.724  17.652  0.00  0.00    +0.000 A 
ATOM     12  C   UNL     1       3.452   6.629  18.581  0.00  0.00    +0.000 A 
ENDBRANCH   1   3
BRANCH   1  13
ATOM     13  C   UNL     1       5.255   4.361  16.866  0.00  0.00    +0.000 C 
BRANCH  13  17
ATOM     14  C   UNL     1       6.794   4.399  13.675  0.00  0.00    +0.000 A 
ATOM     15  N   UNL     1       7.562   5.312  14.230  0.00  0.00    +0.000 NA
ATOM     16  N   UNL     1       7.153   5.415  15.544  0.00  0.00    +0.000 NA
ATOM     17  C   UNL     1       6.163   4.557  15.695  0.00  0.00    +0.000 A 
ATOM     18  O   UNL     1       5.873   3.878  14.541  0.00  0.00    +0.000 OA
BRANCH  14  20
ATOM     19  C   UNL     1       5.517   3.092  12.007  0.00  0.00    +0.000 C 
ATOM     20  C   UNL     1       6.775   3.894  12.287  0.00  0.00    +0.000 C 
ENDBRANCH  14  20
ENDBRANCH  13  17
ENDBRANCH   1  13
TORSDOF 4
ENDMDL
MODEL 6
REMARK VINA RESULT:      -7.0      2.389      4.419
REMARK  Name = 
REMARK  7 active torsions:
REMARK  status: ('A' for Active; 'I' for Inactive)
REMARK    1  A    between atoms: C_1  and  C_2
REMARK    2  A    between atoms: C_2  and  C_3
REMARK    3  A    between atoms: C_6  and  C_7
REMARK    4  A    between atoms: C_7  and  N_8
REMARK    5  A    between atoms: N_8  and  C_9
REMARK    6  A    between atoms: N_8  and  C_10
REMARK    7  A    between atoms: C_12  and  C_13
REMARK                            x       y       z     vdW  Elec       q    Type
REMARK                         _______ _______ _______ _____ _____    ______ ____
ROOT
ATOM      1  N   UNL     1       5.880   5.829  18.787  0.00  0.00    +0.000 N 
ATOM      2  C   UNL     1       7.260   5.559  19.182  0.00  0.00    +0.000 C 
ENDROOT
BRANCH   1   3
ATOM      3  C   UNL     1       4.961   4.881  19.241  0.00  0.00    +0.000 A 
ATOM      4  N   UNL     1       5.283   3.564  19.268  0.00  0.00    +0.000 NA
ATOM      5  C   UNL     1       4.399   2.665  19.749  0.00  0.00    +0.000 A 
ATOM      6  C   UNL     1       4.824   1.229  19.799  0.00  0.00    +0.000 C 
ATOM      7  N   UNL     1       3.168   2.925  20.196  0.00  0.00    +0.000 NA
ATOM      8  C   UNL     1       2.847   4.223  20.114  0.00  0.00    +0.000 A 
ATOM      9  S   UNL     1       1.308   4.768  20.611  0.00  0.00    +0.000 S 
ATOM     10  C   UNL     1       1.667   6.378  20.169  0.00  0.00    +0.000 A 
ATOM     11  C   UNL     1       2.941   6.494  19.661  0.00  0.00    +0.000 A 
ATOM     12  C   UNL     1       3.658   5.245  19.652  0.00  0.00    +0.000 A 
ENDBRANCH   1   3
BRANCH   1  13
ATOM     13  C   UNL     1       5.665   6.372  17.435  0.00  0.00    +0.000 C 
BRANCH  13  17
ATOM     14  C   UNL     1       6.363   4.619  14.436  0.00  0.00    +0.000 A 
ATOM     15  N   UNL     1       7.525   5.229  14.535  0.00  0.00    +0.000 NA
ATOM     16  N   UNL     1       7.485   5.951  15.711  0.00  0.00    +0.000 NA
ATOM     17  C   UNL     1       6.299   5.728  16.245  0.00  0.00    +0.000 A 
ATOM     18  O   UNL     1       5.526   4.894  15.482  0.00  0.00    +0.000 OA
BRANCH  14  20
ATOM     19  C   UNL     1       6.772   3.710  12.172  0.00  0.00    +0.000 C 
ATOM     20  C   UNL     1       5.849   3.728  13.377  0.00  0.00    +0.000 C 
ENDBRANCH  14  20
ENDBRANCH  13  17
ENDBRANCH   1  13
TORSDOF 4
ENDMDL
MODEL 7
REMARK VINA RESULT:      -7.0      2.704      5.026
REMARK  Name = 
REMARK  7 active torsions:
REMARK  status: ('A' for Active; 'I' for Inactive)
REMARK    1  A    between atoms: C_1  and  C_2
REMARK    2  A    between atoms: C_2  and  C_3
REMARK    3  A    between atoms: C_6  and  C_7
REMARK    4  A    between atoms: C_7  and  N_8
REMARK    5  A    between atoms: N_8  and  C_9
REMARK    6  A    between atoms: N_8  and  C_10
REMARK    7  A    between atoms: C_12  and  C_13
REMARK                            x       y       z     vdW  Elec       q    Type
REMARK                         _______ _______ _______ _____ _____    ______ ____
ROOT
ATOM      1  N   UNL     1       4.056   3.410  18.500  0.00  0.00    +0.000 N 
ATOM      2  C   UNL     1       4.237   2.609  19.708  0.00  0.00    +0.000 C 
ENDROOT
BRANCH   1   3
ATOM      3  C   UNL     1       5.208   4.082  18.085  0.00  0.00    +0.000 A 
ATOM      4  N   UNL     1       6.043   4.646  18.992  0.00  0.00    +0.000 NA
ATOM      5  C   UNL     1       7.173   5.257  18.577  0.00  0.00    +0.000 A 
ATOM      6  C   UNL     1       8.084   5.821  19.624  0.00  0.00    +0.000 C 
ATOM      7  N   UNL     1       7.574   5.408  17.312  0.00  0.00    +0.000 NA
ATOM      8  C   UNL     1       6.711   4.890  16.427  0.00  0.00    +0.000 A 
ATOM      9  S   UNL     1       7.021   4.998  14.752  0.00  0.00    +0.000 S 
ATOM     10  C   UNL     1       5.551   4.218  14.368  0.00  0.00    +0.000 A 
ATOM     11  C   UNL     1       4.846   3.876  15.500  0.00  0.00    +0.000 A 
ATOM     12  C   UNL     1       5.528   4.235  16.716  0.00  0.00    +0.000 A 
ENDBRANCH   1   3
BRANCH   1  13
ATOM     13  C   UNL     1       2.777   4.126  18.356  0.00  0.00    +0.000 C 
BRANCH  13  17
ATOM     14  C   UNL     1       2.359   7.638  18.559  0.00  0.00    +0.000 A 
ATOM     15  N   UNL     1       2.204   7.388  19.841  0.00  0.00    +0.000 NA
ATOM     16  N   UNL     1       2.392   6.029  19.996  0.00  0.00    +0.000 NA
ATOM     17  C   UNL     1       2.647   5.549  18.794  0.00  0.00    +0.000 A 
ATOM     18  O   UNL     1       2.634   6.517  17.826  0.00  0.00    +0.000 OA
BRANCH  14  20
ATOM     19  C   UNL     1       0.978   9.655  18.177  0.00  0.00    +0.000 C 
ATOM     20  C   UNL     1       2.256   8.915  17.825  0.00  0.00    +0.000 C 
ENDBRANCH  14  20
ENDBRANCH  13  17
ENDBRANCH   1  13
TORSDOF 4
ENDMDL
MODEL 8
REMARK VINA RESULT:      -7.0      2.320      4.472
REMARK  Name = 
REMARK  7 active torsions:
REMARK  status: ('A' for Active; 'I' for Inactive)
REMARK    1  A    between atoms: C_1  and  C_2
REMARK    2  A    between atoms: C_2  and  C_3
REMARK    3  A    between atoms: C_6  and  C_7
REMARK    4  A    between atoms: C_7  and  N_8
REMARK    5  A    between atoms: N_8  and  C_9
REMARK    6  A    between atoms: N_8  and  C_10
REMARK    7  A    between atoms: C_12  and  C_13
REMARK                            x       y       z     vdW  Elec       q    Type
REMARK                         _______ _______ _______ _____ _____    ______ ____
ROOT
ATOM      1  N   UNL     1       5.246   5.751  17.866  0.00  0.00    +0.000 N 
ATOM      2  C   UNL     1       6.594   5.677  18.423  0.00  0.00    +0.000 C 
ENDROOT
BRANCH   1   3
ATOM      3  C   UNL     1       4.370   4.786  18.367  0.00  0.00    +0.000 A 
ATOM      4  N   UNL     1       4.519   3.479  18.035  0.00  0.00    +0.000 NA
ATOM      5  C   UNL     1       3.688   2.553  18.560  0.00  0.00    +0.000 A 
ATOM      6  C   UNL     1       3.928   1.119  18.197  0.00  0.00    +0.000 C 
ATOM      7  N   UNL     1       2.664   2.783  19.385  0.00  0.00    +0.000 NA
ATOM      8  C   UNL     1       2.499   4.084  19.660  0.00  0.00    +0.000 A 
ATOM      9  S   UNL     1       1.230   4.599  20.677  0.00  0.00    +0.000 S 
ATOM     10  C   UNL     1       1.657   6.241  20.483  0.00  0.00    +0.000 A 
ATOM     11  C   UNL     1       2.754   6.387  19.664  0.00  0.00    +0.000 A 
ATOM     12  C   UNL     1       3.279   5.129  19.199  0.00  0.00    +0.000 A 
ENDBRANCH   1   3
BRANCH   1  13
ATOM     13  C   UNL     1       5.128   6.082  16.436  0.00  0.00    +0.000 C 
BRANCH  13  17
ATOM     14  C   UNL     1       6.570   4.383  13.682  0.00  0.00    +0.000 A 
ATOM     15  N   UNL     1       7.664   5.000  14.075  0.00  0.00    +0.000 NA
ATOM     16  N   UNL     1       7.325   5.701  15.214  0.00  0.00    +0.000 NA
ATOM     17  C   UNL     1       6.046   5.461  15.433  0.00  0.00    +0.000 A 
ATOM     18  O   UNL     1       5.496   4.635  14.490  0.00  0.00    +0.000 OA
BRANCH  14  20
ATOM     19  C   UNL     1       4.879   3.468  12.125  0.00  0.00    +0.000 C 
ATOM     20  C   UNL     1       6.346   3.506  12.515  0.00  0.00    +0.000 C 
ENDBRANCH  14  20
ENDBRANCH  13  17
ENDBRANCH   1  13
TORSDOF 4
ENDMDL
MODEL 9
REMARK VINA RESULT:      -7.0      2.311      4.302
REMARK  Name = 
REMARK  7 active torsions:
REMARK  status: ('A' for Active; 'I' for Inactive)
REMARK    1  A    between atoms: C_1  and  C_2
REMARK    2  A    between atoms: C_2  and  C_3
REMARK    3  A    between atoms: C_6  and  C_7
REMARK    4  A    between atoms: C_7  and  N_8
REMARK    5  A    between atoms: N_8  and  C_9
REMARK    6  A    between atoms: N_8  and  C_10
REMARK    7  A    between atoms: C_12  and  C_13
REMARK                            x       y       z     vdW  Elec       q    Type
REMARK                         _______ _______ _______ _____ _____    ______ ____
ROOT
ATOM      1  N   UNL     1       5.544   5.578  18.729  0.00  0.00    +0.000 N 
ATOM      2  C   UNL     1       6.891   5.560  19.291  0.00  0.00    +0.000 C 
ENDROOT
BRANCH   1   3
ATOM      3  C   UNL     1       4.782   4.448  19.038  0.00  0.00    +0.000 A 
ATOM      4  N   UNL     1       5.330   3.411  19.718  0.00  0.00    +0.000 NA
ATOM      5  C   UNL     1       4.570   2.344  20.045  0.00  0.00    +0.000 A 
ATOM      6  C   UNL     1       5.215   1.248  20.837  0.00  0.00    +0.000 C 
ATOM      7  N   UNL     1       3.284   2.163  19.736  0.00  0.00    +0.000 NA
ATOM      8  C   UNL     1       2.773   3.174  19.020  0.00  0.00    +0.000 A 
ATOM      9  S   UNL     1       1.148   3.131  18.499  0.00  0.00    +0.000 S 
ATOM     10  C   UNL     1       1.305   4.624  17.687  0.00  0.00    +0.000 A 
ATOM     11  C   UNL     1       2.572   5.146  17.821  0.00  0.00    +0.000 A 
ATOM     12  C   UNL     1       3.435   4.323  18.627  0.00  0.00    +0.000 A 
ENDBRANCH   1   3
BRANCH   1  13
ATOM     13  C   UNL     1       5.389   6.137  17.376  0.00  0.00    +0.000 C 
BRANCH  13  17
ATOM     14  C   UNL     1       6.433   4.531  14.395  0.00  0.00    +0.000 A 
ATOM     15  N   UNL     1       7.547   5.197  14.612  0.00  0.00    +0.000 NA
ATOM     16  N   UNL     1       7.368   5.873  15.803  0.00  0.00    +0.000 NA
ATOM     17  C   UNL     1       6.156   5.569  16.225  0.00  0.00    +0.000 A 
ATOM     18  O   UNL     1       5.496   4.724  15.373  0.00  0.00    +0.000 OA
BRANCH  14  20
ATOM     19  C   UNL     1       6.932   3.912  12.052  0.00  0.00    +0.000 C 
ATOM     20  C   UNL     1       6.060   3.653  13.268  0.00  0.00    +0.000 C 
ENDBRANCH  14  20
ENDBRANCH  13  17
ENDBRANCH   1  13
TORSDOF 4
ENDMDL
