MODEL 1
REMARK VINA RESULT:      -6.7      0.000      0.000
REMARK  Name = 
REMARK  7 active torsions:
REMARK  status: ('A' for Active; 'I' for Inactive)
REMARK    1  A    between atoms: C_1  and  O_2
REMARK    2  A    between atoms: O_2  and  C_3
REMARK    3  A    between atoms: C_6  and  N_7
REMARK    4  A    between atoms: C_14  and  O_15
REMARK    5  A    between atoms: O_15  and  C_16
REMARK    6  A    between atoms: N_20  and  C_21
REMARK    7  A    between atoms: N_22  and  C_23
REMARK                            x       y       z     vdW  Elec       q    Type
REMARK                         _______ _______ _______ _____ _____    ______ ____
ROOT
ATOM      1  N   UNL     1       1.390   8.602  19.545  0.00  0.00    +0.000 N 
ATOM      2  C   UNL     1       2.101   8.494  18.331  0.00  0.00    +0.000 A 
ATOM      3  O   UNL     1       2.157   9.341  17.439  0.00  0.00    +0.000 OA
ATOM      4  C   UNL     1       2.856   7.292  18.215  0.00  0.00    +0.000 A 
ATOM      5  C   UNL     1       3.069   6.425  19.256  0.00  0.00    +0.000 A 
ATOM      6  C   UNL     1       4.157   5.628  18.866  0.00  0.00    +0.000 A 
ATOM      7  C   UNL     1       5.437   5.224  19.288  0.00  0.00    +0.000 A 
ATOM      8  C   UNL     1       6.204   4.494  18.358  0.00  0.00    +0.000 A 
ATOM      9  C   UNL     1       5.600   3.899  17.245  0.00  0.00    +0.000 A 
ATOM     10  C   UNL     1       4.371   4.357  16.785  0.00  0.00    +0.000 A 
ATOM     11  C   UNL     1       3.854   5.420  17.516  0.00  0.00    +0.000 A 
ATOM     12  N   UNL     1       3.546   6.735  17.149  0.00  0.00    +0.000 N 
ATOM     13  C   UNL     1       4.462   7.467  16.283  0.00  0.00    +0.000 C 
ATOM     14  N   UNL     1       2.232   6.467  20.354  0.00  0.00    +0.000 N 
ATOM     15  C   UNL     1       1.907   5.234  21.047  0.00  0.00    +0.000 C 
ATOM     16  C   UNL     1       1.247   7.486  20.416  0.00  0.00    +0.000 A 
ATOM     17  O   UNL     1       0.277   7.328  21.166  0.00  0.00    +0.000 OA
ENDROOT
BRANCH   1  21
ATOM     18  C   UNL     1      -0.979  12.059  20.612  0.00  0.00    +0.000 A 
ATOM     19  C   UNL     1      -1.320  11.291  19.502  0.00  0.00    +0.000 A 
ATOM     20  C   UNL     1      -0.552  10.171  19.128  0.00  0.00    +0.000 A 
ATOM     21  C   UNL     1       0.592   9.794  19.848  0.00  0.00    +0.000 A 
ATOM     22  C   UNL     1       0.959  10.647  20.908  0.00  0.00    +0.000 A 
ATOM     23  C   UNL     1       0.181  11.746  21.300  0.00  0.00    +0.000 A 
BRANCH  18  25
ATOM     24  C   UNL     1      -3.157  12.957  20.426  0.00  0.00    +0.000 C 
ATOM     25  O   UNL     1      -1.819  13.096  20.907  0.00  0.00    +0.000 OA
ENDBRANCH  18  25
ENDBRANCH   1  21
BRANCH   8  26
ATOM     26  O   UNL     1       7.568   4.483  18.533  0.00  0.00    +0.000 OA
ATOM     27  C   UNL     1       8.077   5.682  19.146  0.00  0.00    +0.000 C 
ENDBRANCH   8  26
TORSDOF 3
ENDMDL
MODEL 2
REMARK VINA RESULT:      -6.6      0.563      1.105
REMARK  Name = 
REMARK  7 active torsions:
REMARK  status: ('A' for Active; 'I' for Inactive)
REMARK    1  A    between atoms: C_1  and  O_2
REMARK    2  A    between atoms: O_2  and  C_3
REMARK    3  A    between atoms: C_6  and  N_7
REMARK    4  A    between atoms: C_14  and  O_15
REMARK    5  A    between atoms: O_15  and  C_16
REMARK    6  A    between atoms: N_20  and  C_21
REMARK    7  A    between atoms: N_22  and  C_23
REMARK                            x       y       z     vdW  Elec       q    Type
REMARK                         _______ _______ _______ _____ _____    ______ ____
ROOT
ATOM      1  N   UNL     1       1.408   8.722  19.538  0.00  0.00    +0.000 N 
ATOM      2  C   UNL     1       2.111   8.583  18.323  0.00  0.00    +0.000 A 
ATOM      3  O   UNL     1       2.183   9.418  17.421  0.00  0.00    +0.000 OA
ATOM      4  C   UNL     1       2.839   7.363  18.218  0.00  0.00    +0.000 A 
ATOM      5  C   UNL     1       3.036   6.504  19.269  0.00  0.00    +0.000 A 
ATOM      6  C   UNL     1       4.104   5.678  18.884  0.00  0.00    +0.000 A 
ATOM      7  C   UNL     1       5.376   5.249  19.306  0.00  0.00    +0.000 A 
ATOM      8  C   UNL     1       6.123   4.492  18.381  0.00  0.00    +0.000 A 
ATOM      9  C   UNL     1       5.501   3.897  17.278  0.00  0.00    +0.000 A 
ATOM     10  C   UNL     1       4.281   4.378  16.817  0.00  0.00    +0.000 A 
ATOM     11  C   UNL     1       3.791   5.461  17.538  0.00  0.00    +0.000 A 
ATOM     12  N   UNL     1       3.511   6.779  17.156  0.00  0.00    +0.000 N 
ATOM     13  C   UNL     1       4.440   7.479  16.278  0.00  0.00    +0.000 C 
ATOM     14  N   UNL     1       2.204   6.577  20.369  0.00  0.00    +0.000 N 
ATOM     15  C   UNL     1       1.854   5.360  21.078  0.00  0.00    +0.000 C 
ATOM     16  C   UNL     1       1.244   7.619  20.423  0.00  0.00    +0.000 A 
ATOM     17  O   UNL     1       0.273   7.492  21.179  0.00  0.00    +0.000 OA
ENDROOT
BRANCH   1  21
ATOM     18  C   UNL     1      -0.860  12.340  20.220  0.00  0.00    +0.000 A 
ATOM     19  C   UNL     1       0.279  12.074  20.974  0.00  0.00    +0.000 A 
ATOM     20  C   UNL     1       1.022  10.893  20.780  0.00  0.00    +0.000 A 
ATOM     21  C   UNL     1       0.638   9.935  19.830  0.00  0.00    +0.000 A 
ATOM     22  C   UNL     1      -0.569  10.194  19.150  0.00  0.00    +0.000 A 
ATOM     23  C   UNL     1      -1.295  11.380  19.322  0.00  0.00    +0.000 A 
BRANCH  18  25
ATOM     24  C   UNL     1      -0.715  14.697  20.138  0.00  0.00    +0.000 C 
ATOM     25  O   UNL     1      -1.478  13.534  20.464  0.00  0.00    +0.000 OA
ENDBRANCH  18  25
ENDBRANCH   1  21
BRANCH   8  26
ATOM     26  O   UNL     1       7.487   4.451  18.551  0.00  0.00    +0.000 OA
ATOM     27  C   UNL     1       8.020   5.628  19.187  0.00  0.00    +0.000 C 
ENDBRANCH   8  26
TORSDOF 3
ENDMDL
MODEL 3
REMARK VINA RESULT:      -6.3      3.039      9.882
REMARK  Name = 
REMARK  7 active torsions:
REMARK  status: ('A' for Active; 'I' for Inactive)
REMARK    1  A    between atoms: C_1  and  O_2
REMARK    2  A    between atoms: O_2  and  C_3
REMARK    3  A    between atoms: C_6  and  N_7
REMARK    4  A    between atoms: C_14  and  O_15
REMARK    5  A    between atoms: O_15  and  C_16
REMARK    6  A    between atoms: N_20  and  C_21
REMARK    7  A    between atoms: N_22  and  C_23
REMARK                            x       y       z     vdW  Elec       q    Type
REMARK                         _______ _______ _______ _____ _____    ______ ____
ROOT
ATOM      1  N   UNL     1      -0.633  10.973  20.175  0.00  0.00    +0.000 N 
ATOM      2  C   UNL     1      -1.812  11.197  19.433  0.00  0.00    +0.000 A 
ATOM      3  O   UNL     1      -2.115  10.665  18.365  0.00  0.00    +0.000 OA
ATOM      4  C   UNL     1      -2.727  12.086  20.066  0.00  0.00    +0.000 A 
ATOM      5  C   UNL     1      -2.598  12.510  21.364  0.00  0.00    +0.000 A 
ATOM      6  C   UNL     1      -3.861  13.007  21.724  0.00  0.00    +0.000 A 
ATOM      7  C   UNL     1      -4.872  12.858  22.692  0.00  0.00    +0.000 A 
ATOM      8  C   UNL     1      -6.078  13.546  22.453  0.00  0.00    +0.000 A 
ATOM      9  C   UNL     1      -6.131  14.590  21.523  0.00  0.00    +0.000 A 
ATOM     10  C   UNL     1      -5.174  14.686  20.520  0.00  0.00    +0.000 A 
ATOM     11  C   UNL     1      -4.221  13.674  20.549  0.00  0.00    +0.000 A 
ATOM     12  N   UNL     1      -3.896  12.681  19.617  0.00  0.00    +0.000 N 
ATOM     13  C   UNL     1      -4.966  11.979  18.919  0.00  0.00    +0.000 C 
ATOM     14  N   UNL     1      -1.369  12.420  21.988  0.00  0.00    +0.000 N 
ATOM     15  C   UNL     1      -0.979  13.442  22.942  0.00  0.00    +0.000 C 
ATOM     16  C   UNL     1      -0.306  11.783  21.299  0.00  0.00    +0.000 A 
ATOM     17  O   UNL     1       0.855  12.013  21.657  0.00  0.00    +0.000 OA
ENDROOT
BRANCH   1  21
ATOM     18  C   UNL     1       2.319   8.240  18.588  0.00  0.00    +0.000 A 
ATOM     19  C   UNL     1       1.790   8.040  19.860  0.00  0.00    +0.000 A 
ATOM     20  C   UNL     1       0.840   8.928  20.402  0.00  0.00    +0.000 A 
ATOM     21  C   UNL     1       0.401  10.053  19.689  0.00  0.00    +0.000 A 
ATOM     22  C   UNL     1       1.025  10.275  18.445  0.00  0.00    +0.000 A 
ATOM     23  C   UNL     1       1.950   9.379  17.892  0.00  0.00    +0.000 A 
BRANCH  18  25
ATOM     24  C   UNL     1       2.717   5.950  18.164  0.00  0.00    +0.000 C 
ATOM     25  O   UNL     1       3.201   7.294  18.147  0.00  0.00    +0.000 OA
ENDBRANCH  18  25
ENDBRANCH   1  21
BRANCH   8  26
ATOM     26  O   UNL     1      -7.207  13.084  23.087  0.00  0.00    +0.000 OA
ATOM     27  C   UNL     1      -7.524  13.806  24.292  0.00  0.00    +0.000 C 
ENDBRANCH   8  26
TORSDOF 3
ENDMDL
MODEL 4
REMARK VINA RESULT:      -6.1      2.964      9.868
REMARK  Name = 
REMARK  7 active torsions:
REMARK  status: ('A' for Active; 'I' for Inactive)
REMARK    1  A    between atoms: C_1  and  O_2
REMARK    2  A    between atoms: O_2  and  C_3
REMARK    3  A    between atoms: C_6  and  N_7
REMARK    4  A    between atoms: C_14  and  O_15
REMARK    5  A    between atoms: O_15  and  C_16
REMARK    6  A    between atoms: N_20  and  C_21
REMARK    7  A    between atoms: N_22  and  C_23
REMARK                            x       y       z     vdW  Elec       q    Type
REMARK                         _______ _______ _______ _____ _____    ______ ____
ROOT
ATOM      1  N   UNL     1      -0.500  10.998  20.065  0.00  0.00    +0.000 N 
ATOM      2  C   UNL     1      -1.765  11.206  19.477  0.00  0.00    +0.000 A 
ATOM      3  O   UNL     1      -2.228  10.606  18.506  0.00  0.00    +0.000 OA
ATOM      4  C   UNL     1      -2.561  12.173  20.156  0.00  0.00    +0.000 A 
ATOM      5  C   UNL     1      -2.242  12.689  21.386  0.00  0.00    +0.000 A 
ATOM      6  C   UNL     1      -3.429  13.257  21.874  0.00  0.00    +0.000 A 
ATOM      7  C   UNL     1      -4.299  13.217  22.980  0.00  0.00    +0.000 A 
ATOM      8  C   UNL     1      -5.509  13.928  22.855  0.00  0.00    +0.000 A 
ATOM      9  C   UNL     1      -5.666  14.900  21.860  0.00  0.00    +0.000 A 
ATOM     10  C   UNL     1      -4.855  14.885  20.732  0.00  0.00    +0.000 A 
ATOM     11  C   UNL     1      -3.934  13.845  20.710  0.00  0.00    +0.000 A 
ATOM     12  N   UNL     1      -3.766  12.773  19.825  0.00  0.00    +0.000 N 
ATOM     13  C   UNL     1      -4.940  12.059  19.338  0.00  0.00    +0.000 C 
ATOM     14  N   UNL     1      -0.941  12.603  21.840  0.00  0.00    +0.000 N 
ATOM     15  C   UNL     1      -0.396  13.680  22.647  0.00  0.00    +0.000 C 
ATOM     16  C   UNL     1       0.000  11.878  21.066  0.00  0.00    +0.000 A 
ATOM     17  O   UNL     1       1.205  12.093  21.242  0.00  0.00    +0.000 OA
ENDROOT
BRANCH   1  21
ATOM     18  C   UNL     1       2.360   8.106  18.595  0.00  0.00    +0.000 A 
ATOM     19  C   UNL     1       1.890   9.114  17.759  0.00  0.00    +0.000 A 
ATOM     20  C   UNL     1       0.945  10.056  18.213  0.00  0.00    +0.000 A 
ATOM     21  C   UNL     1       0.432  10.007  19.518  0.00  0.00    +0.000 A 
ATOM     22  C   UNL     1       0.860   8.920  20.306  0.00  0.00    +0.000 A 
ATOM     23  C   UNL     1       1.821   7.998  19.866  0.00  0.00    +0.000 A 
BRANCH  18  25
ATOM     24  C   UNL     1       2.989   5.882  18.104  0.00  0.00    +0.000 C 
ATOM     25  O   UNL     1       3.305   7.274  18.063  0.00  0.00    +0.000 OA
ENDBRANCH  18  25
ENDBRANCH   1  21
BRANCH   8  26
ATOM     26  O   UNL     1      -6.550  13.556  23.673  0.00  0.00    +0.000 OA
ATOM     27  C   UNL     1      -7.534  14.591  23.854  0.00  0.00    +0.000 C 
ENDBRANCH   8  26
TORSDOF 3
ENDMDL
MODEL 5
REMARK VINA RESULT:      -5.9      1.778      3.427
REMARK  Name = 
REMARK  7 active torsions:
REMARK  status: ('A' for Active; 'I' for Inactive)
REMARK    1  A    between atoms: C_1  and  O_2
REMARK    2  A    between atoms: O_2  and  C_3
REMARK    3  A    between atoms: C_6  and  N_7
REMARK    4  A    between atoms: C_14  and  O_15
REMARK    5  A    between atoms: O_15  and  C_16
REMARK    6  A    between atoms: N_20  and  C_21
REMARK    7  A    between atoms: N_22  and  C_23
REMARK                            x       y       z     vdW  Elec       q    Type
REMARK                         _______ _______ _______ _____ _____    ______ ____
ROOT
ATOM      1  N   UNL     1       1.395   9.025  19.311  0.00  0.00    +0.000 N 
ATOM      2  C   UNL     1       1.543   7.990  20.258  0.00  0.00    +0.000 A 
ATOM      3  O   UNL     1       1.035   7.945  21.377  0.00  0.00    +0.000 OA
ATOM      4  C   UNL     1       2.317   6.890  19.787  0.00  0.00    +0.000 A 
ATOM      5  C   UNL     1       2.693   6.732  18.478  0.00  0.00    +0.000 A 
ATOM      6  C   UNL     1       3.057   5.382  18.352  0.00  0.00    +0.000 A 
ATOM      7  C   UNL     1       2.773   4.227  17.599  0.00  0.00    +0.000 A 
ATOM      8  C   UNL     1       3.360   3.025  18.045  0.00  0.00    +0.000 A 
ATOM      9  C   UNL     1       4.435   3.046  18.940  0.00  0.00    +0.000 A 
ATOM     10  C   UNL     1       4.662   4.160  19.739  0.00  0.00    +0.000 A 
ATOM     11  C   UNL     1       3.740   5.184  19.557  0.00  0.00    +0.000 A 
ATOM     12  N   UNL     1       2.823   5.774  20.435  0.00  0.00    +0.000 N 
ATOM     13  C   UNL     1       2.059   4.927  21.343  0.00  0.00    +0.000 C 
ATOM     14  N   UNL     1       2.686   7.825  17.634  0.00  0.00    +0.000 N 
ATOM     15  C   UNL     1       3.696   7.928  16.596  0.00  0.00    +0.000 C 
ATOM     16  C   UNL     1       2.179   9.055  18.124  0.00  0.00    +0.000 A 
ATOM     17  O   UNL     1       2.498  10.101  17.545  0.00  0.00    +0.000 OA
ENDROOT
BRANCH   1  21
ATOM     18  C   UNL     1      -0.979  12.569  20.027  0.00  0.00    +0.000 A 
ATOM     19  C   UNL     1       0.230  12.389  20.693  0.00  0.00    +0.000 A 
ATOM     20  C   UNL     1       1.010  11.233  20.487  0.00  0.00    +0.000 A 
ATOM     21  C   UNL     1       0.595  10.216  19.615  0.00  0.00    +0.000 A 
ATOM     22  C   UNL     1      -0.676  10.389  19.029  0.00  0.00    +0.000 A 
ATOM     23  C   UNL     1      -1.441  11.550  19.211  0.00  0.00    +0.000 A 
BRANCH  18  25
ATOM     24  C   UNL     1      -0.844  14.926  20.108  0.00  0.00    +0.000 C 
ATOM     25  O   UNL     1      -1.631  13.745  20.271  0.00  0.00    +0.000 OA
ENDBRANCH  18  25
ENDBRANCH   1  21
BRANCH   8  26
ATOM     26  O   UNL     1       2.769   1.848  17.651  0.00  0.00    +0.000 OA
ATOM     27  C   UNL     1       1.649   1.466  18.471  0.00  0.00    +0.000 C 
ENDBRANCH   8  26
TORSDOF 3
ENDMDL
MODEL 6
REMARK VINA RESULT:      -5.9      1.635      3.218
REMARK  Name = 
REMARK  7 active torsions:
REMARK  status: ('A' for Active; 'I' for Inactive)
REMARK    1  A    between atoms: C_1  and  O_2
REMARK    2  A    between atoms: O_2  and  C_3
REMARK    3  A    between atoms: C_6  and  N_7
REMARK    4  A    between atoms: C_14  and  O_15
REMARK    5  A    between atoms: O_15  and  C_16
REMARK    6  A    between atoms: N_20  and  C_21
REMARK    7  A    between atoms: N_22  and  C_23
REMARK                            x       y       z     vdW  Elec       q    Type
REMARK                         _______ _______ _______ _____ _____    ______ ____
ROOT
ATOM      1  N   UNL     1       1.360   8.993  19.247  0.00  0.00    +0.000 N 
ATOM      2  C   UNL     1       1.521   7.971  20.206  0.00  0.00    +0.000 A 
ATOM      3  O   UNL     1       0.997   7.923  21.319  0.00  0.00    +0.000 OA
ATOM      4  C   UNL     1       2.328   6.887  19.756  0.00  0.00    +0.000 A 
ATOM      5  C   UNL     1       2.727   6.726  18.454  0.00  0.00    +0.000 A 
ATOM      6  C   UNL     1       3.126   5.385  18.346  0.00  0.00    +0.000 A 
ATOM      7  C   UNL     1       2.883   4.216  17.600  0.00  0.00    +0.000 A 
ATOM      8  C   UNL     1       3.493   3.034  18.065  0.00  0.00    +0.000 A 
ATOM      9  C   UNL     1       4.555   3.090  18.975  0.00  0.00    +0.000 A 
ATOM     10  C   UNL     1       4.742   4.217  19.767  0.00  0.00    +0.000 A 
ATOM     11  C   UNL     1       3.797   5.216  19.562  0.00  0.00    +0.000 A 
ATOM     12  N   UNL     1       2.853   5.790  20.422  0.00  0.00    +0.000 N 
ATOM     13  C   UNL     1       2.098   4.932  21.327  0.00  0.00    +0.000 C 
ATOM     14  N   UNL     1       2.705   7.811  17.600  0.00  0.00    +0.000 N 
ATOM     15  C   UNL     1       3.727   7.930  16.576  0.00  0.00    +0.000 C 
ATOM     16  C   UNL     1       2.160   9.033  18.071  0.00  0.00    +0.000 A 
ATOM     17  O   UNL     1       2.460  10.081  17.487  0.00  0.00    +0.000 OA
ENDROOT
BRANCH   1  21
ATOM     18  C   UNL     1      -1.087  12.414  20.257  0.00  0.00    +0.000 A 
ATOM     19  C   UNL     1      -1.516  11.505  19.293  0.00  0.00    +0.000 A 
ATOM     20  C   UNL     1      -0.726  10.393  18.938  0.00  0.00    +0.000 A 
ATOM     21  C   UNL     1       0.526  10.166  19.529  0.00  0.00    +0.000 A 
ATOM     22  C   UNL     1       0.968  11.155  20.431  0.00  0.00    +0.000 A 
ATOM     23  C   UNL     1       0.172  12.247  20.807  0.00  0.00    +0.000 A 
BRANCH  18  25
ATOM     24  C   UNL     1      -3.244  13.022  21.006  0.00  0.00    +0.000 C 
ATOM     25  O   UNL     1      -1.952  13.430  20.552  0.00  0.00    +0.000 OA
ENDBRANCH  18  25
ENDBRANCH   1  21
BRANCH   8  26
ATOM     26  O   UNL     1       2.938   1.839  17.674  0.00  0.00    +0.000 OA
ATOM     27  C   UNL     1       1.771   1.473  18.433  0.00  0.00    +0.000 C 
ENDBRANCH   8  26
TORSDOF 3
ENDMDL
MODEL 7
REMARK VINA RESULT:      -5.9      2.178      8.498
REMARK  Name = 
REMARK  7 active torsions:
REMARK  status: ('A' for Active; 'I' for Inactive)
REMARK    1  A    between atoms: C_1  and  O_2
REMARK    2  A    between atoms: O_2  and  C_3
REMARK    3  A    between atoms: C_6  and  N_7
REMARK    4  A    between atoms: C_14  and  O_15
REMARK    5  A    between atoms: O_15  and  C_16
REMARK    6  A    between atoms: N_20  and  C_21
REMARK    7  A    between atoms: N_22  and  C_23
REMARK                            x       y       z     vdW  Elec       q    Type
REMARK                         _______ _______ _______ _____ _____    ______ ____
ROOT
ATOM      1  N   UNL     1       1.402   8.718  19.432  0.00  0.00    +0.000 N 
ATOM      2  C   UNL     1       1.033   8.649  20.792  0.00  0.00    +0.000 A 
ATOM      3  O   UNL     1       1.371   7.784  21.599  0.00  0.00    +0.000 OA
ATOM      4  C   UNL     1       0.242   9.752  21.227  0.00  0.00    +0.000 A 
ATOM      5  C   UNL     1       0.044  10.885  20.481  0.00  0.00    +0.000 A 
ATOM      6  C   UNL     1      -0.412  11.856  21.386  0.00  0.00    +0.000 A 
ATOM      7  C   UNL     1      -0.125  13.152  21.853  0.00  0.00    +0.000 A 
ATOM      8  C   UNL     1      -0.869  13.600  22.963  0.00  0.00    +0.000 A 
ATOM      9  C   UNL     1      -2.055  12.957  23.333  0.00  0.00    +0.000 A 
ATOM     10  C   UNL     1      -2.297  11.648  22.934  0.00  0.00    +0.000 A 
ATOM     11  C   UNL     1      -1.274  11.089  22.176  0.00  0.00    +0.000 A 
ATOM     12  N   UNL     1      -0.444   9.986  22.409  0.00  0.00    +0.000 N 
ATOM     13  C   UNL     1       0.108   9.776  23.742  0.00  0.00    +0.000 C 
ATOM     14  N   UNL     1       0.264  10.846  19.118  0.00  0.00    +0.000 N 
ATOM     15  C   UNL     1      -0.576  11.639  18.239  0.00  0.00    +0.000 C 
ATOM     16  C   UNL     1       0.799   9.660  18.553  0.00  0.00    +0.000 A 
ATOM     17  O   UNL     1       0.657   9.465  17.340  0.00  0.00    +0.000 OA
ENDROOT
BRANCH   1  21
ATOM     18  C   UNL     1       3.863   5.742  17.485  0.00  0.00    +0.000 A 
ATOM     19  C   UNL     1       2.902   5.357  18.416  0.00  0.00    +0.000 A 
ATOM     20  C   UNL     1       2.101   6.312  19.074  0.00  0.00    +0.000 A 
ATOM     21  C   UNL     1       2.250   7.685  18.828  0.00  0.00    +0.000 A 
ATOM     22  C   UNL     1       3.293   8.043  17.950  0.00  0.00    +0.000 A 
ATOM     23  C   UNL     1       4.072   7.094  17.273  0.00  0.00    +0.000 A 
BRANCH  18  25
ATOM     24  C   UNL     1       4.202   3.411  17.301  0.00  0.00    +0.000 C 
ATOM     25  O   UNL     1       4.551   4.730  16.878  0.00  0.00    +0.000 OA
ENDBRANCH  18  25
ENDBRANCH   1  21
BRANCH   8  26
ATOM     26  O   UNL     1      -0.332  14.616  23.718  0.00  0.00    +0.000 OA
ATOM     27  C   UNL     1      -1.295  15.274  24.562  0.00  0.00    +0.000 C 
ENDBRANCH   8  26
TORSDOF 3
ENDMDL
MODEL 8
REMARK VINA RESULT:      -5.8      2.150      8.520
REMARK  Name = 
REMARK  7 active torsions:
REMARK  status: ('A' for Active; 'I' for Inactive)
REMARK    1  A    between atoms: C_1  and  O_2
REMARK    2  A    between atoms: O_2  and  C_3
REMARK    3  A    between atoms: C_6  and  N_7
REMARK    4  A    between atoms: C_14  and  O_15
REMARK    5  A    between atoms: O_15  and  C_16
REMARK    6  A    between atoms: N_20  and  C_21
REMARK    7  A    between atoms: N_22  and  C_23
REMARK                            x       y       z     vdW  Elec       q    Type
REMARK                         _______ _______ _______ _____ _____    ______ ____
ROOT
ATOM      1  N   UNL     1       1.415   8.728  19.443  0.00  0.00    +0.000 N 
ATOM      2  C   UNL     1       1.039   8.649  20.800  0.00  0.00    +0.000 A 
ATOM      3  O   UNL     1       1.374   7.777  21.602  0.00  0.00    +0.000 OA
ATOM      4  C   UNL     1       0.246   9.747  21.240  0.00  0.00    +0.000 A 
ATOM      5  C   UNL     1       0.050  10.886  20.501  0.00  0.00    +0.000 A 
ATOM      6  C   UNL     1      -0.412  11.850  21.412  0.00  0.00    +0.000 A 
ATOM      7  C   UNL     1      -0.128  13.143  21.891  0.00  0.00    +0.000 A 
ATOM      8  C   UNL     1      -0.878  13.582  23.000  0.00  0.00    +0.000 A 
ATOM      9  C   UNL     1      -2.065  12.934  23.359  0.00  0.00    +0.000 A 
ATOM     10  C   UNL     1      -2.304  11.628  22.949  0.00  0.00    +0.000 A 
ATOM     11  C   UNL     1      -1.277  11.076  22.192  0.00  0.00    +0.000 A 
ATOM     12  N   UNL     1      -0.447   9.972  22.420  0.00  0.00    +0.000 N 
ATOM     13  C   UNL     1       0.098   9.752  23.754  0.00  0.00    +0.000 C 
ATOM     14  N   UNL     1       0.277  10.858  19.139  0.00  0.00    +0.000 N 
ATOM     15  C   UNL     1      -0.559  11.657  18.263  0.00  0.00    +0.000 C 
ATOM     16  C   UNL     1       0.816   9.677  18.567  0.00  0.00    +0.000 A 
ATOM     17  O   UNL     1       0.680   9.491  17.352  0.00  0.00    +0.000 OA
ENDROOT
BRANCH   1  21
ATOM     18  C   UNL     1       3.972   5.642  17.819  0.00  0.00    +0.000 A 
ATOM     19  C   UNL     1       4.094   6.957  17.378  0.00  0.00    +0.000 A 
ATOM     20  C   UNL     1       3.259   7.974  17.882  0.00  0.00    +0.000 A 
ATOM     21  C   UNL     1       2.267   7.701  18.835  0.00  0.00    +0.000 A 
ATOM     22  C   UNL     1       2.111   6.346  19.190  0.00  0.00    +0.000 A 
ATOM     23  C   UNL     1       2.959   5.336  18.711  0.00  0.00    +0.000 A 
BRANCH  18  25
ATOM     24  C   UNL     1       6.131   4.690  17.946  0.00  0.00    +0.000 C 
ATOM     25  O   UNL     1       4.862   4.747  17.294  0.00  0.00    +0.000 OA
ENDBRANCH  18  25
ENDBRANCH   1  21
BRANCH   8  26
ATOM     26  O   UNL     1      -0.345  14.592  23.765  0.00  0.00    +0.000 OA
ATOM     27  C   UNL     1      -1.323  15.279  24.567  0.00  0.00    +0.000 C 
ENDBRANCH   8  26
TORSDOF 3
ENDMDL
MODEL 9
REMARK VINA RESULT:      -5.8      1.980      8.283
REMARK  Name = 
REMARK  7 active torsions:
REMARK  status: ('A' for Active; 'I' for Inactive)
REMARK    1  A    between atoms: C_1  and  O_2
REMARK    2  A    between atoms: O_2  and  C_3
REMARK    3  A    between atoms: C_6  and  N_7
REMARK    4  A    between atoms: C_14  and  O_15
REMARK    5  A    between atoms: O_15  and  C_16
REMARK    6  A    between atoms: N_20  and  C_21
REMARK    7  A    between atoms: N_22  and  C_23
REMARK                            x       y       z     vdW  Elec       q    Type
REMARK                         _______ _______ _______ _____ _____    ______ ____
ROOT
ATOM      1  N   UNL     1       2.005   7.864  19.380  0.00  0.00    +0.000 N 
ATOM      2  C   UNL     1       1.136   8.072  20.472  0.00  0.00    +0.000 A 
ATOM      3  O   UNL     1       0.833   7.246  21.332  0.00  0.00    +0.000 OA
ATOM      4  C   UNL     1       0.644   9.406  20.567  0.00  0.00    +0.000 A 
ATOM      5  C   UNL     1       1.133  10.449  19.823  0.00  0.00    +0.000 A 
ATOM      6  C   UNL     1       0.703  11.613  20.481  0.00  0.00    +0.000 A 
ATOM      7  C   UNL     1       1.192  12.806  21.046  0.00  0.00    +0.000 A 
ATOM      8  C   UNL     1       0.265  13.587  21.765  0.00  0.00    +0.000 A 
ATOM      9  C   UNL     1      -1.111  13.382  21.612  0.00  0.00    +0.000 A 
ATOM     10  C   UNL     1      -1.591  12.171  21.128  0.00  0.00    +0.000 A 
ATOM     11  C   UNL     1      -0.596  11.243  20.841  0.00  0.00    +0.000 A 
ATOM     12  N   UNL     1      -0.330   9.975  21.372  0.00  0.00    +0.000 N 
ATOM     13  C   UNL     1      -0.440   9.766  22.811  0.00  0.00    +0.000 C 
ATOM     14  N   UNL     1       1.838  10.185  18.666  0.00  0.00    +0.000 N 
ATOM     15  C   UNL     1       1.714  11.086  17.535  0.00  0.00    +0.000 C 
ATOM     16  C   UNL     1       2.134   8.835  18.347  0.00  0.00    +0.000 A 
ATOM     17  O   UNL     1       2.418   8.550  17.178  0.00  0.00    +0.000 OA
ENDROOT
BRANCH   1  21
ATOM     18  C   UNL     1       3.720   3.936  18.805  0.00  0.00    +0.000 A 
ATOM     19  C   UNL     1       4.492   4.968  19.331  0.00  0.00    +0.000 A 
ATOM     20  C   UNL     1       3.957   6.259  19.511  0.00  0.00    +0.000 A 
ATOM     21  C   UNL     1       2.634   6.559  19.155  0.00  0.00    +0.000 A 
ATOM     22  C   UNL     1       1.911   5.516  18.541  0.00  0.00    +0.000 A 
ATOM     23  C   UNL     1       2.432   4.224  18.386  0.00  0.00    +0.000 A 
BRANCH  18  25
ATOM     24  C   UNL     1       3.476   1.633  18.336  0.00  0.00    +0.000 C 
ATOM     25  O   UNL     1       4.328   2.716  18.714  0.00  0.00    +0.000 OA
ENDBRANCH  18  25
ENDBRANCH   1  21
BRANCH   8  26
ATOM     26  O   UNL     1       0.765  14.473  22.689  0.00  0.00    +0.000 OA
ATOM     27  C   UNL     1      -0.129  15.562  22.982  0.00  0.00    +0.000 C 
ENDBRANCH   8  26
TORSDOF 3
ENDMDL
