MODEL 1
REMARK VINA RESULT:      -7.2      0.000      0.000
REMARK  Name = 
REMARK  5 active torsions:
REMARK  status: ('A' for Active; 'I' for Inactive)
REMARK    1  A    between atoms: C_1  and  S_2
REMARK    2  A    between atoms: S_2  and  N_5
REMARK    3  A    between atoms: N_5  and  C_6
REMARK    4  A    between atoms: C_6  and  C_7
REMARK    5  A    between atoms: C_12  and  C_14
REMARK                            x       y       z     vdW  Elec       q    Type
REMARK                         _______ _______ _______ _____ _____    ______ ____
ROOT
ATOM      1  C   UNL     1       4.996   5.363  19.438  0.00  0.00    +0.000 C 
ATOM      2  C   UNL     1       3.891   6.225  18.782  0.00  0.00    +0.000 C 
ATOM      3  C   UNL     1       3.932   6.187  17.250  0.00  0.00    +0.000 C 
ATOM      4  C   UNL     1       5.329   6.539  16.752  0.00  0.00    +0.000 C 
ATOM      5  N   UNL     1       6.293   5.605  17.335  0.00  0.00    +0.000 N 
ATOM      6  C   UNL     1       7.159   4.755  16.637  0.00  0.00    +0.000 C 
ATOM      7  O   UNL     1       8.012   4.105  17.245  0.00  0.00    +0.000 OA
ATOM      8  C   UNL     1       6.360   5.665  18.792  0.00  0.00    +0.000 C 
ENDROOT
BRANCH   6   9
ATOM      9  C   UNL     1       7.057   4.668  15.187  0.00  0.00    +0.000 A 
ATOM     10  C   UNL     1       6.329   3.806  14.386  0.00  0.00    +0.000 A 
ATOM     11  C   UNL     1       6.625   4.147  13.042  0.00  0.00    +0.000 A 
ATOM     12  C   UNL     1       7.469   5.232  13.095  0.00  0.00    +0.000 A 
ATOM     13 CL   UNL     1       8.189   6.051  11.768  0.00  0.00    +0.000 Cl
ATOM     14  O   UNL     1       7.696   5.580  14.389  0.00  0.00    +0.000 OA
ENDBRANCH   6   9
BRANCH   1  15
ATOM     15  C   UNL     1       4.605   3.873  19.387  0.00  0.00    +0.000 C 
BRANCH  15  16
ATOM     16  N   UNL     1       3.253   3.639  19.972  0.00  0.00    +0.000 NA
ATOM     17  H   UNL     1       3.333   3.084  20.830  0.00  0.00    +0.000 HD
BRANCH  16  19
ATOM     18  C   UNL     1       3.369   2.027  17.820  0.00  0.00    +0.000 C 
ATOM     19  S   UNL     1       2.206   2.824  18.907  0.00  0.00    +0.000 S 
ATOM     20  O   UNL     1       1.506   3.845  18.161  0.00  0.00    +0.000 OA
ATOM     21  O   UNL     1       1.502   1.813  19.662  0.00  0.00    +0.000 OA
ENDBRANCH  16  19
ENDBRANCH  15  16
ENDBRANCH   1  15
TORSDOF 4
ENDMDL
MODEL 2
REMARK VINA RESULT:      -7.1      1.215      1.340
REMARK  Name = 
REMARK  5 active torsions:
REMARK  status: ('A' for Active; 'I' for Inactive)
REMARK    1  A    between atoms: C_1  and  S_2
REMARK    2  A    between atoms: S_2  and  N_5
REMARK    3  A    between atoms: N_5  and  C_6
REMARK    4  A    between atoms: C_6  and  C_7
REMARK    5  A    between atoms: C_12  and  C_14
REMARK                            x       y       z     vdW  Elec       q    Type
REMARK                         _______ _______ _______ _____ _____    ______ ____
ROOT
ATOM      1  C   UNL     1       5.009   5.462  19.182  0.00  0.00    +0.000 C 
ATOM      2  C   UNL     1       3.906   6.314  18.510  0.00  0.00    +0.000 C 
ATOM      3  C   UNL     1       3.931   6.228  16.980  0.00  0.00    +0.000 C 
ATOM      4  C   UNL     1       5.326   6.551  16.459  0.00  0.00    +0.000 C 
ATOM      5  N   UNL     1       6.287   5.627  17.060  0.00  0.00    +0.000 N 
ATOM      6  C   UNL     1       7.139   4.747  16.380  0.00  0.00    +0.000 C 
ATOM      7  O   UNL     1       7.991   4.108  16.999  0.00  0.00    +0.000 OA
ATOM      8  C   UNL     1       6.370   5.731  18.514  0.00  0.00    +0.000 C 
ENDROOT
BRANCH   6   9
ATOM      9  C   UNL     1       7.021   4.617  14.935  0.00  0.00    +0.000 A 
ATOM     10  C   UNL     1       7.688   5.271  13.914  0.00  0.00    +0.000 A 
ATOM     11  C   UNL     1       7.157   4.779  12.695  0.00  0.00    +0.000 A 
ATOM     12  C   UNL     1       6.237   3.814  13.036  0.00  0.00    +0.000 A 
ATOM     13 CL   UNL     1       5.249   2.901  11.968  0.00  0.00    +0.000 Cl
ATOM     14  O   UNL     1       6.185   3.679  14.388  0.00  0.00    +0.000 OA
ENDBRANCH   6   9
BRANCH   1  15
ATOM     15  C   UNL     1       4.604   3.974  19.182  0.00  0.00    +0.000 C 
BRANCH  15  16
ATOM     16  N   UNL     1       3.186   3.791  19.604  0.00  0.00    +0.000 NA
ATOM     17  H   UNL     1       3.147   3.467  20.575  0.00  0.00    +0.000 HD
BRANCH  16  19
ATOM     18  C   UNL     1       3.630   1.475  18.306  0.00  0.00    +0.000 C 
ATOM     19  S   UNL     1       2.351   2.668  18.635  0.00  0.00    +0.000 S 
ATOM     20  O   UNL     1       2.031   3.350  17.402  0.00  0.00    +0.000 OA
ATOM     21  O   UNL     1       1.331   2.050  19.450  0.00  0.00    +0.000 OA
ENDBRANCH  16  19
ENDBRANCH  15  16
ENDBRANCH   1  15
TORSDOF 4
ENDMDL
MODEL 3
REMARK VINA RESULT:      -7.0      1.438      1.611
REMARK  Name = 
REMARK  5 active torsions:
REMARK  status: ('A' for Active; 'I' for Inactive)
REMARK    1  A    between atoms: C_1  and  S_2
REMARK    2  A    between atoms: S_2  and  N_5
REMARK    3  A    between atoms: N_5  and  C_6
REMARK    4  A    between atoms: C_6  and  C_7
REMARK    5  A    between atoms: C_12  and  C_14
REMARK                            x       y       z     vdW  Elec       q    Type
REMARK                         _______ _______ _______ _____ _____    ______ ____
ROOT
ATOM      1  C   UNL     1       5.088   5.388  19.232  0.00  0.00    +0.000 C 
ATOM      2  C   UNL     1       3.955   6.221  18.588  0.00  0.00    +0.000 C 
ATOM      3  C   UNL     1       3.955   6.149  17.056  0.00  0.00    +0.000 C 
ATOM      4  C   UNL     1       5.333   6.506  16.513  0.00  0.00    +0.000 C 
ATOM      5  N   UNL     1       6.324   5.598  17.090  0.00  0.00    +0.000 N 
ATOM      6  C   UNL     1       7.182   4.742  16.387  0.00  0.00    +0.000 C 
ATOM      7  O   UNL     1       8.059   4.116  16.986  0.00  0.00    +0.000 OA
ATOM      8  C   UNL     1       6.430   5.691  18.543  0.00  0.00    +0.000 C 
ENDROOT
BRANCH   6   9
ATOM      9  C   UNL     1       7.041   4.622  14.943  0.00  0.00    +0.000 A 
ATOM     10  C   UNL     1       7.685   5.290  13.917  0.00  0.00    +0.000 A 
ATOM     11  C   UNL     1       7.138   4.802  12.703  0.00  0.00    +0.000 A 
ATOM     12  C   UNL     1       6.235   3.825  13.052  0.00  0.00    +0.000 A 
ATOM     13 CL   UNL     1       5.239   2.910  11.993  0.00  0.00    +0.000 Cl
ATOM     14  O   UNL     1       6.207   3.679  14.403  0.00  0.00    +0.000 OA
ENDBRANCH   6   9
BRANCH   1  15
ATOM     15  C   UNL     1       4.714   3.892  19.226  0.00  0.00    +0.000 C 
BRANCH  15  16
ATOM     16  N   UNL     1       3.470   3.633  20.006  0.00  0.00    +0.000 NA
ATOM     17  H   UNL     1       3.707   3.295  20.943  0.00  0.00    +0.000 HD
BRANCH  16  19
ATOM     18  C   UNL     1       1.557   3.501  18.118  0.00  0.00    +0.000 C 
ATOM     19  S   UNL     1       2.457   2.482  19.266  0.00  0.00    +0.000 S 
ATOM     20  O   UNL     1       1.543   2.026  20.288  0.00  0.00    +0.000 OA
ATOM     21  O   UNL     1       3.292   1.565  18.525  0.00  0.00    +0.000 OA
ENDBRANCH  16  19
ENDBRANCH  15  16
ENDBRANCH   1  15
TORSDOF 4
ENDMDL
MODEL 4
REMARK VINA RESULT:      -6.9      1.364      1.371
REMARK  Name = 
REMARK  5 active torsions:
REMARK  status: ('A' for Active; 'I' for Inactive)
REMARK    1  A    between atoms: C_1  and  S_2
REMARK    2  A    between atoms: S_2  and  N_5
REMARK    3  A    between atoms: N_5  and  C_6
REMARK    4  A    between atoms: C_6  and  C_7
REMARK    5  A    between atoms: C_12  and  C_14
REMARK                            x       y       z     vdW  Elec       q    Type
REMARK                         _______ _______ _______ _____ _____    ______ ____
ROOT
ATOM      1  C   UNL     1       4.415   5.094  19.573  0.00  0.00    +0.000 C 
ATOM      2  C   UNL     1       3.382   5.996  18.857  0.00  0.00    +0.000 C 
ATOM      3  C   UNL     1       3.575   6.038  17.337  0.00  0.00    +0.000 C 
ATOM      4  C   UNL     1       5.015   6.407  17.000  0.00  0.00    +0.000 C 
ATOM      5  N   UNL     1       5.915   5.439  17.626  0.00  0.00    +0.000 N 
ATOM      6  C   UNL     1       6.847   4.621  16.974  0.00  0.00    +0.000 C 
ATOM      7  O   UNL     1       7.634   3.935  17.628  0.00  0.00    +0.000 OA
ATOM      8  C   UNL     1       5.837   5.422  19.083  0.00  0.00    +0.000 C 
ENDROOT
BRANCH   6   9
ATOM      9  C   UNL     1       6.889   4.611  15.518  0.00  0.00    +0.000 A 
ATOM     10  C   UNL     1       6.188   3.847  14.602  0.00  0.00    +0.000 A 
ATOM     11  C   UNL     1       6.646   4.226  13.316  0.00  0.00    +0.000 A 
ATOM     12  C   UNL     1       7.557   5.238  13.512  0.00  0.00    +0.000 A 
ATOM     13 CL   UNL     1       8.468   6.061  12.310  0.00  0.00    +0.000 Cl
ATOM     14  O   UNL     1       7.673   5.507  14.840  0.00  0.00    +0.000 OA
ENDBRANCH   6   9
BRANCH   1  15
ATOM     15  C   UNL     1       4.030   3.611  19.406  0.00  0.00    +0.000 C 
BRANCH  15  16
ATOM     16  N   UNL     1       3.695   2.979  20.714  0.00  0.00    +0.000 NA
ATOM     17  H   UNL     1       3.846   1.967  20.665  0.00  0.00    +0.000 HD
BRANCH  16  19
ATOM     18  C   UNL     1       1.222   2.968  19.652  0.00  0.00    +0.000 C 
ATOM     19  S   UNL     1       2.082   3.254  21.184  0.00  0.00    +0.000 S 
ATOM     20  O   UNL     1       1.985   4.658  21.510  0.00  0.00    +0.000 OA
ATOM     21  O   UNL     1       1.713   2.225  22.128  0.00  0.00    +0.000 OA
ENDBRANCH  16  19
ENDBRANCH  15  16
ENDBRANCH   1  15
TORSDOF 4
ENDMDL
MODEL 5
REMARK VINA RESULT:      -6.9      1.771      2.078
REMARK  Name = 
REMARK  5 active torsions:
REMARK  status: ('A' for Active; 'I' for Inactive)
REMARK    1  A    between atoms: C_1  and  S_2
REMARK    2  A    between atoms: S_2  and  N_5
REMARK    3  A    between atoms: N_5  and  C_6
REMARK    4  A    between atoms: C_6  and  C_7
REMARK    5  A    between atoms: C_12  and  C_14
REMARK                            x       y       z     vdW  Elec       q    Type
REMARK                         _______ _______ _______ _____ _____    ______ ____
ROOT
ATOM      1  C   UNL     1       2.778   6.197  19.565  0.00  0.00    +0.000 C 
ATOM      2  C   UNL     1       2.489   7.438  18.687  0.00  0.00    +0.000 C 
ATOM      3  C   UNL     1       3.143   7.358  17.303  0.00  0.00    +0.000 C 
ATOM      4  C   UNL     1       4.632   7.066  17.441  0.00  0.00    +0.000 C 
ATOM      5  N   UNL     1       4.808   5.820  18.186  0.00  0.00    +0.000 N 
ATOM      6  C   UNL     1       5.469   4.668  17.744  0.00  0.00    +0.000 C 
ATOM      7  O   UNL     1       5.656   3.726  18.516  0.00  0.00    +0.000 OA
ATOM      8  C   UNL     1       4.283   5.872  19.548  0.00  0.00    +0.000 C 
ENDROOT
BRANCH   6   9
ATOM      9  C   UNL     1       5.952   4.607  16.371  0.00  0.00    +0.000 A 
ATOM     10  C   UNL     1       7.158   5.007  15.823  0.00  0.00    +0.000 A 
ATOM     11  C   UNL     1       7.082   4.746  14.432  0.00  0.00    +0.000 A 
ATOM     12  C   UNL     1       5.861   4.149  14.216  0.00  0.00    +0.000 A 
ATOM     13 CL   UNL     1       5.205   3.646  12.710  0.00  0.00    +0.000 Cl
ATOM     14  O   UNL     1       5.194   4.020  15.393  0.00  0.00    +0.000 OA
ENDBRANCH   6   9
BRANCH   1  15
ATOM     15  C   UNL     1       1.886   5.018  19.127  0.00  0.00    +0.000 C 
BRANCH  15  16
ATOM     16  N   UNL     1       2.541   3.705  19.392  0.00  0.00    +0.000 NA
ATOM     17  H   UNL     1       3.560   3.814  19.392  0.00  0.00    +0.000 HD
BRANCH  16  19
ATOM     18  C   UNL     1       3.443   1.340  18.478  0.00  0.00    +0.000 C 
ATOM     19  S   UNL     1       2.132   2.520  18.241  0.00  0.00    +0.000 S 
ATOM     20  O   UNL     1       2.299   3.136  16.944  0.00  0.00    +0.000 OA
ATOM     21  O   UNL     1       0.881   1.921  18.645  0.00  0.00    +0.000 OA
ENDBRANCH  16  19
ENDBRANCH  15  16
ENDBRANCH   1  15
TORSDOF 4
ENDMDL
MODEL 6
REMARK VINA RESULT:      -6.9      1.759      1.857
REMARK  Name = 
REMARK  5 active torsions:
REMARK  status: ('A' for Active; 'I' for Inactive)
REMARK    1  A    between atoms: C_1  and  S_2
REMARK    2  A    between atoms: S_2  and  N_5
REMARK    3  A    between atoms: N_5  and  C_6
REMARK    4  A    between atoms: C_6  and  C_7
REMARK    5  A    between atoms: C_12  and  C_14
REMARK                            x       y       z     vdW  Elec       q    Type
REMARK                         _______ _______ _______ _____ _____    ______ ____
ROOT
ATOM      1  C   UNL     1       5.073   5.348  19.232  0.00  0.00    +0.000 C 
ATOM      2  C   UNL     1       3.922   6.156  18.587  0.00  0.00    +0.000 C 
ATOM      3  C   UNL     1       3.922   6.080  17.056  0.00  0.00    +0.000 C 
ATOM      4  C   UNL     1       5.291   6.463  16.510  0.00  0.00    +0.000 C 
ATOM      5  N   UNL     1       6.301   5.576  17.087  0.00  0.00    +0.000 N 
ATOM      6  C   UNL     1       7.176   4.737  16.386  0.00  0.00    +0.000 C 
ATOM      7  O   UNL     1       8.066   4.131  16.985  0.00  0.00    +0.000 OA
ATOM      8  C   UNL     1       6.408   5.677  18.540  0.00  0.00    +0.000 C 
ENDROOT
BRANCH   6   9
ATOM      9  C   UNL     1       7.035   4.609  14.943  0.00  0.00    +0.000 A 
ATOM     10  C   UNL     1       7.695   5.256  13.913  0.00  0.00    +0.000 A 
ATOM     11  C   UNL     1       7.141   4.771  12.702  0.00  0.00    +0.000 A 
ATOM     12  C   UNL     1       6.216   3.816  13.055  0.00  0.00    +0.000 A 
ATOM     13 CL   UNL     1       5.203   2.914  12.001  0.00  0.00    +0.000 Cl
ATOM     14  O   UNL     1       6.182   3.680  14.407  0.00  0.00    +0.000 OA
ENDBRANCH   6   9
BRANCH   1  15
ATOM     15  C   UNL     1       4.730   3.845  19.231  0.00  0.00    +0.000 C 
BRANCH  15  16
ATOM     16  N   UNL     1       3.257   3.617  19.210  0.00  0.00    +0.000 NA
ATOM     17  H   UNL     1       2.782   4.428  18.803  0.00  0.00    +0.000 HD
BRANCH  16  19
ATOM     18  C   UNL     1       1.062   2.565  20.358  0.00  0.00    +0.000 C 
ATOM     19  S   UNL     1       2.610   3.344  20.761  0.00  0.00    +0.000 S 
ATOM     20  O   UNL     1       2.336   4.646  21.324  0.00  0.00    +0.000 OA
ATOM     21  O   UNL     1       3.457   2.385  21.433  0.00  0.00    +0.000 OA
ENDBRANCH  16  19
ENDBRANCH  15  16
ENDBRANCH   1  15
TORSDOF 4
ENDMDL
MODEL 7
REMARK VINA RESULT:      -6.9      1.883      2.275
REMARK  Name = 
REMARK  5 active torsions:
REMARK  status: ('A' for Active; 'I' for Inactive)
REMARK    1  A    between atoms: C_1  and  S_2
REMARK    2  A    between atoms: S_2  and  N_5
REMARK    3  A    between atoms: N_5  and  C_6
REMARK    4  A    between atoms: C_6  and  C_7
REMARK    5  A    between atoms: C_12  and  C_14
REMARK                            x       y       z     vdW  Elec       q    Type
REMARK                         _______ _______ _______ _____ _____    ______ ____
ROOT
ATOM      1  C   UNL     1       2.901   6.169  19.576  0.00  0.00    +0.000 C 
ATOM      2  C   UNL     1       2.555   7.393  18.694  0.00  0.00    +0.000 C 
ATOM      3  C   UNL     1       3.158   7.307  17.287  0.00  0.00    +0.000 C 
ATOM      4  C   UNL     1       4.656   7.045  17.372  0.00  0.00    +0.000 C 
ATOM      5  N   UNL     1       4.884   5.812  18.125  0.00  0.00    +0.000 N 
ATOM      6  C   UNL     1       5.550   4.667  17.671  0.00  0.00    +0.000 C 
ATOM      7  O   UNL     1       5.784   3.738  18.447  0.00  0.00    +0.000 OA
ATOM      8  C   UNL     1       4.410   5.872  19.505  0.00  0.00    +0.000 C 
ENDROOT
BRANCH   6   9
ATOM      9  C   UNL     1       5.981   4.597  16.282  0.00  0.00    +0.000 A 
ATOM     10  C   UNL     1       7.166   4.990  15.687  0.00  0.00    +0.000 A 
ATOM     11  C   UNL     1       7.038   4.721  14.301  0.00  0.00    +0.000 A 
ATOM     12  C   UNL     1       5.808   4.129  14.134  0.00  0.00    +0.000 A 
ATOM     13 CL   UNL     1       5.094   3.621  12.657  0.00  0.00    +0.000 Cl
ATOM     14  O   UNL     1       5.184   4.008  15.336  0.00  0.00    +0.000 OA
ENDBRANCH   6   9
BRANCH   1  15
ATOM     15  C   UNL     1       2.016   4.968  19.187  0.00  0.00    +0.000 C 
BRANCH  15  16
ATOM     16  N   UNL     1       2.711   3.672  19.428  0.00  0.00    +0.000 NA
ATOM     17  H   UNL     1       3.726   3.813  19.438  0.00  0.00    +0.000 HD
BRANCH  16  19
ATOM     18  C   UNL     1       0.698   2.031  18.720  0.00  0.00    +0.000 C 
ATOM     19  S   UNL     1       2.349   2.501  18.247  0.00  0.00    +0.000 S 
ATOM     20  O   UNL     1       3.232   1.384  18.495  0.00  0.00    +0.000 OA
ATOM     21  O   UNL     1       2.299   3.163  16.964  0.00  0.00    +0.000 OA
ENDBRANCH  16  19
ENDBRANCH  15  16
ENDBRANCH   1  15
TORSDOF 4
ENDMDL
MODEL 8
REMARK VINA RESULT:      -6.8      3.844      6.171
REMARK  Name = 
REMARK  5 active torsions:
REMARK  status: ('A' for Active; 'I' for Inactive)
REMARK    1  A    between atoms: C_1  and  S_2
REMARK    2  A    between atoms: S_2  and  N_5
REMARK    3  A    between atoms: N_5  and  C_6
REMARK    4  A    between atoms: C_6  and  C_7
REMARK    5  A    between atoms: C_12  and  C_14
REMARK                            x       y       z     vdW  Elec       q    Type
REMARK                         _______ _______ _______ _____ _____    ______ ____
ROOT
ATOM      1  C   UNL     1       3.677   2.416  18.283  0.00  0.00    +0.000 C 
ATOM      2  C   UNL     1       2.183   2.181  17.955  0.00  0.00    +0.000 C 
ATOM      3  C   UNL     1       1.380   3.483  17.855  0.00  0.00    +0.000 C 
ATOM      4  C   UNL     1       1.584   4.325  19.108  0.00  0.00    +0.000 C 
ATOM      5  N   UNL     1       3.012   4.592  19.278  0.00  0.00    +0.000 N 
ATOM      6  C   UNL     1       3.626   5.849  19.338  0.00  0.00    +0.000 C 
ATOM      7  O   UNL     1       4.825   5.940  19.607  0.00  0.00    +0.000 OA
ATOM      8  C   UNL     1       3.814   3.387  19.470  0.00  0.00    +0.000 C 
ENDROOT
BRANCH   6   9
ATOM      9  C   UNL     1       2.827   7.043  19.102  0.00  0.00    +0.000 A 
ATOM     10  C   UNL     1       2.615   7.771  17.944  0.00  0.00    +0.000 A 
ATOM     11  C   UNL     1       1.776   8.860  18.292  0.00  0.00    +0.000 A 
ATOM     12  C   UNL     1       1.476   8.706  19.625  0.00  0.00    +0.000 A 
ATOM     13 CL   UNL     1       0.525   9.753  20.601  0.00  0.00    +0.000 Cl
ATOM     14  O   UNL     1       2.070   7.583  20.109  0.00  0.00    +0.000 OA
ENDBRANCH   6   9
BRANCH   1  15
ATOM     15  C   UNL     1       4.431   2.874  17.019  0.00  0.00    +0.000 C 
BRANCH  15  16
ATOM     16  N   UNL     1       5.645   3.670  17.361  0.00  0.00    +0.000 NA
ATOM     17  H   UNL     1       5.407   4.398  18.042  0.00  0.00    +0.000 HD
BRANCH  16  19
ATOM     18  C   UNL     1       5.375   5.909  15.892  0.00  0.00    +0.000 C 
ATOM     19  S   UNL     1       6.344   4.421  16.003  0.00  0.00    +0.000 S 
ATOM     20  O   UNL     1       6.032   3.583  14.868  0.00  0.00    +0.000 OA
ATOM     21  O   UNL     1       7.705   4.771  16.340  0.00  0.00    +0.000 OA
ENDBRANCH  16  19
ENDBRANCH  15  16
ENDBRANCH   1  15
TORSDOF 4
ENDMDL
MODEL 9
REMARK VINA RESULT:      -6.8      1.499      1.772
REMARK  Name = 
REMARK  5 active torsions:
REMARK  status: ('A' for Active; 'I' for Inactive)
REMARK    1  A    between atoms: C_1  and  S_2
REMARK    2  A    between atoms: S_2  and  N_5
REMARK    3  A    between atoms: N_5  and  C_6
REMARK    4  A    between atoms: C_6  and  C_7
REMARK    5  A    between atoms: C_12  and  C_14
REMARK                            x       y       z     vdW  Elec       q    Type
REMARK                         _______ _______ _______ _____ _____    ______ ____
ROOT
ATOM      1  C   UNL     1       4.987   5.358  19.176  0.00  0.00    +0.000 C 
ATOM      2  C   UNL     1       3.877   6.206  18.511  0.00  0.00    +0.000 C 
ATOM      3  C   UNL     1       3.913   6.146  16.980  0.00  0.00    +0.000 C 
ATOM      4  C   UNL     1       5.307   6.496  16.473  0.00  0.00    +0.000 C 
ATOM      5  N   UNL     1       6.276   5.575  17.066  0.00  0.00    +0.000 N 
ATOM      6  C   UNL     1       7.144   4.718  16.377  0.00  0.00    +0.000 C 
ATOM      7  O   UNL     1       8.001   4.080  16.991  0.00  0.00    +0.000 OA
ATOM      8  C   UNL     1       6.348   5.656  18.521  0.00  0.00    +0.000 C 
ENDROOT
BRANCH   6   9
ATOM      9  C   UNL     1       7.037   4.610  14.929  0.00  0.00    +0.000 A 
ATOM     10  C   UNL     1       7.696   5.295  13.924  0.00  0.00    +0.000 A 
ATOM     11  C   UNL     1       7.182   4.814  12.694  0.00  0.00    +0.000 A 
ATOM     12  C   UNL     1       6.282   3.824  13.012  0.00  0.00    +0.000 A 
ATOM     13 CL   UNL     1       5.319   2.909  11.922  0.00  0.00    +0.000 Cl
ATOM     14  O   UNL     1       6.225   3.664  14.361  0.00  0.00    +0.000 OA
ENDBRANCH   6   9
BRANCH   1  15
ATOM     15  C   UNL     1       4.602   3.865  19.149  0.00  0.00    +0.000 C 
BRANCH  15  16
ATOM     16  N   UNL     1       3.708   3.507  20.287  0.00  0.00    +0.000 NA
ATOM     17  H   UNL     1       4.123   2.747  20.834  0.00  0.00    +0.000 HD
BRANCH  16  19
ATOM     18  C   UNL     1       1.369   2.692  21.340  0.00  0.00    +0.000 C 
ATOM     19  S   UNL     1       2.160   3.015  19.778  0.00  0.00    +0.000 S 
ATOM     20  O   UNL     1       2.338   1.759  19.086  0.00  0.00    +0.000 OA
ATOM     21  O   UNL     1       1.517   4.146  19.151  0.00  0.00    +0.000 OA
ENDBRANCH  16  19
ENDBRANCH  15  16
ENDBRANCH   1  15
TORSDOF 4
ENDMDL
