MODEL 1
REMARK VINA RESULT:      -7.7      0.000      0.000
REMARK  Name = 
REMARK  4 active torsions:
REMARK  status: ('A' for Active; 'I' for Inactive)
REMARK    1  A    between atoms: C_1  and  O_2
REMARK    2  A    between atoms: O_2  and  C_3
REMARK    3  A    between atoms: C_6  and  C_8
REMARK    4  A    between atoms: C_19  and  N_20
REMARK                            x       y       z     vdW  Elec       q    Type
REMARK                         _______ _______ _______ _____ _____    ______ ____
ROOT
ATOM      1  C   UNL     1       3.050   4.001  20.149  0.00  0.00    +0.000 C 
ATOM      2  C   UNL     1       4.166   4.990  19.758  0.00  0.00    +0.000 C 
ATOM      3  N   UNL     1       4.462   4.932  18.322  0.00  0.00    +0.000 N 
ATOM      4  C   UNL     1       5.752   4.536  17.936  0.00  0.00    +0.000 C 
ATOM      5  O   UNL     1       6.599   4.240  18.780  0.00  0.00    +0.000 OA
ATOM      6  C   UNL     1       3.305   5.132  17.447  0.00  0.00    +0.000 C 
ATOM      7  C   UNL     1       2.120   4.242  17.819  0.00  0.00    +0.000 C 
ATOM      8  C   UNL     1       1.792   4.352  19.314  0.00  0.00    +0.000 C 
ENDROOT
BRANCH   4   9
ATOM      9  C   UNL     1       6.086   4.473  16.529  0.00  0.00    +0.000 A 
ATOM     10  C   UNL     1       5.544   3.624  15.577  0.00  0.00    +0.000 A 
ATOM     11  C   UNL     1       6.143   3.909  14.321  0.00  0.00    +0.000 A 
ATOM     12  C   UNL     1       5.969   3.415  13.014  0.00  0.00    +0.000 A 
ATOM     13  C   UNL     1       6.726   3.964  11.974  0.00  0.00    +0.000 A 
ATOM     14  C   UNL     1       7.641   4.986  12.218  0.00  0.00    +0.000 A 
ATOM     15  C   UNL     1       7.842   5.477  13.512  0.00  0.00    +0.000 A 
ATOM     16  C   UNL     1       7.082   4.911  14.540  0.00  0.00    +0.000 A 
ATOM     17  N   UNL     1       7.093   5.161  15.892  0.00  0.00    +0.000 N 
ATOM     18  H   UNL     1       7.733   5.794  16.347  0.00  0.00    +0.000 HD
ENDBRANCH   4   9
BRANCH   8  19
ATOM     19  N   UNL     1       0.663   3.468  19.649  0.00  0.00    +0.000 NA
ATOM     20  H   UNL     1      -0.043   3.590  18.915  0.00  0.00    +0.000 HD
ATOM     21  H   UNL     1       0.222   3.774  20.514  0.00  0.00    +0.000 HD
ENDBRANCH   8  19
BRANCH   1  23
ATOM     22  C   UNL     1       4.460   2.116  20.641  0.00  0.00    +0.000 C 
ATOM     23  O   UNL     1       3.381   2.625  19.871  0.00  0.00    +0.000 OA
ENDBRANCH   1  23
TORSDOF 3
ENDMDL
MODEL 2
REMARK VINA RESULT:      -7.5      0.612      1.311
REMARK  Name = 
REMARK  4 active torsions:
REMARK  status: ('A' for Active; 'I' for Inactive)
REMARK    1  A    between atoms: C_1  and  O_2
REMARK    2  A    between atoms: O_2  and  C_3
REMARK    3  A    between atoms: C_6  and  C_8
REMARK    4  A    between atoms: C_19  and  N_20
REMARK                            x       y       z     vdW  Elec       q    Type
REMARK                         _______ _______ _______ _____ _____    ______ ____
ROOT
ATOM      1  C   UNL     1       2.913   3.855  20.198  0.00  0.00    +0.000 C 
ATOM      2  C   UNL     1       3.982   4.906  19.835  0.00  0.00    +0.000 C 
ATOM      3  N   UNL     1       4.295   4.886  18.402  0.00  0.00    +0.000 N 
ATOM      4  C   UNL     1       5.607   4.563  18.024  0.00  0.00    +0.000 C 
ATOM      5  O   UNL     1       6.460   4.296  18.872  0.00  0.00    +0.000 OA
ATOM      6  C   UNL     1       3.138   5.041  17.517  0.00  0.00    +0.000 C 
ATOM      7  C   UNL     1       1.996   4.085  17.862  0.00  0.00    +0.000 C 
ATOM      8  C   UNL     1       1.648   4.154  19.354  0.00  0.00    +0.000 C 
ENDROOT
BRANCH   4   9
ATOM      9  C   UNL     1       5.959   4.539  16.620  0.00  0.00    +0.000 A 
ATOM     10  C   UNL     1       6.937   5.292  15.989  0.00  0.00    +0.000 A 
ATOM     11  C   UNL     1       6.960   4.944  14.612  0.00  0.00    +0.000 A 
ATOM     12  C   UNL     1       7.748   5.334  13.513  0.00  0.00    +0.000 A 
ATOM     13  C   UNL     1       7.513   4.747  12.266  0.00  0.00    +0.000 A 
ATOM     14  C   UNL     1       6.515   3.787  12.105  0.00  0.00    +0.000 A 
ATOM     15  C   UNL     1       5.709   3.400  13.180  0.00  0.00    +0.000 A 
ATOM     16  C   UNL     1       5.954   4.004  14.417  0.00  0.00    +0.000 A 
ATOM     17  N   UNL     1       5.308   3.853  15.622  0.00  0.00    +0.000 N 
ATOM     18  H   UNL     1       4.487   3.283  15.757  0.00  0.00    +0.000 HD
ENDBRANCH   4   9
BRANCH   8  19
ATOM     19  N   UNL     1       0.562   3.209  19.663  0.00  0.00    +0.000 NA
ATOM     20  H   UNL     1       0.870   2.283  19.347  0.00  0.00    +0.000 HD
ATOM     21  H   UNL     1      -0.265   3.431  19.111  0.00  0.00    +0.000 HD
ENDBRANCH   8  19
BRANCH   1  23
ATOM     22  C   UNL     1       4.441   2.052  20.643  0.00  0.00    +0.000 C 
ATOM     23  O   UNL     1       3.317   2.502  19.902  0.00  0.00    +0.000 OA
ENDBRANCH   1  23
TORSDOF 3
ENDMDL
MODEL 3
REMARK VINA RESULT:      -6.9      3.652      6.961
REMARK  Name = 
REMARK  4 active torsions:
REMARK  status: ('A' for Active; 'I' for Inactive)
REMARK    1  A    between atoms: C_1  and  O_2
REMARK    2  A    between atoms: O_2  and  C_3
REMARK    3  A    between atoms: C_6  and  C_8
REMARK    4  A    between atoms: C_19  and  N_20
REMARK                            x       y       z     vdW  Elec       q    Type
REMARK                         _______ _______ _______ _____ _____    ______ ____
ROOT
ATOM      1  C   UNL     1       5.438   3.754  17.745  0.00  0.00    +0.000 C 
ATOM      2  C   UNL     1       4.145   4.268  17.081  0.00  0.00    +0.000 C 
ATOM      3  N   UNL     1       3.774   5.598  17.578  0.00  0.00    +0.000 N 
ATOM      4  C   UNL     1       2.551   5.726  18.253  0.00  0.00    +0.000 C 
ATOM      5  O   UNL     1       1.822   4.748  18.427  0.00  0.00    +0.000 OA
ATOM      6  C   UNL     1       4.822   6.615  17.457  0.00  0.00    +0.000 C 
ATOM      7  C   UNL     1       6.164   6.151  18.022  0.00  0.00    +0.000 C 
ATOM      8  C   UNL     1       6.562   4.782  17.455  0.00  0.00    +0.000 C 
ENDROOT
BRANCH   4   9
ATOM      9  C   UNL     1       2.144   7.022  18.752  0.00  0.00    +0.000 A 
ATOM     10  C   UNL     1       1.951   8.180  18.015  0.00  0.00    +0.000 A 
ATOM     11  C   UNL     1       1.538   9.215  18.896  0.00  0.00    +0.000 A 
ATOM     12  C   UNL     1       1.163  10.561  18.723  0.00  0.00    +0.000 A 
ATOM     13  C   UNL     1       0.769  11.305  19.840  0.00  0.00    +0.000 A 
ATOM     14  C   UNL     1       0.743  10.729  21.109  0.00  0.00    +0.000 A 
ATOM     15  C   UNL     1       1.130   9.399  21.304  0.00  0.00    +0.000 A 
ATOM     16  C   UNL     1       1.528   8.674  20.177  0.00  0.00    +0.000 A 
ATOM     17  N   UNL     1       1.990   7.383  20.070  0.00  0.00    +0.000 N 
ATOM     18  H   UNL     1       2.156   6.774  20.856  0.00  0.00    +0.000 HD
ENDBRANCH   4   9
BRANCH   8  19
ATOM     19  N   UNL     1       7.846   4.350  18.033  0.00  0.00    +0.000 NA
ATOM     20  H   UNL     1       8.192   5.125  18.609  0.00  0.00    +0.000 HD
ATOM     21  H   UNL     1       8.536   4.220  17.296  0.00  0.00    +0.000 HD
ENDBRANCH   8  19
BRANCH   1  23
ATOM     22  C   UNL     1       4.414   2.631  19.609  0.00  0.00    +0.000 C 
ATOM     23  O   UNL     1       5.334   3.624  19.177  0.00  0.00    +0.000 OA
ENDBRANCH   1  23
TORSDOF 3
ENDMDL
MODEL 4
REMARK VINA RESULT:      -6.6      3.658      6.890
REMARK  Name = 
REMARK  4 active torsions:
REMARK  status: ('A' for Active; 'I' for Inactive)
REMARK    1  A    between atoms: C_1  and  O_2
REMARK    2  A    between atoms: O_2  and  C_3
REMARK    3  A    between atoms: C_6  and  C_8
REMARK    4  A    between atoms: C_19  and  N_20
REMARK                            x       y       z     vdW  Elec       q    Type
REMARK                         _______ _______ _______ _____ _____    ______ ____
ROOT
ATOM      1  C   UNL     1       5.447   3.764  17.739  0.00  0.00    +0.000 C 
ATOM      2  C   UNL     1       4.156   4.274  17.070  0.00  0.00    +0.000 C 
ATOM      3  N   UNL     1       3.776   5.601  17.568  0.00  0.00    +0.000 N 
ATOM      4  C   UNL     1       2.548   5.721  18.236  0.00  0.00    +0.000 C 
ATOM      5  O   UNL     1       1.823   4.740  18.404  0.00  0.00    +0.000 OA
ATOM      6  C   UNL     1       4.820   6.622  17.455  0.00  0.00    +0.000 C 
ATOM      7  C   UNL     1       6.161   6.163  18.027  0.00  0.00    +0.000 C 
ATOM      8  C   UNL     1       6.568   4.798  17.459  0.00  0.00    +0.000 C 
ENDROOT
BRANCH   4   9
ATOM      9  C   UNL     1       2.133   7.014  18.737  0.00  0.00    +0.000 A 
ATOM     10  C   UNL     1       1.791   7.338  20.041  0.00  0.00    +0.000 A 
ATOM     11  C   UNL     1       1.464   8.719  20.095  0.00  0.00    +0.000 A 
ATOM     12  C   UNL     1       1.093   9.601  21.127  0.00  0.00    +0.000 A 
ATOM     13  C   UNL     1       0.871  10.948  20.823  0.00  0.00    +0.000 A 
ATOM     14  C   UNL     1       1.014  11.419  19.518  0.00  0.00    +0.000 A 
ATOM     15  C   UNL     1       1.363  10.555  18.476  0.00  0.00    +0.000 A 
ATOM     16  C   UNL     1       1.573   9.211  18.799  0.00  0.00    +0.000 A 
ATOM     17  N   UNL     1       1.883   8.142  17.990  0.00  0.00    +0.000 N 
ATOM     18  H   UNL     1       1.952   8.193  16.985  0.00  0.00    +0.000 HD
ENDBRANCH   4   9
BRANCH   8  19
ATOM     19  N   UNL     1       7.850   4.371  18.042  0.00  0.00    +0.000 NA
ATOM     20  H   UNL     1       8.321   3.789  17.341  0.00  0.00    +0.000 HD
ATOM     21  H   UNL     1       7.686   3.764  18.844  0.00  0.00    +0.000 HD
ENDBRANCH   8  19
BRANCH   1  23
ATOM     22  C   UNL     1       4.399   2.650  19.595  0.00  0.00    +0.000 C 
ATOM     23  O   UNL     1       5.335   3.629  19.171  0.00  0.00    +0.000 OA
ENDBRANCH   1  23
TORSDOF 3
ENDMDL
MODEL 5
REMARK VINA RESULT:      -6.5      3.960      7.020
REMARK  Name = 
REMARK  4 active torsions:
REMARK  status: ('A' for Active; 'I' for Inactive)
REMARK    1  A    between atoms: C_1  and  O_2
REMARK    2  A    between atoms: O_2  and  C_3
REMARK    3  A    between atoms: C_6  and  C_8
REMARK    4  A    between atoms: C_19  and  N_20
REMARK                            x       y       z     vdW  Elec       q    Type
REMARK                         _______ _______ _______ _____ _____    ______ ____
ROOT
ATOM      1  C   UNL     1       3.001   2.791  18.873  0.00  0.00    +0.000 C 
ATOM      2  C   UNL     1       3.671   3.891  19.720  0.00  0.00    +0.000 C 
ATOM      3  N   UNL     1       2.775   5.034  19.928  0.00  0.00    +0.000 N 
ATOM      4  C   UNL     1       3.172   6.278  19.414  0.00  0.00    +0.000 C 
ATOM      5  O   UNL     1       4.234   6.397  18.801  0.00  0.00    +0.000 OA
ATOM      6  C   UNL     1       1.473   4.698  20.509  0.00  0.00    +0.000 C 
ATOM      7  C   UNL     1       0.775   3.555  19.772  0.00  0.00    +0.000 C 
ATOM      8  C   UNL     1       1.708   2.350  19.606  0.00  0.00    +0.000 C 
ENDROOT
BRANCH   4   9
ATOM      9  C   UNL     1       2.320   7.433  19.605  0.00  0.00    +0.000 A 
ATOM     10  C   UNL     1       1.947   8.366  18.650  0.00  0.00    +0.000 A 
ATOM     11  C   UNL     1       1.091   9.321  19.259  0.00  0.00    +0.000 A 
ATOM     12  C   UNL     1       0.384  10.446  18.792  0.00  0.00    +0.000 A 
ATOM     13  C   UNL     1      -0.418  11.164  19.686  0.00  0.00    +0.000 A 
ATOM     14  C   UNL     1      -0.522  10.777  21.021  0.00  0.00    +0.000 A 
ATOM     15  C   UNL     1       0.187   9.674  21.508  0.00  0.00    +0.000 A 
ATOM     16  C   UNL     1       0.989   8.974  20.601  0.00  0.00    +0.000 A 
ATOM     17  N   UNL     1       1.815   7.892  20.799  0.00  0.00    +0.000 N 
ATOM     18  H   UNL     1       1.994   7.473  21.698  0.00  0.00    +0.000 HD
ENDBRANCH   4   9
BRANCH   8  19
ATOM     19  N   UNL     1       1.018   1.274  18.875  0.00  0.00    +0.000 NA
ATOM     20  H   UNL     1       1.453   1.213  17.948  0.00  0.00    +0.000 HD
ATOM     21  H   UNL     1       0.046   1.529  18.712  0.00  0.00    +0.000 HD
ENDBRANCH   8  19
BRANCH   1  23
ATOM     22  C   UNL     1       3.702   3.659  16.743  0.00  0.00    +0.000 C 
ATOM     23  O   UNL     1       2.618   3.236  17.556  0.00  0.00    +0.000 OA
ENDBRANCH   1  23
TORSDOF 3
ENDMDL
MODEL 6
REMARK VINA RESULT:      -6.3      1.226      1.300
REMARK  Name = 
REMARK  4 active torsions:
REMARK  status: ('A' for Active; 'I' for Inactive)
REMARK    1  A    between atoms: C_1  and  O_2
REMARK    2  A    between atoms: O_2  and  C_3
REMARK    3  A    between atoms: C_6  and  C_8
REMARK    4  A    between atoms: C_19  and  N_20
REMARK                            x       y       z     vdW  Elec       q    Type
REMARK                         _______ _______ _______ _____ _____    ______ ____
ROOT
ATOM      1  C   UNL     1       3.864   5.378  19.883  0.00  0.00    +0.000 C 
ATOM      2  C   UNL     1       5.286   5.767  19.435  0.00  0.00    +0.000 C 
ATOM      3  N   UNL     1       5.441   5.671  17.980  0.00  0.00    +0.000 N 
ATOM      4  C   UNL     1       6.378   4.753  17.481  0.00  0.00    +0.000 C 
ATOM      5  O   UNL     1       7.039   4.048  18.245  0.00  0.00    +0.000 OA
ATOM      6  C   UNL     1       4.460   6.434  17.205  0.00  0.00    +0.000 C 
ATOM      7  C   UNL     1       3.021   6.165  17.642  0.00  0.00    +0.000 C 
ATOM      8  C   UNL     1       2.865   6.318  19.160  0.00  0.00    +0.000 C 
ENDROOT
BRANCH   4   9
ATOM      9  C   UNL     1       6.566   4.633  16.051  0.00  0.00    +0.000 A 
ATOM     10  C   UNL     1       5.940   3.738  15.196  0.00  0.00    +0.000 A 
ATOM     11  C   UNL     1       6.402   3.976  13.874  0.00  0.00    +0.000 A 
ATOM     12  C   UNL     1       6.100   3.424  12.614  0.00  0.00    +0.000 A 
ATOM     13  C   UNL     1       6.738   3.935  11.478  0.00  0.00    +0.000 A 
ATOM     14  C   UNL     1       7.659   4.976  11.584  0.00  0.00    +0.000 A 
ATOM     15  C   UNL     1       7.986   5.524  12.828  0.00  0.00    +0.000 A 
ATOM     16  C   UNL     1       7.345   4.995  13.952  0.00  0.00    +0.000 A 
ATOM     17  N   UNL     1       7.492   5.302  15.285  0.00  0.00    +0.000 N 
ATOM     18  H   UNL     1       8.166   5.961  15.643  0.00  0.00    +0.000 HD
ENDBRANCH   4   9
BRANCH   8  19
ATOM     19  N   UNL     1       1.476   6.031  19.557  0.00  0.00    +0.000 NA
ATOM     20  H   UNL     1       1.442   5.048  19.844  0.00  0.00    +0.000 HD
ATOM     21  H   UNL     1       0.858   6.109  18.751  0.00  0.00    +0.000 HD
ENDBRANCH   8  19
BRANCH   1  23
ATOM     22  C   UNL     1       4.286   3.030  20.184  0.00  0.00    +0.000 C 
ATOM     23  O   UNL     1       3.505   4.024  19.538  0.00  0.00    +0.000 OA
ENDBRANCH   1  23
TORSDOF 3
ENDMDL
MODEL 7
REMARK VINA RESULT:      -6.1      4.038      7.063
REMARK  Name = 
REMARK  4 active torsions:
REMARK  status: ('A' for Active; 'I' for Inactive)
REMARK    1  A    between atoms: C_1  and  O_2
REMARK    2  A    between atoms: O_2  and  C_3
REMARK    3  A    between atoms: C_6  and  C_8
REMARK    4  A    between atoms: C_19  and  N_20
REMARK                            x       y       z     vdW  Elec       q    Type
REMARK                         _______ _______ _______ _____ _____    ______ ____
ROOT
ATOM      1  C   UNL     1       3.063   2.956  18.890  0.00  0.00    +0.000 C 
ATOM      2  C   UNL     1       3.713   4.086  19.712  0.00  0.00    +0.000 C 
ATOM      3  N   UNL     1       2.780   5.194  19.942  0.00  0.00    +0.000 N 
ATOM      4  C   UNL     1       3.113   6.450  19.412  0.00  0.00    +0.000 C 
ATOM      5  O   UNL     1       4.151   6.607  18.768  0.00  0.00    +0.000 OA
ATOM      6  C   UNL     1       1.509   4.811  20.561  0.00  0.00    +0.000 C 
ATOM      7  C   UNL     1       0.834   3.638  19.850  0.00  0.00    +0.000 C 
ATOM      8  C   UNL     1       1.809   2.469  19.662  0.00  0.00    +0.000 C 
ENDROOT
BRANCH   4   9
ATOM      9  C   UNL     1       2.222   7.572  19.622  0.00  0.00    +0.000 A 
ATOM     10  C   UNL     1       1.541   7.893  20.786  0.00  0.00    +0.000 A 
ATOM     11  C   UNL     1       0.794   9.080  20.562  0.00  0.00    +0.000 A 
ATOM     12  C   UNL     1      -0.034   9.887  21.365  0.00  0.00    +0.000 A 
ATOM     13  C   UNL     1      -0.600  11.041  20.814  0.00  0.00    +0.000 A 
ATOM     14  C   UNL     1      -0.353  11.394  19.488  0.00  0.00    +0.000 A 
ATOM     15  C   UNL     1       0.451  10.596  18.669  0.00  0.00    +0.000 A 
ATOM     16  C   UNL     1       1.002   9.443  19.236  0.00  0.00    +0.000 A 
ATOM     17  N   UNL     1       1.787   8.465  18.671  0.00  0.00    +0.000 N 
ATOM     18  H   UNL     1       2.037   8.432  17.695  0.00  0.00    +0.000 HD
ENDBRANCH   4   9
BRANCH   8  19
ATOM     19  N   UNL     1       1.141   1.363  18.955  0.00  0.00    +0.000 NA
ATOM     20  H   UNL     1       0.908   0.654  19.658  0.00  0.00    +0.000 HD
ATOM     21  H   UNL     1       1.789   0.915  18.311  0.00  0.00    +0.000 HD
ENDBRANCH   8  19
BRANCH   1  23
ATOM     22  C   UNL     1       3.673   3.796  16.721  0.00  0.00    +0.000 C 
ATOM     23  O   UNL     1       2.624   3.379  17.583  0.00  0.00    +0.000 OA
ENDBRANCH   1  23
TORSDOF 3
ENDMDL
MODEL 8
REMARK VINA RESULT:      -6.1      5.963      8.061
REMARK  Name = 
REMARK  4 active torsions:
REMARK  status: ('A' for Active; 'I' for Inactive)
REMARK    1  A    between atoms: C_1  and  O_2
REMARK    2  A    between atoms: O_2  and  C_3
REMARK    3  A    between atoms: C_6  and  C_8
REMARK    4  A    between atoms: C_19  and  N_20
REMARK                            x       y       z     vdW  Elec       q    Type
REMARK                         _______ _______ _______ _____ _____    ______ ____
ROOT
ATOM      1  C   UNL     1      -0.702  12.052  20.779  0.00  0.00    +0.000 C 
ATOM      2  C   UNL     1       0.768  11.587  20.801  0.00  0.00    +0.000 C 
ATOM      3  N   UNL     1       0.915  10.230  20.264  0.00  0.00    +0.000 N 
ATOM      4  C   UNL     1       1.403   9.235  21.125  0.00  0.00    +0.000 C 
ATOM      5  O   UNL     1       1.689   9.498  22.294  0.00  0.00    +0.000 OA
ATOM      6  C   UNL     1       0.363  10.036  18.921  0.00  0.00    +0.000 C 
ATOM      7  C   UNL     1      -1.072  10.547  18.792  0.00  0.00    +0.000 C 
ATOM      8  C   UNL     1      -1.198  11.984  19.312  0.00  0.00    +0.000 C 
ENDROOT
BRANCH   4   9
ATOM      9  C   UNL     1       1.570   7.885  20.631  0.00  0.00    +0.000 A 
ATOM     10  C   UNL     1       1.058   6.721  21.185  0.00  0.00    +0.000 A 
ATOM     11  C   UNL     1       1.446   5.623  20.373  0.00  0.00    +0.000 A 
ATOM     12  C   UNL     1       1.195   4.238  20.407  0.00  0.00    +0.000 A 
ATOM     13  C   UNL     1       1.723   3.426  19.397  0.00  0.00    +0.000 A 
ATOM     14  C   UNL     1       2.487   3.973  18.368  0.00  0.00    +0.000 A 
ATOM     15  C   UNL     1       2.764   5.344  18.327  0.00  0.00    +0.000 A 
ATOM     16  C   UNL     1       2.234   6.137  19.349  0.00  0.00    +0.000 A 
ATOM     17  N   UNL     1       2.370   7.485  19.586  0.00  0.00    +0.000 N 
ATOM     18  H   UNL     1       2.951   8.101  19.039  0.00  0.00    +0.000 HD
ENDBRANCH   4   9
BRANCH   8  19
ATOM     19  N   UNL     1      -2.594  12.442  19.196  0.00  0.00    +0.000 NA
ATOM     20  H   UNL     1      -3.181  11.732  19.647  0.00  0.00    +0.000 HD
ATOM     21  H   UNL     1      -2.877  12.459  18.218  0.00  0.00    +0.000 HD
ENDBRANCH   8  19
BRANCH   1  23
ATOM     22  C   UNL     1      -1.392  11.340  22.970  0.00  0.00    +0.000 C 
ATOM     23  O   UNL     1      -1.577  11.219  21.567  0.00  0.00    +0.000 OA
ENDBRANCH   1  23
TORSDOF 3
ENDMDL
MODEL 9
REMARK VINA RESULT:      -6.1      4.465      7.288
REMARK  Name = 
REMARK  4 active torsions:
REMARK  status: ('A' for Active; 'I' for Inactive)
REMARK    1  A    between atoms: C_1  and  O_2
REMARK    2  A    between atoms: O_2  and  C_3
REMARK    3  A    between atoms: C_6  and  C_8
REMARK    4  A    between atoms: C_19  and  N_20
REMARK                            x       y       z     vdW  Elec       q    Type
REMARK                         _______ _______ _______ _____ _____    ______ ____
ROOT
ATOM      1  C   UNL     1       3.312   3.855  19.204  0.00  0.00    +0.000 C 
ATOM      2  C   UNL     1       3.894   5.247  19.517  0.00  0.00    +0.000 C 
ATOM      3  N   UNL     1       2.837   6.254  19.669  0.00  0.00    +0.000 N 
ATOM      4  C   UNL     1       2.820   7.326  18.763  0.00  0.00    +0.000 C 
ATOM      5  O   UNL     1       3.661   7.407  17.867  0.00  0.00    +0.000 OA
ATOM      6  C   UNL     1       1.809   5.923  20.659  0.00  0.00    +0.000 C 
ATOM      7  C   UNL     1       1.234   4.520  20.467  0.00  0.00    +0.000 C 
ATOM      8  C   UNL     1       2.350   3.473  20.359  0.00  0.00    +0.000 C 
ENDROOT
BRANCH   4   9
ATOM      9  C   UNL     1       1.799   8.344  18.884  0.00  0.00    +0.000 A 
ATOM     10  C   UNL     1       1.069   8.925  17.858  0.00  0.00    +0.000 A 
ATOM     11  C   UNL     1       0.163   9.863  18.419  0.00  0.00    +0.000 A 
ATOM     12  C   UNL     1      -0.835  10.703  17.891  0.00  0.00    +0.000 A 
ATOM     13  C   UNL     1      -1.587  11.497  18.763  0.00  0.00    +0.000 A 
ATOM     14  C   UNL     1      -1.358  11.463  20.137  0.00  0.00    +0.000 A 
ATOM     15  C   UNL     1      -0.359  10.649  20.680  0.00  0.00    +0.000 A 
ATOM     16  C   UNL     1       0.387   9.869  19.792  0.00  0.00    +0.000 A 
ATOM     17  N   UNL     1       1.441   9.017  20.029  0.00  0.00    +0.000 N 
ATOM     18  H   UNL     1       1.867   8.881  20.932  0.00  0.00    +0.000 HD
ENDBRANCH   4   9
BRANCH   8  19
ATOM     19  N   UNL     1       1.769   2.135  20.153  0.00  0.00    +0.000 NA
ATOM     20  H   UNL     1       2.089   1.806  19.236  0.00  0.00    +0.000 HD
ATOM     21  H   UNL     1       0.755   2.200  20.088  0.00  0.00    +0.000 HD
ENDBRANCH   8  19
BRANCH   1  23
ATOM     22  C   UNL     1       3.339   3.802  16.800  0.00  0.00    +0.000 C 
ATOM     23  O   UNL     1       2.550   3.814  17.980  0.00  0.00    +0.000 OA
ENDBRANCH   1  23
TORSDOF 3
ENDMDL
