MODEL 1
REMARK VINA RESULT:      -7.4      0.000      0.000
REMARK  Name = 
REMARK  2 active torsions:
REMARK  status: ('A' for Active; 'I' for Inactive)
REMARK    1  A    between atoms: C_4  and  C_5
REMARK    2  A    between atoms: C_8  and  N_9
REMARK                            x       y       z     vdW  Elec       q    Type
REMARK                         _______ _______ _______ _____ _____    ______ ____
ROOT
ATOM      1  C   UNL     1       6.345   5.260  15.430  0.00  0.00    +0.000 A 
ATOM      2  N   UNL     1       5.368   6.182  15.106  0.00  0.00    +0.000 NA
ATOM      3  N   UNL     1       4.700   6.784  16.073  0.00  0.00    +0.000 NA
ATOM      4  C   UNL     1       5.067   6.445  17.299  0.00  0.00    +0.000 A 
ATOM      5  C   UNL     1       6.449   6.389  17.378  0.00  0.00    +0.000 A 
ATOM      6  C   UNL     1       7.224   7.177  18.242  0.00  0.00    +0.000 A 
ATOM      7  C   UNL     1       8.153   6.531  19.022  0.00  0.00    +0.000 A 
ATOM      8  C   UNL     1       8.297   5.153  18.850  0.00  0.00    +0.000 A 
ATOM      9  C   UNL     1       7.796   4.542  17.670  0.00  0.00    +0.000 A 
ATOM     10  C   UNL     1       6.955   5.293  16.754  0.00  0.00    +0.000 A 
ENDROOT
BRANCH   1  14
ATOM     11  C   UNL     1       6.102   3.670  11.543  0.00  0.00    +0.000 A 
ATOM     12  C   UNL     1       7.270   4.300  11.983  0.00  0.00    +0.000 A 
ATOM     13  C   UNL     1       7.440   4.572  13.355  0.00  0.00    +0.000 A 
ATOM     14  C   UNL     1       6.422   4.323  14.297  0.00  0.00    +0.000 A 
ATOM     15  C   UNL     1       5.306   3.590  13.858  0.00  0.00    +0.000 A 
ATOM     16  C   UNL     1       5.157   3.282  12.498  0.00  0.00    +0.000 A 
ENDBRANCH   1  14
BRANCH   4  17
ATOM     17  N   UNL     1       4.437   5.305  17.876  0.00  0.00    +0.000 N 
ATOM     18  C   UNL     1       3.356   4.570  17.196  0.00  0.00    +0.000 C 
ATOM     19  C   UNL     1       2.025   4.931  17.843  0.00  0.00    +0.000 C 
ATOM     20  O   UNL     1       2.059   4.685  19.264  0.00  0.00    +0.000 OA
ATOM     21  C   UNL     1       3.121   5.434  19.893  0.00  0.00    +0.000 C 
ATOM     22  C   UNL     1       4.495   5.075  19.312  0.00  0.00    +0.000 C 
ENDBRANCH   4  17
TORSDOF 2
ENDMDL
MODEL 2
REMARK VINA RESULT:      -7.1      3.104      5.905
REMARK  Name = 
REMARK  2 active torsions:
REMARK  status: ('A' for Active; 'I' for Inactive)
REMARK    1  A    between atoms: C_4  and  C_5
REMARK    2  A    between atoms: C_8  and  N_9
REMARK                            x       y       z     vdW  Elec       q    Type
REMARK                         _______ _______ _______ _____ _____    ______ ____
ROOT
ATOM      1  C   UNL     1       2.922   7.117  19.173  0.00  0.00    +0.000 A 
ATOM      2  N   UNL     1       2.532   6.462  20.326  0.00  0.00    +0.000 NA
ATOM      3  N   UNL     1       2.868   5.196  20.496  0.00  0.00    +0.000 NA
ATOM      4  C   UNL     1       3.592   4.675  19.518  0.00  0.00    +0.000 A 
ATOM      5  C   UNL     1       4.566   5.575  19.121  0.00  0.00    +0.000 A 
ATOM      6  C   UNL     1       5.944   5.323  19.175  0.00  0.00    +0.000 A 
ATOM      7  C   UNL     1       6.675   5.565  18.036  0.00  0.00    +0.000 A 
ATOM      8  C   UNL     1       6.001   6.101  16.937  0.00  0.00    +0.000 A 
ATOM      9  C   UNL     1       4.737   6.719  17.127  0.00  0.00    +0.000 A 
ATOM     10  C   UNL     1       4.050   6.608  18.402  0.00  0.00    +0.000 A 
ENDROOT
BRANCH   1  14
ATOM     11  C   UNL     1       1.093  10.896  18.919  0.00  0.00    +0.000 A 
ATOM     12  C   UNL     1       1.792  10.369  17.830  0.00  0.00    +0.000 A 
ATOM     13  C   UNL     1       2.152   9.007  17.827  0.00  0.00    +0.000 A 
ATOM     14  C   UNL     1       1.922   8.172  18.938  0.00  0.00    +0.000 A 
ATOM     15  C   UNL     1       1.122   8.685  19.974  0.00  0.00    +0.000 A 
ATOM     16  C   UNL     1       0.727  10.031  19.955  0.00  0.00    +0.000 A 
ENDBRANCH   1  14
BRANCH   4  17
ATOM     17  N   UNL     1       2.886   4.108  18.417  0.00  0.00    +0.000 N 
ATOM     18  C   UNL     1       1.416   4.008  18.387  0.00  0.00    +0.000 C 
ATOM     19  C   UNL     1       1.009   2.567  18.662  0.00  0.00    +0.000 C 
ATOM     20  O   UNL     1       1.649   1.664  17.737  0.00  0.00    +0.000 OA
ATOM     21  C   UNL     1       3.086   1.783  17.809  0.00  0.00    +0.000 C 
ATOM     22  C   UNL     1       3.559   3.207  17.492  0.00  0.00    +0.000 C 
ENDBRANCH   4  17
TORSDOF 2
ENDMDL
MODEL 3
REMARK VINA RESULT:      -6.8      1.984      3.192
REMARK  Name = 
REMARK  2 active torsions:
REMARK  status: ('A' for Active; 'I' for Inactive)
REMARK    1  A    between atoms: C_4  and  C_5
REMARK    2  A    between atoms: C_8  and  N_9
REMARK                            x       y       z     vdW  Elec       q    Type
REMARK                         _______ _______ _______ _____ _____    ______ ____
ROOT
ATOM      1  C   UNL     1       5.562   4.616  16.341  0.00  0.00    +0.000 A 
ATOM      2  N   UNL     1       6.300   5.591  16.986  0.00  0.00    +0.000 NA
ATOM      3  N   UNL     1       5.891   6.047  18.155  0.00  0.00    +0.000 NA
ATOM      4  C   UNL     1       4.786   5.483  18.617  0.00  0.00    +0.000 A 
ATOM      5  C   UNL     1       4.835   4.114  18.416  0.00  0.00    +0.000 A 
ATOM      6  C   UNL     1       4.777   3.161  19.443  0.00  0.00    +0.000 A 
ATOM      7  C   UNL     1       3.867   2.140  19.305  0.00  0.00    +0.000 A 
ATOM      8  C   UNL     1       3.120   2.094  18.127  0.00  0.00    +0.000 A 
ATOM      9  C   UNL     1       3.560   2.826  16.992  0.00  0.00    +0.000 A 
ATOM     10  C   UNL     1       4.649   3.779  17.111  0.00  0.00    +0.000 A 
ENDROOT
BRANCH   1  14
ATOM     11  C   UNL     1       6.856   3.894  12.405  0.00  0.00    +0.000 A 
ATOM     12  C   UNL     1       5.589   3.480  12.826  0.00  0.00    +0.000 A 
ATOM     13  C   UNL     1       5.063   3.968  14.038  0.00  0.00    +0.000 A 
ATOM     14  C   UNL     1       5.817   4.787  14.901  0.00  0.00    +0.000 A 
ATOM     15  C   UNL     1       7.038   5.283  14.414  0.00  0.00    +0.000 A 
ATOM     16  C   UNL     1       7.542   4.829  13.186  0.00  0.00    +0.000 A 
ENDBRANCH   1  14
BRANCH   4  17
ATOM     17  N   UNL     1       3.544   6.054  18.211  0.00  0.00    +0.000 N 
ATOM     18  C   UNL     1       3.465   7.186  17.271  0.00  0.00    +0.000 C 
ATOM     19  C   UNL     1       3.150   8.457  18.048  0.00  0.00    +0.000 C 
ATOM     20  O   UNL     1       1.949   8.298  18.833  0.00  0.00    +0.000 OA
ATOM     21  C   UNL     1       2.075   7.189  19.749  0.00  0.00    +0.000 C 
ATOM     22  C   UNL     1       2.346   5.869  19.016  0.00  0.00    +0.000 C 
ENDBRANCH   4  17
TORSDOF 2
ENDMDL
MODEL 4
REMARK VINA RESULT:      -6.6      2.966      5.604
REMARK  Name = 
REMARK  2 active torsions:
REMARK  status: ('A' for Active; 'I' for Inactive)
REMARK    1  A    between atoms: C_4  and  C_5
REMARK    2  A    between atoms: C_8  and  N_9
REMARK                            x       y       z     vdW  Elec       q    Type
REMARK                         _______ _______ _______ _____ _____    ______ ____
ROOT
ATOM      1  C   UNL     1       3.162   7.578  18.177  0.00  0.00    +0.000 A 
ATOM      2  N   UNL     1       2.783   7.175  19.444  0.00  0.00    +0.000 NA
ATOM      3  N   UNL     1       3.059   5.946  19.842  0.00  0.00    +0.000 NA
ATOM      4  C   UNL     1       3.716   5.209  18.961  0.00  0.00    +0.000 A 
ATOM      5  C   UNL     1       4.720   5.960  18.373  0.00  0.00    +0.000 A 
ATOM      6  C   UNL     1       6.084   5.642  18.435  0.00  0.00    +0.000 A 
ATOM      7  C   UNL     1       6.782   5.622  17.250  0.00  0.00    +0.000 A 
ATOM      8  C   UNL     1       6.095   5.980  16.089  0.00  0.00    +0.000 A 
ATOM      9  C   UNL     1       4.873   6.696  16.194  0.00  0.00    +0.000 A 
ATOM     10  C   UNL     1       4.231   6.867  17.485  0.00  0.00    +0.000 A 
ENDROOT
BRANCH   1  14
ATOM     11  C   UNL     1       0.389  10.735  18.362  0.00  0.00    +0.000 A 
ATOM     12  C   UNL     1       1.760  10.995  18.281  0.00  0.00    +0.000 A 
ATOM     13  C   UNL     1       2.647   9.955  17.939  0.00  0.00    +0.000 A 
ATOM     14  C   UNL     1       2.210   8.626  17.774  0.00  0.00    +0.000 A 
ATOM     15  C   UNL     1       0.822   8.404  17.748  0.00  0.00    +0.000 A 
ATOM     16  C   UNL     1      -0.063   9.449  18.047  0.00  0.00    +0.000 A 
ENDBRANCH   1  14
BRANCH   4  17
ATOM     17  N   UNL     1       2.940   4.487  18.008  0.00  0.00    +0.000 N 
ATOM     18  C   UNL     1       1.469   4.430  18.067  0.00  0.00    +0.000 C 
ATOM     19  C   UNL     1       1.044   3.070  18.603  0.00  0.00    +0.000 C 
ATOM     20  O   UNL     1       1.613   2.004  17.814  0.00  0.00    +0.000 OA
ATOM     21  C   UNL     1       3.054   2.087  17.795  0.00  0.00    +0.000 C 
ATOM     22  C   UNL     1       3.541   3.423  17.218  0.00  0.00    +0.000 C 
ENDBRANCH   4  17
TORSDOF 2
ENDMDL
MODEL 5
REMARK VINA RESULT:      -6.4      3.173      6.757
REMARK  Name = 
REMARK  2 active torsions:
REMARK  status: ('A' for Active; 'I' for Inactive)
REMARK    1  A    between atoms: C_4  and  C_5
REMARK    2  A    between atoms: C_8  and  N_9
REMARK                            x       y       z     vdW  Elec       q    Type
REMARK                         _______ _______ _______ _____ _____    ______ ____
ROOT
ATOM      1  C   UNL     1       2.421   6.942  18.680  0.00  0.00    +0.000 A 
ATOM      2  N   UNL     1       2.763   7.472  17.450  0.00  0.00    +0.000 NA
ATOM      3  N   UNL     1       3.647   6.844  16.698  0.00  0.00    +0.000 NA
ATOM      4  C   UNL     1       4.114   5.716  17.210  0.00  0.00    +0.000 A 
ATOM      5  C   UNL     1       3.078   4.988  17.768  0.00  0.00    +0.000 A 
ATOM      6  C   UNL     1       2.709   3.697  17.362  0.00  0.00    +0.000 A 
ATOM      7  C   UNL     1       2.576   2.741  18.341  0.00  0.00    +0.000 A 
ATOM      8  C   UNL     1       2.754   3.143  19.666  0.00  0.00    +0.000 A 
ATOM      9  C   UNL     1       2.684   4.524  19.991  0.00  0.00    +0.000 A 
ATOM     10  C   UNL     1       2.645   5.525  18.940  0.00  0.00    +0.000 A 
ENDROOT
BRANCH   1  14
ATOM     11  C   UNL     1       0.038   9.629  20.870  0.00  0.00    +0.000 A 
ATOM     12  C   UNL     1       0.574   8.491  21.481  0.00  0.00    +0.000 A 
ATOM     13  C   UNL     1       1.586   7.761  20.827  0.00  0.00    +0.000 A 
ATOM     14  C   UNL     1       2.010   8.079  19.521  0.00  0.00    +0.000 A 
ATOM     15  C   UNL     1       1.544   9.285  18.970  0.00  0.00    +0.000 A 
ATOM     16  C   UNL     1       0.567  10.034  19.642  0.00  0.00    +0.000 A 
ENDBRANCH   1  14
BRANCH   4  17
ATOM     17  N   UNL     1       5.246   5.811  18.071  0.00  0.00    +0.000 N 
ATOM     18  C   UNL     1       6.032   7.050  18.209  0.00  0.00    +0.000 C 
ATOM     19  C   UNL     1       7.338   6.899  17.440  0.00  0.00    +0.000 C 
ATOM     20  O   UNL     1       8.060   5.728  17.874  0.00  0.00    +0.000 OA
ATOM     21  C   UNL     1       7.261   4.537  17.708  0.00  0.00    +0.000 C 
ATOM     22  C   UNL     1       5.950   4.612  18.501  0.00  0.00    +0.000 C 
ENDBRANCH   4  17
TORSDOF 2
ENDMDL
MODEL 6
REMARK VINA RESULT:      -6.4      2.617      5.451
REMARK  Name = 
REMARK  2 active torsions:
REMARK  status: ('A' for Active; 'I' for Inactive)
REMARK    1  A    between atoms: C_4  and  C_5
REMARK    2  A    between atoms: C_8  and  N_9
REMARK                            x       y       z     vdW  Elec       q    Type
REMARK                         _______ _______ _______ _____ _____    ______ ____
ROOT
ATOM      1  C   UNL     1       3.611   6.308  18.695  0.00  0.00    +0.000 A 
ATOM      2  N   UNL     1       3.621   5.679  19.926  0.00  0.00    +0.000 NA
ATOM      3  N   UNL     1       4.108   4.456  20.023  0.00  0.00    +0.000 NA
ATOM      4  C   UNL     1       4.576   3.950  18.893  0.00  0.00    +0.000 A 
ATOM      5  C   UNL     1       5.312   4.908  18.216  0.00  0.00    +0.000 A 
ATOM      6  C   UNL     1       6.668   4.775  17.885  0.00  0.00    +0.000 A 
ATOM      7  C   UNL     1       7.026   5.022  16.581  0.00  0.00    +0.000 A 
ATOM      8  C   UNL     1       6.025   5.446  15.705  0.00  0.00    +0.000 A 
ATOM      9  C   UNL     1       4.811   5.964  16.230  0.00  0.00    +0.000 A 
ATOM     10  C   UNL     1       4.521   5.858  17.649  0.00  0.00    +0.000 A 
ENDROOT
BRANCH   1  14
ATOM     11  C   UNL     1       1.424   9.883  19.055  0.00  0.00    +0.000 A 
ATOM     12  C   UNL     1       1.943   9.487  17.819  0.00  0.00    +0.000 A 
ATOM     13  C   UNL     1       2.421   8.172  17.654  0.00  0.00    +0.000 A 
ATOM     14  C   UNL     1       2.490   7.263  18.728  0.00  0.00    +0.000 A 
ATOM     15  C   UNL     1       1.864   7.638  19.929  0.00  0.00    +0.000 A 
ATOM     16  C   UNL     1       1.351   8.934  20.079  0.00  0.00    +0.000 A 
ENDBRANCH   1  14
BRANCH   4  17
ATOM     17  N   UNL     1       3.648   3.273  18.049  0.00  0.00    +0.000 N 
ATOM     18  C   UNL     1       2.514   3.963  17.408  0.00  0.00    +0.000 C 
ATOM     19  C   UNL     1       1.233   3.610  18.151  0.00  0.00    +0.000 C 
ATOM     20  O   UNL     1       1.051   2.180  18.218  0.00  0.00    +0.000 OA
ATOM     21  C   UNL     1       2.176   1.546  18.865  0.00  0.00    +0.000 C 
ATOM     22  C   UNL     1       3.492   1.828  18.130  0.00  0.00    +0.000 C 
ENDBRANCH   4  17
TORSDOF 2
ENDMDL
MODEL 7
REMARK VINA RESULT:      -6.4      0.714      1.248
REMARK  Name = 
REMARK  2 active torsions:
REMARK  status: ('A' for Active; 'I' for Inactive)
REMARK    1  A    between atoms: C_4  and  C_5
REMARK    2  A    between atoms: C_8  and  N_9
REMARK                            x       y       z     vdW  Elec       q    Type
REMARK                         _______ _______ _______ _____ _____    ______ ____
ROOT
ATOM      1  C   UNL     1       6.082   5.691  15.430  0.00  0.00    +0.000 A 
ATOM      2  N   UNL     1       5.050   6.607  15.502  0.00  0.00    +0.000 NA
ATOM      3  N   UNL     1       4.436   6.802  16.655  0.00  0.00    +0.000 NA
ATOM      4  C   UNL     1       4.910   6.091  17.666  0.00  0.00    +0.000 A 
ATOM      5  C   UNL     1       6.294   6.095  17.638  0.00  0.00    +0.000 A 
ATOM      6  C   UNL     1       7.103   6.589  18.671  0.00  0.00    +0.000 A 
ATOM      7  C   UNL     1       8.113   5.774  19.126  0.00  0.00    +0.000 A 
ATOM      8  C   UNL     1       8.294   4.549  18.482  0.00  0.00    +0.000 A 
ATOM      9  C   UNL     1       7.727   4.345  17.197  0.00  0.00    +0.000 A 
ATOM     10  C   UNL     1       6.791   5.309  16.646  0.00  0.00    +0.000 A 
ENDROOT
BRANCH   1  14
ATOM     11  C   UNL     1       6.584   3.181  12.093  0.00  0.00    +0.000 A 
ATOM     12  C   UNL     1       5.367   3.219  12.779  0.00  0.00    +0.000 A 
ATOM     13  C   UNL     1       5.121   4.252  13.704  0.00  0.00    +0.000 A 
ATOM     14  C   UNL     1       6.106   5.201  14.042  0.00  0.00    +0.000 A 
ATOM     15  C   UNL     1       7.277   5.217  13.265  0.00  0.00    +0.000 A 
ATOM     16  C   UNL     1       7.503   4.212  12.314  0.00  0.00    +0.000 A 
ENDBRANCH   1  14
BRANCH   4  17
ATOM     17  N   UNL     1       4.368   4.785  17.854  0.00  0.00    +0.000 N 
ATOM     18  C   UNL     1       3.259   4.265  17.035  0.00  0.00    +0.000 C 
ATOM     19  C   UNL     1       1.976   4.301  17.855  0.00  0.00    +0.000 C 
ATOM     20  O   UNL     1       2.137   3.585  19.097  0.00  0.00    +0.000 OA
ATOM     21  C   UNL     1       3.223   4.136  19.874  0.00  0.00    +0.000 C 
ATOM     22  C   UNL     1       4.554   4.082  19.114  0.00  0.00    +0.000 C 
ENDBRANCH   4  17
TORSDOF 2
ENDMDL
MODEL 8
REMARK VINA RESULT:      -6.3      2.303      4.124
REMARK  Name = 
REMARK  2 active torsions:
REMARK  status: ('A' for Active; 'I' for Inactive)
REMARK    1  A    between atoms: C_4  and  C_5
REMARK    2  A    between atoms: C_8  and  N_9
REMARK                            x       y       z     vdW  Elec       q    Type
REMARK                         _______ _______ _______ _____ _____    ______ ____
ROOT
ATOM      1  C   UNL     1       4.944   3.895  17.875  0.00  0.00    +0.000 A 
ATOM      2  N   UNL     1       5.657   4.764  18.680  0.00  0.00    +0.000 NA
ATOM      3  N   UNL     1       5.023   5.454  19.610  0.00  0.00    +0.000 NA
ATOM      4  C   UNL     1       3.724   5.214  19.693  0.00  0.00    +0.000 A 
ATOM      5  C   UNL     1       3.488   3.853  19.596  0.00  0.00    +0.000 A 
ATOM      6  C   UNL     1       2.865   3.085  20.591  0.00  0.00    +0.000 A 
ATOM      7  C   UNL     1       1.822   2.278  20.204  0.00  0.00    +0.000 A 
ATOM      8  C   UNL     1       1.506   2.236  18.845  0.00  0.00    +0.000 A 
ATOM      9  C   UNL     1       2.457   2.692  17.893  0.00  0.00    +0.000 A 
ATOM     10  C   UNL     1       3.653   3.391  18.328  0.00  0.00    +0.000 A 
ENDROOT
BRANCH   1  14
ATOM     11  C   UNL     1       6.774   4.964  14.242  0.00  0.00    +0.000 A 
ATOM     12  C   UNL     1       7.490   5.012  15.441  0.00  0.00    +0.000 A 
ATOM     13  C   UNL     1       6.964   4.393  16.592  0.00  0.00    +0.000 A 
ATOM     14  C   UNL     1       5.683   3.808  16.604  0.00  0.00    +0.000 A 
ATOM     15  C   UNL     1       5.027   3.669  15.369  0.00  0.00    +0.000 A 
ATOM     16  C   UNL     1       5.572   4.250  14.215  0.00  0.00    +0.000 A 
ENDBRANCH   1  14
BRANCH   4  17
ATOM     17  N   UNL     1       2.865   5.981  18.853  0.00  0.00    +0.000 N 
ATOM     18  C   UNL     1       3.331   6.597  17.598  0.00  0.00    +0.000 C 
ATOM     19  C   UNL     1       3.519   8.091  17.817  0.00  0.00    +0.000 C 
ATOM     20  O   UNL     1       2.310   8.696  18.320  0.00  0.00    +0.000 OA
ATOM     21  C   UNL     1       1.897   8.075  19.557  0.00  0.00    +0.000 C 
ATOM     22  C   UNL     1       1.645   6.572  19.385  0.00  0.00    +0.000 C 
ENDBRANCH   4  17
TORSDOF 2
ENDMDL
MODEL 9
REMARK VINA RESULT:      -6.3      7.021      9.609
REMARK  Name = 
REMARK  2 active torsions:
REMARK  status: ('A' for Active; 'I' for Inactive)
REMARK    1  A    between atoms: C_4  and  C_5
REMARK    2  A    between atoms: C_8  and  N_9
REMARK                            x       y       z     vdW  Elec       q    Type
REMARK                         _______ _______ _______ _____ _____    ______ ____
ROOT
ATOM      1  C   UNL     1       0.570   9.939  20.151  0.00  0.00    +0.000 A 
ATOM      2  N   UNL     1       0.903  10.531  21.355  0.00  0.00    +0.000 NA
ATOM      3  N   UNL     1       0.620  11.807  21.549  0.00  0.00    +0.000 NA
ATOM      4  C   UNL     1       0.001  12.400  20.541  0.00  0.00    +0.000 A 
ATOM      5  C   UNL     1      -0.984  11.568  20.036  0.00  0.00    +0.000 A 
ATOM      6  C   UNL     1      -2.348  11.892  19.997  0.00  0.00    +0.000 A 
ATOM      7  C   UNL     1      -3.000  11.730  18.797  0.00  0.00    +0.000 A 
ATOM      8  C   UNL     1      -2.272  11.198  17.732  0.00  0.00    +0.000 A 
ATOM      9  C   UNL     1      -1.059  10.506  17.992  0.00  0.00    +0.000 A 
ATOM     10  C   UNL     1      -0.467  10.535  19.318  0.00  0.00    +0.000 A 
ENDROOT
BRANCH   1  14
ATOM     11  C   UNL     1       2.256   6.288  18.918  0.00  0.00    +0.000 A 
ATOM     12  C   UNL     1       2.344   7.423  18.108  0.00  0.00    +0.000 A 
ATOM     13  C   UNL     1       2.032   8.688  18.643  0.00  0.00    +0.000 A 
ATOM     14  C   UNL     1       1.530   8.841  19.951  0.00  0.00    +0.000 A 
ATOM     15  C   UNL     1       1.554   7.710  20.785  0.00  0.00    +0.000 A 
ATOM     16  C   UNL     1       1.906   6.457  20.261  0.00  0.00    +0.000 A 
ENDBRANCH   1  14
BRANCH   4  17
ATOM     17  N   UNL     1       0.818  12.967  19.519  0.00  0.00    +0.000 N 
ATOM     18  C   UNL     1       2.286  13.034  19.627  0.00  0.00    +0.000 C 
ATOM     19  C   UNL     1       2.695  14.462  19.961  0.00  0.00    +0.000 C 
ATOM     20  O   UNL     1       2.163  15.392  18.995  0.00  0.00    +0.000 OA
ATOM     21  C   UNL     1       0.724  15.304  18.932  0.00  0.00    +0.000 C 
ATOM     22  C   UNL     1       0.253  13.895  18.550  0.00  0.00    +0.000 C 
ENDBRANCH   4  17
TORSDOF 2
ENDMDL
