MODEL 1
REMARK VINA RESULT:      -8.7      0.000      0.000
REMARK  Name = 
REMARK  4 active torsions:
REMARK  status: ('A' for Active; 'I' for Inactive)
REMARK    1  A    between atoms: N_1  and  C_2
REMARK    2  A    between atoms: C_3  and  C_4
REMARK    3  A    between atoms: C_7  and  N_8
REMARK    4  A    between atoms: N_11  and  C_12
REMARK                            x       y       z     vdW  Elec       q    Type
REMARK                         _______ _______ _______ _____ _____    ______ ____
ROOT
ATOM      1  C   UNL     1       1.896   8.357  19.236  0.00  0.00    +0.000 A 
ATOM      2  C   UNL     1       2.529   8.719  18.048  0.00  0.00    +0.000 A 
ATOM      3  C   UNL     1       3.420   7.835  17.432  0.00  0.00    +0.000 A 
ATOM      4  C   UNL     1       3.699   6.583  17.994  0.00  0.00    +0.000 A 
ATOM      5  C   UNL     1       3.041   6.212  19.167  0.00  0.00    +0.000 A 
ATOM      6  C   UNL     1       2.150   7.097  19.793  0.00  0.00    +0.000 A 
ENDROOT
BRANCH   1   8
ATOM      7  C   UNL     1       0.889   9.456  21.227  0.00  0.00    +0.000 A 
ATOM      8  C   UNL     1       0.966   9.285  19.888  0.00  0.00    +0.000 A 
ATOM      9  C   UNL     1       0.011  10.096  19.069  0.00  0.00    +0.000 A 
ATOM     10  N   UNL     1      -0.849  10.963  19.509  0.00  0.00    +0.000 NA
ATOM     11  C   UNL     1      -0.875  11.136  20.864  0.00  0.00    +0.000 A 
ATOM     12  C   UNL     1      -1.618  11.946  21.687  0.00  0.00    +0.000 A 
ATOM     13 BR   UNL     1      -2.952  13.168  21.220  0.00  0.00    +0.000 Br
ATOM     14  C   UNL     1      -1.181  11.698  22.990  0.00  0.00    +0.000 A 
ATOM     15  N   UNL     1      -0.211  10.781  23.032  0.00  0.00    +0.000 NA
ATOM     16  N   UNL     1      -0.039  10.411  21.723  0.00  0.00    +0.000 N 
BRANCH   7  17
ATOM     17  N   UNL     1       1.665   8.780  22.168  0.00  0.00    +0.000 N 
ATOM     18  H   UNL     1       1.285   8.776  23.110  0.00  0.00    +0.000 HD
ATOM     19  H   UNL     1       1.961   7.862  21.827  0.00  0.00    +0.000 HD
ENDBRANCH   7  17
ENDBRANCH   1   8
BRANCH   4  20
ATOM     20  N   UNL     1       4.602   5.672  17.399  0.00  0.00    +0.000 N 
ATOM     21  C   UNL     1       5.044   5.760  16.090  0.00  0.00    +0.000 C 
ATOM     22  O   UNL     1       4.855   6.723  15.357  0.00  0.00    +0.000 OA
ATOM     23  N   UNL     1       5.720   4.611  15.701  0.00  0.00    +0.000 N 
ATOM     24  H   UNL     1       5.176   5.113  18.015  0.00  0.00    +0.000 HD
ATOM     25  H   UNL     1       5.352   3.757  16.094  0.00  0.00    +0.000 HD
BRANCH  23  26
ATOM     26  C   UNL     1       6.331   4.513  14.429  0.00  0.00    +0.000 A 
ATOM     27  C   UNL     1       7.444   5.294  14.092  0.00  0.00    +0.000 A 
ATOM     28  C   UNL     1       8.013   5.202  12.822  0.00  0.00    +0.000 A 
ATOM     29  C   UNL     1       7.465   4.339  11.875  0.00  0.00    +0.000 A 
ATOM     30  C   UNL     1       6.361   3.555  12.206  0.00  0.00    +0.000 A 
ATOM     31  C   UNL     1       5.806   3.623  13.490  0.00  0.00    +0.000 A 
ENDBRANCH  23  26
ENDBRANCH   4  20
TORSDOF 4
ENDMDL
MODEL 2
REMARK VINA RESULT:      -8.4      0.764      1.952
REMARK  Name = 
REMARK  4 active torsions:
REMARK  status: ('A' for Active; 'I' for Inactive)
REMARK    1  A    between atoms: N_1  and  C_2
REMARK    2  A    between atoms: C_3  and  C_4
REMARK    3  A    between atoms: C_7  and  N_8
REMARK    4  A    between atoms: N_11  and  C_12
REMARK                            x       y       z     vdW  Elec       q    Type
REMARK                         _______ _______ _______ _____ _____    ______ ____
ROOT
ATOM      1  C   UNL     1       1.846   8.460  19.230  0.00  0.00    +0.000 A 
ATOM      2  C   UNL     1       2.071   7.244  19.876  0.00  0.00    +0.000 A 
ATOM      3  C   UNL     1       2.920   6.293  19.302  0.00  0.00    +0.000 A 
ATOM      4  C   UNL     1       3.549   6.534  18.075  0.00  0.00    +0.000 A 
ATOM      5  C   UNL     1       3.345   7.763  17.446  0.00  0.00    +0.000 A 
ATOM      6  C   UNL     1       2.490   8.719  18.013  0.00  0.00    +0.000 A 
ENDROOT
BRANCH   1   8
ATOM      7  C   UNL     1      -0.012  10.111  19.138  0.00  0.00    +0.000 A 
ATOM      8  C   UNL     1       0.951   9.456  19.826  0.00  0.00    +0.000 A 
ATOM      9  C   UNL     1       1.083   9.821  21.271  0.00  0.00    +0.000 A 
ATOM     10  N   UNL     1       0.352  10.668  21.930  0.00  0.00    +0.000 NA
ATOM     11  C   UNL     1      -0.632  11.286  21.212  0.00  0.00    +0.000 A 
ATOM     12  C   UNL     1      -1.590  12.210  21.545  0.00  0.00    +0.000 A 
ATOM     13 BR   UNL     1      -1.901  13.017  23.202  0.00  0.00    +0.000 Br
ATOM     14  C   UNL     1      -2.333  12.450  20.387  0.00  0.00    +0.000 A 
ATOM     15  N   UNL     1      -1.897  11.731  19.349  0.00  0.00    +0.000 NA
ATOM     16  N   UNL     1      -0.828  11.032  19.848  0.00  0.00    +0.000 N 
BRANCH   7  17
ATOM     17  N   UNL     1      -0.283   9.942  17.780  0.00  0.00    +0.000 N 
ATOM     18  H   UNL     1       0.421   9.420  17.266  0.00  0.00    +0.000 HD
ATOM     19  H   UNL     1      -1.244   9.628  17.621  0.00  0.00    +0.000 HD
ENDBRANCH   7  17
ENDBRANCH   1   8
BRANCH   4  20
ATOM     20  N   UNL     1       4.405   5.588  17.465  0.00  0.00    +0.000 N 
ATOM     21  C   UNL     1       4.923   5.721  16.188  0.00  0.00    +0.000 C 
ATOM     22  O   UNL     1       4.854   6.741  15.513  0.00  0.00    +0.000 OA
ATOM     23  N   UNL     1       5.523   4.545  15.756  0.00  0.00    +0.000 N 
ATOM     24  H   UNL     1       4.897   4.945  18.069  0.00  0.00    +0.000 HD
ATOM     25  H   UNL     1       5.065   3.703  16.072  0.00  0.00    +0.000 HD
BRANCH  23  26
ATOM     26  C   UNL     1       6.192   4.476  14.512  0.00  0.00    +0.000 A 
ATOM     27  C   UNL     1       7.333   5.245  14.253  0.00  0.00    +0.000 A 
ATOM     28  C   UNL     1       7.961   5.182  13.009  0.00  0.00    +0.000 A 
ATOM     29  C   UNL     1       7.443   4.361  12.010  0.00  0.00    +0.000 A 
ATOM     30  C   UNL     1       6.311   3.588  12.263  0.00  0.00    +0.000 A 
ATOM     31  C   UNL     1       5.697   3.626  13.520  0.00  0.00    +0.000 A 
ENDBRANCH  23  26
ENDBRANCH   4  20
TORSDOF 4
ENDMDL
MODEL 3
REMARK VINA RESULT:      -8.1      3.623      6.028
REMARK  Name = 
REMARK  4 active torsions:
REMARK  status: ('A' for Active; 'I' for Inactive)
REMARK    1  A    between atoms: N_1  and  C_2
REMARK    2  A    between atoms: C_3  and  C_4
REMARK    3  A    between atoms: C_7  and  N_8
REMARK    4  A    between atoms: N_11  and  C_12
REMARK                            x       y       z     vdW  Elec       q    Type
REMARK                         _______ _______ _______ _____ _____    ______ ____
ROOT
ATOM      1  C   UNL     1      -0.927  11.813  22.454  0.00  0.00    +0.000 A 
ATOM      2  C   UNL     1       0.061  11.905  21.474  0.00  0.00    +0.000 A 
ATOM      3  C   UNL     1       0.888  10.809  21.210  0.00  0.00    +0.000 A 
ATOM      4  C   UNL     1       0.750   9.612  21.922  0.00  0.00    +0.000 A 
ATOM      5  C   UNL     1      -0.258   9.514  22.881  0.00  0.00    +0.000 A 
ATOM      6  C   UNL     1      -1.088  10.611  23.155  0.00  0.00    +0.000 A 
ENDROOT
BRANCH   1   8
ATOM      7  C   UNL     1      -2.899  13.266  22.021  0.00  0.00    +0.000 A 
ATOM      8  C   UNL     1      -1.793  12.963  22.737  0.00  0.00    +0.000 A 
ATOM      9  C   UNL     1      -1.464  13.897  23.859  0.00  0.00    +0.000 A 
ATOM     10  N   UNL     1      -2.147  14.937  24.231  0.00  0.00    +0.000 NA
ATOM     11  C   UNL     1      -3.277  15.194  23.507  0.00  0.00    +0.000 A 
ATOM     12  C   UNL     1      -4.240  16.168  23.594  0.00  0.00    +0.000 A 
ATOM     13 BR   UNL     1      -4.349  17.589  24.803  0.00  0.00    +0.000 Br
ATOM     14  C   UNL     1      -5.171  15.899  22.589  0.00  0.00    +0.000 A 
ATOM     15  N   UNL     1      -4.848  14.816  21.877  0.00  0.00    +0.000 NA
ATOM     16  N   UNL     1      -3.663  14.394  22.423  0.00  0.00    +0.000 N 
BRANCH   7  17
ATOM     17  N   UNL     1      -3.365  12.546  20.921  0.00  0.00    +0.000 N 
ATOM     18  H   UNL     1      -4.216  12.910  20.502  0.00  0.00    +0.000 HD
ATOM     19  H   UNL     1      -2.617  12.345  20.253  0.00  0.00    +0.000 HD
ENDBRANCH   7  17
ENDBRANCH   1   8
BRANCH   4  20
ATOM     20  N   UNL     1       1.578   8.491  21.684  0.00  0.00    +0.000 N 
ATOM     21  C   UNL     1       1.699   7.863  20.456  0.00  0.00    +0.000 C 
ATOM     22  O   UNL     1       1.255   8.304  19.404  0.00  0.00    +0.000 OA
ATOM     23  N   UNL     1       2.378   6.656  20.565  0.00  0.00    +0.000 N 
ATOM     24  H   UNL     1       2.330   8.317  22.338  0.00  0.00    +0.000 HD
ATOM     25  H   UNL     1       2.194   6.149  21.419  0.00  0.00    +0.000 HD
BRANCH  23  26
ATOM     26  C   UNL     1       2.689   5.882  19.423  0.00  0.00    +0.000 A 
ATOM     27  C   UNL     1       1.891   4.798  19.036  0.00  0.00    +0.000 A 
ATOM     28  C   UNL     1       2.232   4.031  17.923  0.00  0.00    +0.000 A 
ATOM     29  C   UNL     1       3.383   4.332  17.196  0.00  0.00    +0.000 A 
ATOM     30  C   UNL     1       4.178   5.414  17.573  0.00  0.00    +0.000 A 
ATOM     31  C   UNL     1       3.821   6.204  18.672  0.00  0.00    +0.000 A 
ENDBRANCH  23  26
ENDBRANCH   4  20
TORSDOF 4
ENDMDL
MODEL 4
REMARK VINA RESULT:      -8.0      3.600      5.785
REMARK  Name = 
REMARK  4 active torsions:
REMARK  status: ('A' for Active; 'I' for Inactive)
REMARK    1  A    between atoms: N_1  and  C_2
REMARK    2  A    between atoms: C_3  and  C_4
REMARK    3  A    between atoms: C_7  and  N_8
REMARK    4  A    between atoms: N_11  and  C_12
REMARK                            x       y       z     vdW  Elec       q    Type
REMARK                         _______ _______ _______ _____ _____    ______ ____
ROOT
ATOM      1  C   UNL     1      -0.746  11.722  22.242  0.00  0.00    +0.000 A 
ATOM      2  C   UNL     1       0.206  11.677  21.223  0.00  0.00    +0.000 A 
ATOM      3  C   UNL     1       0.969  10.522  21.029  0.00  0.00    +0.000 A 
ATOM      4  C   UNL     1       0.802   9.400  21.849  0.00  0.00    +0.000 A 
ATOM      5  C   UNL     1      -0.171   9.438  22.849  0.00  0.00    +0.000 A 
ATOM      6  C   UNL     1      -0.936  10.596  23.052  0.00  0.00    +0.000 A 
ENDROOT
BRANCH   1   8
ATOM      7  C   UNL     1      -2.573  13.304  21.657  0.00  0.00    +0.000 A 
ATOM      8  C   UNL     1      -1.543  12.934  22.452  0.00  0.00    +0.000 A 
ATOM      9  C   UNL     1      -1.227  13.859  23.584  0.00  0.00    +0.000 A 
ATOM     10  N   UNL     1      -1.856  14.951  23.896  0.00  0.00    +0.000 NA
ATOM     11  C   UNL     1      -2.912  15.277  23.092  0.00  0.00    +0.000 A 
ATOM     12  C   UNL     1      -3.806  16.318  23.102  0.00  0.00    +0.000 A 
ATOM     13 BR   UNL     1      -3.896  17.762  24.285  0.00  0.00    +0.000 Br
ATOM     14  C   UNL     1      -4.682  16.101  22.037  0.00  0.00    +0.000 A 
ATOM     15  N   UNL     1      -4.391  14.987  21.360  0.00  0.00    +0.000 NA
ATOM     16  N   UNL     1      -3.280  14.490  21.993  0.00  0.00    +0.000 N 
BRANCH   7  17
ATOM     17  N   UNL     1      -3.013  12.602  20.535  0.00  0.00    +0.000 N 
ATOM     18  H   UNL     1      -2.777  11.615  20.530  0.00  0.00    +0.000 HD
ATOM     19  H   UNL     1      -3.993  12.805  20.320  0.00  0.00    +0.000 HD
ENDBRANCH   7  17
ENDBRANCH   1   8
BRANCH   4  20
ATOM     20  N   UNL     1       1.566   8.221  21.683  0.00  0.00    +0.000 N 
ATOM     21  C   UNL     1       1.832   7.636  20.457  0.00  0.00    +0.000 C 
ATOM     22  O   UNL     1       1.600   8.158  19.374  0.00  0.00    +0.000 OA
ATOM     23  N   UNL     1       2.386   6.371  20.605  0.00  0.00    +0.000 N 
ATOM     24  H   UNL     1       2.186   7.956  22.436  0.00  0.00    +0.000 HD
ATOM     25  H   UNL     1       2.028   5.848  21.390  0.00  0.00    +0.000 HD
BRANCH  23  26
ATOM     26  C   UNL     1       2.815   5.621  19.485  0.00  0.00    +0.000 A 
ATOM     27  C   UNL     1       4.125   5.715  19.002  0.00  0.00    +0.000 A 
ATOM     28  C   UNL     1       4.519   4.988  17.879  0.00  0.00    +0.000 A 
ATOM     29  C   UNL     1       3.600   4.173  17.221  0.00  0.00    +0.000 A 
ATOM     30  C   UNL     1       2.295   4.070  17.700  0.00  0.00    +0.000 A 
ATOM     31  C   UNL     1       1.906   4.775  18.845  0.00  0.00    +0.000 A 
ENDBRANCH  23  26
ENDBRANCH   4  20
TORSDOF 4
ENDMDL
MODEL 5
REMARK VINA RESULT:      -8.0      3.451      5.605
REMARK  Name = 
REMARK  4 active torsions:
REMARK  status: ('A' for Active; 'I' for Inactive)
REMARK    1  A    between atoms: N_1  and  C_2
REMARK    2  A    between atoms: C_3  and  C_4
REMARK    3  A    between atoms: C_7  and  N_8
REMARK    4  A    between atoms: N_11  and  C_12
REMARK                            x       y       z     vdW  Elec       q    Type
REMARK                         _______ _______ _______ _____ _____    ______ ____
ROOT
ATOM      1  C   UNL     1      -0.849  11.453  22.311  0.00  0.00    +0.000 A 
ATOM      2  C   UNL     1      -0.101  11.415  21.135  0.00  0.00    +0.000 A 
ATOM      3  C   UNL     1       0.730  10.322  20.869  0.00  0.00    +0.000 A 
ATOM      4  C   UNL     1       0.835   9.259  21.773  0.00  0.00    +0.000 A 
ATOM      5  C   UNL     1       0.063   9.287  22.935  0.00  0.00    +0.000 A 
ATOM      6  C   UNL     1      -0.768  10.382  23.210  0.00  0.00    +0.000 A 
ENDROOT
BRANCH   1   8
ATOM      7  C   UNL     1      -1.282  13.880  22.640  0.00  0.00    +0.000 A 
ATOM      8  C   UNL     1      -1.717  12.600  22.595  0.00  0.00    +0.000 A 
ATOM      9  C   UNL     1      -3.171  12.394  22.880  0.00  0.00    +0.000 A 
ATOM     10  N   UNL     1      -4.053  13.314  23.129  0.00  0.00    +0.000 NA
ATOM     11  C   UNL     1      -3.586  14.598  23.132  0.00  0.00    +0.000 A 
ATOM     12  C   UNL     1      -4.193  15.812  23.338  0.00  0.00    +0.000 A 
ATOM     13 BR   UNL     1      -5.987  16.163  23.726  0.00  0.00    +0.000 Br
ATOM     14  C   UNL     1      -3.201  16.783  23.193  0.00  0.00    +0.000 A 
ATOM     15  N   UNL     1      -2.009  16.251  22.909  0.00  0.00    +0.000 NA
ATOM     16  N   UNL     1      -2.238  14.899  22.898  0.00  0.00    +0.000 N 
BRANCH   7  17
ATOM     17  N   UNL     1       0.036  14.287  22.435  0.00  0.00    +0.000 N 
ATOM     18  H   UNL     1       0.732  13.558  22.561  0.00  0.00    +0.000 HD
ATOM     19  H   UNL     1       0.138  14.824  21.569  0.00  0.00    +0.000 HD
ENDBRANCH   7  17
ENDBRANCH   1   8
BRANCH   4  20
ATOM     20  N   UNL     1       1.675   8.145  21.536  0.00  0.00    +0.000 N 
ATOM     21  C   UNL     1       1.885   7.584  20.288  0.00  0.00    +0.000 C 
ATOM     22  O   UNL     1       1.522   8.086  19.231  0.00  0.00    +0.000 OA
ATOM     23  N   UNL     1       2.548   6.368  20.381  0.00  0.00    +0.000 N 
ATOM     24  H   UNL     1       2.374   7.930  22.233  0.00  0.00    +0.000 HD
ATOM     25  H   UNL     1       2.299   5.817  21.190  0.00  0.00    +0.000 HD
BRANCH  23  26
ATOM     26  C   UNL     1       2.941   5.655  19.224  0.00  0.00    +0.000 A 
ATOM     27  C   UNL     1       2.109   4.689  18.645  0.00  0.00    +0.000 A 
ATOM     28  C   UNL     1       2.528   3.977  17.521  0.00  0.00    +0.000 A 
ATOM     29  C   UNL     1       3.789   4.215  16.977  0.00  0.00    +0.000 A 
ATOM     30  C   UNL     1       4.620   5.179  17.546  0.00  0.00    +0.000 A 
ATOM     31  C   UNL     1       4.189   5.917  18.655  0.00  0.00    +0.000 A 
ENDBRANCH  23  26
ENDBRANCH   4  20
TORSDOF 4
ENDMDL
MODEL 6
REMARK VINA RESULT:      -8.0      3.591      5.925
REMARK  Name = 
REMARK  4 active torsions:
REMARK  status: ('A' for Active; 'I' for Inactive)
REMARK    1  A    between atoms: N_1  and  C_2
REMARK    2  A    between atoms: C_3  and  C_4
REMARK    3  A    between atoms: C_7  and  N_8
REMARK    4  A    between atoms: N_11  and  C_12
REMARK                            x       y       z     vdW  Elec       q    Type
REMARK                         _______ _______ _______ _____ _____    ______ ____
ROOT
ATOM      1  C   UNL     1      -0.779  11.719  22.245  0.00  0.00    +0.000 A 
ATOM      2  C   UNL     1      -1.001  10.606  23.056  0.00  0.00    +0.000 A 
ATOM      3  C   UNL     1      -0.231   9.451  22.886  0.00  0.00    +0.000 A 
ATOM      4  C   UNL     1       0.763   9.385  21.902  0.00  0.00    +0.000 A 
ATOM      5  C   UNL     1       1.002  10.511  21.112  0.00  0.00    +0.000 A 
ATOM      6  C   UNL     1       0.229  11.670  21.274  0.00  0.00    +0.000 A 
ENDROOT
BRANCH   1   8
ATOM      7  C   UNL     1      -2.610  13.273  21.600  0.00  0.00    +0.000 A 
ATOM      8  C   UNL     1      -1.589  12.929  22.417  0.00  0.00    +0.000 A 
ATOM      9  C   UNL     1      -1.296  13.881  23.533  0.00  0.00    +0.000 A 
ATOM     10  N   UNL     1      -1.938  14.975  23.813  0.00  0.00    +0.000 NA
ATOM     11  C   UNL     1      -2.986  15.273  22.987  0.00  0.00    +0.000 A 
ATOM     12  C   UNL     1      -3.888  16.307  22.962  0.00  0.00    +0.000 A 
ATOM     13 BR   UNL     1      -4.006  17.776  24.112  0.00  0.00    +0.000 Br
ATOM     14  C   UNL     1      -4.748  16.059  21.890  0.00  0.00    +0.000 A 
ATOM     15  N   UNL     1      -4.438  14.933  21.243  0.00  0.00    +0.000 NA
ATOM     16  N   UNL     1      -3.332  14.460  21.901  0.00  0.00    +0.000 N 
BRANCH   7  17
ATOM     17  N   UNL     1      -3.029  12.543  20.488  0.00  0.00    +0.000 N 
ATOM     18  H   UNL     1      -4.022  12.605  20.287  0.00  0.00    +0.000 HD
ATOM     19  H   UNL     1      -2.422  12.700  19.680  0.00  0.00    +0.000 HD
ENDBRANCH   7  17
ENDBRANCH   1   8
BRANCH   4  20
ATOM     20  N   UNL     1       1.551   8.228  21.700  0.00  0.00    +0.000 N 
ATOM     21  C   UNL     1       1.784   7.656  20.461  0.00  0.00    +0.000 C 
ATOM     22  O   UNL     1       1.495   8.175  19.391  0.00  0.00    +0.000 OA
ATOM     23  N   UNL     1       2.378   6.405  20.580  0.00  0.00    +0.000 N 
ATOM     24  H   UNL     1       2.208   7.977  22.426  0.00  0.00    +0.000 HD
ATOM     25  H   UNL     1       2.065   5.870  21.377  0.00  0.00    +0.000 HD
BRANCH  23  26
ATOM     26  C   UNL     1       2.781   5.672  19.441  0.00  0.00    +0.000 A 
ATOM     27  C   UNL     1       1.907   4.790  18.793  0.00  0.00    +0.000 A 
ATOM     28  C   UNL     1       2.334   4.055  17.688  0.00  0.00    +0.000 A 
ATOM     29  C   UNL     1       3.644   4.184  17.231  0.00  0.00    +0.000 A 
ATOM     30  C   UNL     1       4.518   5.064  17.868  0.00  0.00    +0.000 A 
ATOM     31  C   UNL     1       4.082   5.826  18.959  0.00  0.00    +0.000 A 
ENDBRANCH  23  26
ENDBRANCH   4  20
TORSDOF 4
ENDMDL
MODEL 7
REMARK VINA RESULT:      -7.9      4.301      6.847
REMARK  Name = 
REMARK  4 active torsions:
REMARK  status: ('A' for Active; 'I' for Inactive)
REMARK    1  A    between atoms: N_1  and  C_2
REMARK    2  A    between atoms: C_3  and  C_4
REMARK    3  A    between atoms: C_7  and  N_8
REMARK    4  A    between atoms: N_11  and  C_12
REMARK                            x       y       z     vdW  Elec       q    Type
REMARK                         _______ _______ _______ _____ _____    ______ ____
ROOT
ATOM      1  C   UNL     1      -1.350  12.299  22.817  0.00  0.00    +0.000 A 
ATOM      2  C   UNL     1      -0.391  12.542  21.835  0.00  0.00    +0.000 A 
ATOM      3  C   UNL     1       0.507  11.534  21.469  0.00  0.00    +0.000 A 
ATOM      4  C   UNL     1       0.468  10.276  22.081  0.00  0.00    +0.000 A 
ATOM      5  C   UNL     1      -0.512  10.027  23.043  0.00  0.00    +0.000 A 
ATOM      6  C   UNL     1      -1.412  11.035  23.418  0.00  0.00    +0.000 A 
ENDROOT
BRANCH   1   8
ATOM      7  C   UNL     1      -3.604  13.347  22.892  0.00  0.00    +0.000 A 
ATOM      8  C   UNL     1      -2.289  13.356  23.207  0.00  0.00    +0.000 A 
ATOM      9  C   UNL     1      -1.810  14.544  23.980  0.00  0.00    +0.000 A 
ATOM     10  N   UNL     1      -2.529  15.538  24.404  0.00  0.00    +0.000 NA
ATOM     11  C   UNL     1      -3.859  15.480  24.097  0.00  0.00    +0.000 A 
ATOM     12  C   UNL     1      -4.916  16.313  24.369  0.00  0.00    +0.000 A 
ATOM     13 BR   UNL     1      -4.911  17.932  25.302  0.00  0.00    +0.000 Br
ATOM     14  C   UNL     1      -6.048  15.712  23.813  0.00  0.00    +0.000 A 
ATOM     15  N   UNL     1      -5.764  14.556  23.210  0.00  0.00    +0.000 NA
ATOM     16  N   UNL     1      -4.406  14.423  23.359  0.00  0.00    +0.000 N 
BRANCH   7  17
ATOM     17  N   UNL     1      -4.246  12.353  22.155  0.00  0.00    +0.000 N 
ATOM     18  H   UNL     1      -4.393  12.575  21.175  0.00  0.00    +0.000 HD
ATOM     19  H   UNL     1      -3.836  11.430  22.323  0.00  0.00    +0.000 HD
ENDBRANCH   7  17
ENDBRANCH   1   8
BRANCH   4  20
ATOM     20  N   UNL     1       1.369   9.240  21.739  0.00  0.00    +0.000 N 
ATOM     21  C   UNL     1       1.066   8.204  20.873  0.00  0.00    +0.000 C 
ATOM     22  O   UNL     1       0.065   8.158  20.168  0.00  0.00    +0.000 OA
ATOM     23  N   UNL     1       2.034   7.208  20.910  0.00  0.00    +0.000 N 
ATOM     24  H   UNL     1       2.354   9.410  21.887  0.00  0.00    +0.000 HD
ATOM     25  H   UNL     1       2.438   7.054  21.823  0.00  0.00    +0.000 HD
BRANCH  23  26
ATOM     26  C   UNL     1       1.972   6.090  20.046  0.00  0.00    +0.000 A 
ATOM     27  C   UNL     1       2.540   6.124  18.767  0.00  0.00    +0.000 A 
ATOM     28  C   UNL     1       2.443   5.021  17.920  0.00  0.00    +0.000 A 
ATOM     29  C   UNL     1       1.763   3.879  18.341  0.00  0.00    +0.000 A 
ATOM     30  C   UNL     1       1.200   3.837  19.616  0.00  0.00    +0.000 A 
ATOM     31  C   UNL     1       1.323   4.932  20.479  0.00  0.00    +0.000 A 
ENDBRANCH  23  26
ENDBRANCH   4  20
TORSDOF 4
ENDMDL
MODEL 8
REMARK VINA RESULT:      -7.9      3.405      5.403
REMARK  Name = 
REMARK  4 active torsions:
REMARK  status: ('A' for Active; 'I' for Inactive)
REMARK    1  A    between atoms: N_1  and  C_2
REMARK    2  A    between atoms: C_3  and  C_4
REMARK    3  A    between atoms: C_7  and  N_8
REMARK    4  A    between atoms: N_11  and  C_12
REMARK                            x       y       z     vdW  Elec       q    Type
REMARK                         _______ _______ _______ _____ _____    ______ ____
ROOT
ATOM      1  C   UNL     1      -0.926  11.328  22.073  0.00  0.00    +0.000 A 
ATOM      2  C   UNL     1      -0.444  11.024  20.800  0.00  0.00    +0.000 A 
ATOM      3  C   UNL     1       0.350   9.890  20.605  0.00  0.00    +0.000 A 
ATOM      4  C   UNL     1       0.681   9.048  21.673  0.00  0.00    +0.000 A 
ATOM      5  C   UNL     1       0.172   9.339  22.940  0.00  0.00    +0.000 A 
ATOM      6  C   UNL     1      -0.620  10.478  23.143  0.00  0.00    +0.000 A 
ENDROOT
BRANCH   1   8
ATOM      7  C   UNL     1      -1.256  13.775  22.369  0.00  0.00    +0.000 A 
ATOM      8  C   UNL     1      -1.754  12.521  22.282  0.00  0.00    +0.000 A 
ATOM      9  C   UNL     1      -3.237  12.393  22.435  0.00  0.00    +0.000 A 
ATOM     10  N   UNL     1      -4.087  13.360  22.606  0.00  0.00    +0.000 NA
ATOM     11  C   UNL     1      -3.554  14.617  22.655  0.00  0.00    +0.000 A 
ATOM     12  C   UNL     1      -4.111  15.861  22.810  0.00  0.00    +0.000 A 
ATOM     13 BR   UNL     1      -5.911  16.309  23.036  0.00  0.00    +0.000 Br
ATOM     14  C   UNL     1      -3.059  16.778  22.756  0.00  0.00    +0.000 A 
ATOM     15  N   UNL     1      -1.877  16.183  22.579  0.00  0.00    +0.000 NA
ATOM     16  N   UNL     1      -2.176  14.844  22.544  0.00  0.00    +0.000 N 
BRANCH   7  17
ATOM     17  N   UNL     1       0.094  14.111  22.283  0.00  0.00    +0.000 N 
ATOM     18  H   UNL     1       0.648  13.504  21.686  0.00  0.00    +0.000 HD
ATOM     19  H   UNL     1       0.227  15.111  22.110  0.00  0.00    +0.000 HD
ENDBRANCH   7  17
ENDBRANCH   1   8
BRANCH   4  20
ATOM     20  N   UNL     1       1.489   7.899  21.508  0.00  0.00    +0.000 N 
ATOM     21  C   UNL     1       1.912   7.418  20.281  0.00  0.00    +0.000 C 
ATOM     22  O   UNL     1       1.794   8.021  19.221  0.00  0.00    +0.000 OA
ATOM     23  N   UNL     1       2.477   6.155  20.395  0.00  0.00    +0.000 N 
ATOM     24  H   UNL     1       2.024   7.585  22.306  0.00  0.00    +0.000 HD
ATOM     25  H   UNL     1       2.043   5.565  21.090  0.00  0.00    +0.000 HD
BRANCH  23  26
ATOM     26  C   UNL     1       3.053   5.503  19.280  0.00  0.00    +0.000 A 
ATOM     27  C   UNL     1       4.386   5.726  18.912  0.00  0.00    +0.000 A 
ATOM     28  C   UNL     1       4.925   5.095  17.792  0.00  0.00    +0.000 A 
ATOM     29  C   UNL     1       4.131   4.248  17.021  0.00  0.00    +0.000 A 
ATOM     30  C   UNL     1       2.804   4.019  17.384  0.00  0.00    +0.000 A 
ATOM     31  C   UNL     1       2.270   4.627  18.526  0.00  0.00    +0.000 A 
ENDBRANCH  23  26
ENDBRANCH   4  20
TORSDOF 4
ENDMDL
MODEL 9
REMARK VINA RESULT:      -7.8      4.752      6.785
REMARK  Name = 
REMARK  4 active torsions:
REMARK  status: ('A' for Active; 'I' for Inactive)
REMARK    1  A    between atoms: N_1  and  C_2
REMARK    2  A    between atoms: C_3  and  C_4
REMARK    3  A    between atoms: C_7  and  N_8
REMARK    4  A    between atoms: N_11  and  C_12
REMARK                            x       y       z     vdW  Elec       q    Type
REMARK                         _______ _______ _______ _____ _____    ______ ____
ROOT
ATOM      1  C   UNL     1      -0.962  12.009  22.507  0.00  0.00    +0.000 A 
ATOM      2  C   UNL     1      -0.938  10.785  23.175  0.00  0.00    +0.000 A 
ATOM      3  C   UNL     1      -0.097   9.761  22.730  0.00  0.00    +0.000 A 
ATOM      4  C   UNL     1       0.724   9.937  21.610  0.00  0.00    +0.000 A 
ATOM      5  C   UNL     1       0.720  11.173  20.962  0.00  0.00    +0.000 A 
ATOM      6  C   UNL     1      -0.126  12.202  21.401  0.00  0.00    +0.000 A 
ENDROOT
BRANCH   1   8
ATOM      7  C   UNL     1      -3.172  13.133  22.700  0.00  0.00    +0.000 A 
ATOM      8  C   UNL     1      -1.848  13.083  22.969  0.00  0.00    +0.000 A 
ATOM      9  C   UNL     1      -1.299  14.222  23.768  0.00  0.00    +0.000 A 
ATOM     10  N   UNL     1      -1.967  15.225  24.253  0.00  0.00    +0.000 NA
ATOM     11  C   UNL     1      -3.308  15.226  23.991  0.00  0.00    +0.000 A 
ATOM     12  C   UNL     1      -4.324  16.084  24.330  0.00  0.00    +0.000 A 
ATOM     13 BR   UNL     1      -4.229  17.665  25.322  0.00  0.00    +0.000 Br
ATOM     14  C   UNL     1      -5.496  15.546  23.793  0.00  0.00    +0.000 A 
ATOM     15  N   UNL     1      -5.274  14.404  23.138  0.00  0.00    +0.000 NA
ATOM     16  N   UNL     1      -3.918  14.217  23.235  0.00  0.00    +0.000 N 
BRANCH   7  17
ATOM     17  N   UNL     1      -3.875  12.190  21.950  0.00  0.00    +0.000 N 
ATOM     18  H   UNL     1      -3.430  11.280  21.884  0.00  0.00    +0.000 HD
ATOM     19  H   UNL     1      -4.865  12.161  22.208  0.00  0.00    +0.000 HD
ENDBRANCH   7  17
ENDBRANCH   1   8
BRANCH   4  20
ATOM     20  N   UNL     1       1.578   8.917  21.130  0.00  0.00    +0.000 N 
ATOM     21  C   UNL     1       1.173   7.615  20.892  0.00  0.00    +0.000 C 
ATOM     22  O   UNL     1       0.007   7.240  20.891  0.00  0.00    +0.000 OA
ATOM     23  N   UNL     1       2.256   6.776  20.665  0.00  0.00    +0.000 N 
ATOM     24  H   UNL     1       2.429   9.200  20.664  0.00  0.00    +0.000 HD
ATOM     25  H   UNL     1       3.077   6.999  21.210  0.00  0.00    +0.000 HD
BRANCH  23  26
ATOM     26  C   UNL     1       2.074   5.417  20.319  0.00  0.00    +0.000 A 
ATOM     27  C   UNL     1       1.899   5.020  18.987  0.00  0.00    +0.000 A 
ATOM     28  C   UNL     1       1.693   3.678  18.670  0.00  0.00    +0.000 A 
ATOM     29  C   UNL     1       1.644   2.724  19.685  0.00  0.00    +0.000 A 
ATOM     30  C   UNL     1       1.823   3.111  21.012  0.00  0.00    +0.000 A 
ATOM     31  C   UNL     1       2.061   4.454  21.329  0.00  0.00    +0.000 A 
ENDBRANCH  23  26
ENDBRANCH   4  20
TORSDOF 4
ENDMDL
