MODEL 1
REMARK VINA RESULT:      -8.1      0.000      0.000
REMARK  Name = 
REMARK  1 active torsions:
REMARK  status: ('A' for Active; 'I' for Inactive)
REMARK    1  A    between atoms: C_7  and  C_8
REMARK                            x       y       z     vdW  Elec       q    Type
REMARK                         _______ _______ _______ _____ _____    ______ ____
ROOT
ATOM      1  C   UNL     1       2.611   7.445  18.436  0.00  0.00    +0.000 A 
ATOM      2  C   UNL     1       2.060   8.529  17.742  0.00  0.00    +0.000 A 
ATOM      3  C   UNL     1       1.232   9.445  18.393  0.00  0.00    +0.000 A 
ATOM      4  C   UNL     1       0.998   9.247  19.758  0.00  0.00    +0.000 A 
ATOM      5  C   UNL     1       1.610   8.154  20.353  0.00  0.00    +0.000 A 
ATOM      6  N   UNL     1       2.410   7.241  19.768  0.00  0.00    +0.000 NA
ATOM      7  N   UNL     1       1.261   8.146  21.676  0.00  0.00    +0.000 N 
ATOM      8  C   UNL     1       0.439   9.214  21.962  0.00  0.00    +0.000 A 
ATOM      9  C   UNL     1      -0.152   9.617  23.158  0.00  0.00    +0.000 A 
ATOM     10  C   UNL     1      -0.932  10.763  23.069  0.00  0.00    +0.000 A 
ATOM     11  N   UNL     1      -1.143  11.473  21.939  0.00  0.00    +0.000 NA
ATOM     12  C   UNL     1      -0.558  11.060  20.788  0.00  0.00    +0.000 A 
ATOM     13  C   UNL     1       0.252   9.919  20.770  0.00  0.00    +0.000 A 
ATOM     14  H   UNL     1       1.575   7.448  22.333  0.00  0.00    +0.000 HD
ENDROOT
BRANCH   1  21
ATOM     15  F   UNL     1       1.982   4.657  18.204  0.00  0.00    +0.000 F 
ATOM     16  C   UNL     1       3.131   5.095  17.663  0.00  0.00    +0.000 A 
ATOM     17  N   UNL     1       3.878   4.144  17.050  0.00  0.00    +0.000 NA
ATOM     18  C   UNL     1       5.052   4.541  16.524  0.00  0.00    +0.000 A 
ATOM     19  C   UNL     1       5.511   5.843  16.583  0.00  0.00    +0.000 A 
ATOM     20  C   UNL     1       4.715   6.799  17.214  0.00  0.00    +0.000 A 
ATOM     21  C   UNL     1       3.475   6.446  17.774  0.00  0.00    +0.000 A 
ENDBRANCH   1  21
TORSDOF 1
ENDMDL
MODEL 2
REMARK VINA RESULT:      -8.0      1.180      1.489
REMARK  Name = 
REMARK  1 active torsions:
REMARK  status: ('A' for Active; 'I' for Inactive)
REMARK    1  A    between atoms: C_7  and  C_8
REMARK                            x       y       z     vdW  Elec       q    Type
REMARK                         _______ _______ _______ _____ _____    ______ ____
ROOT
ATOM      1  C   UNL     1       2.651   7.154  18.460  0.00  0.00    +0.000 A 
ATOM      2  C   UNL     1       2.212   8.267  17.732  0.00  0.00    +0.000 A 
ATOM      3  C   UNL     1       1.442   9.259  18.344  0.00  0.00    +0.000 A 
ATOM      4  C   UNL     1       1.152   9.103  19.703  0.00  0.00    +0.000 A 
ATOM      5  C   UNL     1       1.655   7.975  20.333  0.00  0.00    +0.000 A 
ATOM      6  N   UNL     1       2.395   6.989  19.787  0.00  0.00    +0.000 NA
ATOM      7  N   UNL     1       1.266   8.017  21.644  0.00  0.00    +0.000 N 
ATOM      8  C   UNL     1       0.527   9.153  21.889  0.00  0.00    +0.000 A 
ATOM      9  C   UNL     1      -0.066   9.623  23.060  0.00  0.00    +0.000 A 
ATOM     10  C   UNL     1      -0.746  10.828  22.930  0.00  0.00    +0.000 A 
ATOM     11  N   UNL     1      -0.864  11.533  21.784  0.00  0.00    +0.000 NA
ATOM     12  C   UNL     1      -0.281  11.054  20.658  0.00  0.00    +0.000 A 
ATOM     13  C   UNL     1       0.433   9.851  20.682  0.00  0.00    +0.000 A 
ATOM     14  H   UNL     1       1.502   7.307  22.321  0.00  0.00    +0.000 HD
ENDROOT
BRANCH   1  21
ATOM     15  F   UNL     1       5.307   7.491  17.431  0.00  0.00    +0.000 F 
ATOM     16  C   UNL     1       4.750   6.271  17.362  0.00  0.00    +0.000 A 
ATOM     17  N   UNL     1       5.530   5.313  16.803  0.00  0.00    +0.000 NA
ATOM     18  C   UNL     1       4.993   4.084  16.688  0.00  0.00    +0.000 A 
ATOM     19  C   UNL     1       3.714   3.770  17.107  0.00  0.00    +0.000 A 
ATOM     20  C   UNL     1       2.940   4.777  17.685  0.00  0.00    +0.000 A 
ATOM     21  C   UNL     1       3.450   6.078  17.839  0.00  0.00    +0.000 A 
ENDBRANCH   1  21
TORSDOF 1
ENDMDL
MODEL 3
REMARK VINA RESULT:      -7.8      2.095      3.192
REMARK  Name = 
REMARK  1 active torsions:
REMARK  status: ('A' for Active; 'I' for Inactive)
REMARK    1  A    between atoms: C_7  and  C_8
REMARK                            x       y       z     vdW  Elec       q    Type
REMARK                         _______ _______ _______ _____ _____    ______ ____
ROOT
ATOM      1  C   UNL     1       4.208   6.197  17.723  0.00  0.00    +0.000 A 
ATOM      2  C   UNL     1       3.898   5.563  18.933  0.00  0.00    +0.000 A 
ATOM      3  C   UNL     1       2.985   6.134  19.822  0.00  0.00    +0.000 A 
ATOM      4  C   UNL     1       2.387   7.341  19.445  0.00  0.00    +0.000 A 
ATOM      5  C   UNL     1       2.750   7.872  18.217  0.00  0.00    +0.000 A 
ATOM      6  N   UNL     1       3.627   7.364  17.329  0.00  0.00    +0.000 NA
ATOM      7  N   UNL     1       2.055   9.037  18.040  0.00  0.00    +0.000 N 
ATOM      8  C   UNL     1       1.238   9.277  19.123  0.00  0.00    +0.000 A 
ATOM      9  C   UNL     1       0.351  10.320  19.385  0.00  0.00    +0.000 A 
ATOM     10  C   UNL     1      -0.315  10.231  20.602  0.00  0.00    +0.000 A 
ATOM     11  N   UNL     1      -0.154   9.239  21.505  0.00  0.00    +0.000 NA
ATOM     12  C   UNL     1       0.716   8.237  21.228  0.00  0.00    +0.000 A 
ATOM     13  C   UNL     1       1.434   8.228  20.026  0.00  0.00    +0.000 A 
ATOM     14  H   UNL     1       2.140   9.621  17.223  0.00  0.00    +0.000 HD
ENDROOT
BRANCH   1  21
ATOM     15  F   UNL     1       6.821   7.277  17.240  0.00  0.00    +0.000 F 
ATOM     16  C   UNL     1       6.457   6.172  16.568  0.00  0.00    +0.000 A 
ATOM     17  N   UNL     1       7.394   5.680  15.721  0.00  0.00    +0.000 NA
ATOM     18  C   UNL     1       7.053   4.591  15.006  0.00  0.00    +0.000 A 
ATOM     19  C   UNL     1       5.820   3.973  15.102  0.00  0.00    +0.000 A 
ATOM     20  C   UNL     1       4.881   4.500  15.989  0.00  0.00    +0.000 A 
ATOM     21  C   UNL     1       5.183   5.630  16.769  0.00  0.00    +0.000 A 
ENDBRANCH   1  21
TORSDOF 1
ENDMDL
MODEL 4
REMARK VINA RESULT:      -7.6      4.372      6.031
REMARK  Name = 
REMARK  1 active torsions:
REMARK  status: ('A' for Active; 'I' for Inactive)
REMARK    1  A    between atoms: C_7  and  C_8
REMARK                            x       y       z     vdW  Elec       q    Type
REMARK                         _______ _______ _______ _____ _____    ______ ____
ROOT
ATOM      1  C   UNL     1       5.136   4.688  15.872  0.00  0.00    +0.000 A 
ATOM      2  C   UNL     1       4.806   5.897  16.495  0.00  0.00    +0.000 A 
ATOM      3  C   UNL     1       3.987   5.916  17.626  0.00  0.00    +0.000 A 
ATOM      4  C   UNL     1       3.535   4.686  18.114  0.00  0.00    +0.000 A 
ATOM      5  C   UNL     1       3.939   3.547  17.434  0.00  0.00    +0.000 A 
ATOM      6  N   UNL     1       4.720   3.478  16.339  0.00  0.00    +0.000 NA
ATOM      7  N   UNL     1       3.397   2.464  18.071  0.00  0.00    +0.000 N 
ATOM      8  C   UNL     1       2.654   2.868  19.158  0.00  0.00    +0.000 A 
ATOM      9  C   UNL     1       1.935   2.131  20.098  0.00  0.00    +0.000 A 
ATOM     10  C   UNL     1       1.297   2.888  21.072  0.00  0.00    +0.000 A 
ATOM     11  N   UNL     1       1.329   4.237  21.153  0.00  0.00    +0.000 NA
ATOM     12  C   UNL     1       2.033   4.931  20.226  0.00  0.00    +0.000 A 
ATOM     13  C   UNL     1       2.718   4.263  19.204  0.00  0.00    +0.000 A 
ATOM     14  H   UNL     1       3.538   1.511  17.771  0.00  0.00    +0.000 HD
ENDROOT
BRANCH   1  21
ATOM     15  F   UNL     1       7.637   6.061  15.582  0.00  0.00    +0.000 F 
ATOM     16  C   UNL     1       7.207   5.303  14.560  0.00  0.00    +0.000 A 
ATOM     17  N   UNL     1       8.030   5.269  13.482  0.00  0.00    +0.000 NA
ATOM     18  C   UNL     1       7.617   4.544  12.426  0.00  0.00    +0.000 A 
ATOM     19  C   UNL     1       6.421   3.852  12.399  0.00  0.00    +0.000 A 
ATOM     20  C   UNL     1       5.601   3.900  13.527  0.00  0.00    +0.000 A 
ATOM     21  C   UNL     1       5.984   4.634  14.664  0.00  0.00    +0.000 A 
ENDBRANCH   1  21
TORSDOF 1
ENDMDL
MODEL 5
REMARK VINA RESULT:      -7.5      5.498      6.285
REMARK  Name = 
REMARK  1 active torsions:
REMARK  status: ('A' for Active; 'I' for Inactive)
REMARK    1  A    between atoms: C_7  and  C_8
REMARK                            x       y       z     vdW  Elec       q    Type
REMARK                         _______ _______ _______ _____ _____    ______ ____
ROOT
ATOM      1  C   UNL     1       5.527   4.223  16.392  0.00  0.00    +0.000 A 
ATOM      2  C   UNL     1       6.198   4.428  17.603  0.00  0.00    +0.000 A 
ATOM      3  C   UNL     1       5.537   4.256  18.821  0.00  0.00    +0.000 A 
ATOM      4  C   UNL     1       4.198   3.854  18.777  0.00  0.00    +0.000 A 
ATOM      5  C   UNL     1       3.637   3.659  17.524  0.00  0.00    +0.000 A 
ATOM      6  N   UNL     1       4.229   3.817  16.324  0.00  0.00    +0.000 NA
ATOM      7  N   UNL     1       2.338   3.268  17.703  0.00  0.00    +0.000 N 
ATOM      8  C   UNL     1       2.039   3.195  19.045  0.00  0.00    +0.000 A 
ATOM      9  C   UNL     1       0.861   2.838  19.701  0.00  0.00    +0.000 A 
ATOM     10  C   UNL     1       0.927   2.880  21.088  0.00  0.00    +0.000 A 
ATOM     11  N   UNL     1       2.017   3.236  21.803  0.00  0.00    +0.000 NA
ATOM     12  C   UNL     1       3.149   3.581  21.143  0.00  0.00    +0.000 A 
ATOM     13  C   UNL     1       3.190   3.566  19.743  0.00  0.00    +0.000 A 
ATOM     14  H   UNL     1       1.706   3.063  16.943  0.00  0.00    +0.000 HD
ENDROOT
BRANCH   1  21
ATOM     15  F   UNL     1       7.626   6.115  15.901  0.00  0.00    +0.000 F 
ATOM     16  C   UNL     1       7.224   5.336  14.883  0.00  0.00    +0.000 A 
ATOM     17  N   UNL     1       7.877   5.537  13.712  0.00  0.00    +0.000 NA
ATOM     18  C   UNL     1       7.478   4.797  12.661  0.00  0.00    +0.000 A 
ATOM     19  C   UNL     1       6.458   3.866  12.729  0.00  0.00    +0.000 A 
ATOM     20  C   UNL     1       5.812   3.678  13.951  0.00  0.00    +0.000 A 
ATOM     21  C   UNL     1       6.190   4.416  15.086  0.00  0.00    +0.000 A 
ENDBRANCH   1  21
TORSDOF 1
ENDMDL
MODEL 6
REMARK VINA RESULT:      -7.4      1.591      1.828
REMARK  Name = 
REMARK  1 active torsions:
REMARK  status: ('A' for Active; 'I' for Inactive)
REMARK    1  A    between atoms: C_7  and  C_8
REMARK                            x       y       z     vdW  Elec       q    Type
REMARK                         _______ _______ _______ _____ _____    ______ ____
ROOT
ATOM      1  C   UNL     1       2.429   6.712  18.822  0.00  0.00    +0.000 A 
ATOM      2  C   UNL     1       2.455   7.762  17.897  0.00  0.00    +0.000 A 
ATOM      3  C   UNL     1       1.917   9.009  18.220  0.00  0.00    +0.000 A 
ATOM      4  C   UNL     1       1.377   9.166  19.501  0.00  0.00    +0.000 A 
ATOM      5  C   UNL     1       1.421   8.068  20.346  0.00  0.00    +0.000 A 
ATOM      6  N   UNL     1       1.923   6.846  20.080  0.00  0.00    +0.000 NA
ATOM      7  N   UNL     1       0.853   8.431  21.537  0.00  0.00    +0.000 N 
ATOM      8  C   UNL     1       0.445   9.746  21.493  0.00  0.00    +0.000 A 
ATOM      9  C   UNL     1      -0.168  10.545  22.456  0.00  0.00    +0.000 A 
ATOM     10  C   UNL     1      -0.440  11.845  22.052  0.00  0.00    +0.000 A 
ATOM     11  N   UNL     1      -0.161  12.354  20.832  0.00  0.00    +0.000 NA
ATOM     12  C   UNL     1       0.434  11.557  19.912  0.00  0.00    +0.000 A 
ATOM     13  C   UNL     1       0.756  10.230  20.220  0.00  0.00    +0.000 A 
ATOM     14  H   UNL     1       0.760   7.808  22.325  0.00  0.00    +0.000 HD
ENDROOT
BRANCH   1  21
ATOM     15  F   UNL     1       4.977   5.743  19.714  0.00  0.00    +0.000 F 
ATOM     16  C   UNL     1       4.212   4.925  18.971  0.00  0.00    +0.000 A 
ATOM     17  N   UNL     1       4.745   3.703  18.726  0.00  0.00    +0.000 NA
ATOM     18  C   UNL     1       4.020   2.868  17.958  0.00  0.00    +0.000 A 
ATOM     19  C   UNL     1       2.789   3.200  17.425  0.00  0.00    +0.000 A 
ATOM     20  C   UNL     1       2.265   4.463  17.703  0.00  0.00    +0.000 A 
ATOM     21  C   UNL     1       2.971   5.375  18.506  0.00  0.00    +0.000 A 
ENDBRANCH   1  21
TORSDOF 1
ENDMDL
MODEL 7
REMARK VINA RESULT:      -7.4      2.062      6.971
REMARK  Name = 
REMARK  1 active torsions:
REMARK  status: ('A' for Active; 'I' for Inactive)
REMARK    1  A    between atoms: C_7  and  C_8
REMARK                            x       y       z     vdW  Elec       q    Type
REMARK                         _______ _______ _______ _____ _____    ______ ____
ROOT
ATOM      1  C   UNL     1       1.189   8.854  20.413  0.00  0.00    +0.000 A 
ATOM      2  C   UNL     1       1.507   9.110  19.074  0.00  0.00    +0.000 A 
ATOM      3  C   UNL     1       2.188   8.160  18.310  0.00  0.00    +0.000 A 
ATOM      4  C   UNL     1       2.515   6.949  18.928  0.00  0.00    +0.000 A 
ATOM      5  C   UNL     1       2.135   6.791  20.252  0.00  0.00    +0.000 A 
ATOM      6  N   UNL     1       1.484   7.676  21.032  0.00  0.00    +0.000 NA
ATOM      7  N   UNL     1       2.541   5.549  20.660  0.00  0.00    +0.000 N 
ATOM      8  C   UNL     1       3.172   4.888  19.629  0.00  0.00    +0.000 A 
ATOM      9  C   UNL     1       3.737   3.615  19.571  0.00  0.00    +0.000 A 
ATOM     10  C   UNL     1       4.295   3.278  18.345  0.00  0.00    +0.000 A 
ATOM     11  N   UNL     1       4.325   4.080  17.258  0.00  0.00    +0.000 NA
ATOM     12  C   UNL     1       3.771   5.314  17.340  0.00  0.00    +0.000 A 
ATOM     13  C   UNL     1       3.176   5.750  18.530  0.00  0.00    +0.000 A 
ATOM     14  H   UNL     1       2.386   5.187  21.589  0.00  0.00    +0.000 HD
ENDROOT
BRANCH   1  21
ATOM     15  F   UNL     1       1.449  11.696  20.136  0.00  0.00    +0.000 F 
ATOM     16  C   UNL     1       0.623  11.224  21.084  0.00  0.00    +0.000 A 
ATOM     17  N   UNL     1      -0.013  12.172  21.817  0.00  0.00    +0.000 NA
ATOM     18  C   UNL     1      -0.825  11.736  22.798  0.00  0.00    +0.000 A 
ATOM     19  C   UNL     1      -1.030  10.398  23.078  0.00  0.00    +0.000 A 
ATOM     20  C   UNL     1      -0.367   9.448  22.301  0.00  0.00    +0.000 A 
ATOM     21  C   UNL     1       0.487   9.843  21.256  0.00  0.00    +0.000 A 
ENDBRANCH   1  21
TORSDOF 1
ENDMDL
MODEL 8
REMARK VINA RESULT:      -7.3      2.067      6.735
REMARK  Name = 
REMARK  1 active torsions:
REMARK  status: ('A' for Active; 'I' for Inactive)
REMARK    1  A    between atoms: C_7  and  C_8
REMARK                            x       y       z     vdW  Elec       q    Type
REMARK                         _______ _______ _______ _____ _____    ______ ____
ROOT
ATOM      1  C   UNL     1       1.165   9.434  19.368  0.00  0.00    +0.000 A 
ATOM      2  C   UNL     1       1.659   9.460  18.058  0.00  0.00    +0.000 A 
ATOM      3  C   UNL     1       2.441   8.412  17.570  0.00  0.00    +0.000 A 
ATOM      4  C   UNL     1       2.689   7.338  18.432  0.00  0.00    +0.000 A 
ATOM      5  C   UNL     1       2.135   7.404  19.701  0.00  0.00    +0.000 A 
ATOM      6  N   UNL     1       1.380   8.393  20.219  0.00  0.00    +0.000 NA
ATOM      7  N   UNL     1       2.490   6.266  20.373  0.00  0.00    +0.000 N 
ATOM      8  C   UNL     1       3.257   5.452  19.569  0.00  0.00    +0.000 A 
ATOM      9  C   UNL     1       3.831   4.206  19.812  0.00  0.00    +0.000 A 
ATOM     10  C   UNL     1       4.551   3.675  18.750  0.00  0.00    +0.000 A 
ATOM     11  N   UNL     1       4.723   4.274  17.551  0.00  0.00    +0.000 NA
ATOM     12  C   UNL     1       4.156   5.487  17.339  0.00  0.00    +0.000 A 
ATOM     13  C   UNL     1       3.404   6.108  18.344  0.00  0.00    +0.000 A 
ATOM     14  H   UNL     1       2.213   6.068  21.323  0.00  0.00    +0.000 HD
ENDROOT
BRANCH   1  21
ATOM     15  F   UNL     1      -1.542   9.992  18.604  0.00  0.00    +0.000 F 
ATOM     16  C   UNL     1      -0.974  10.771  19.539  0.00  0.00    +0.000 A 
ATOM     17  N   UNL     1      -1.768  11.754  20.030  0.00  0.00    +0.000 NA
ATOM     18  C   UNL     1      -1.222  12.574  20.947  0.00  0.00    +0.000 A 
ATOM     19  C   UNL     1       0.080  12.456  21.394  0.00  0.00    +0.000 A 
ATOM     20  C   UNL     1       0.869  11.429  20.875  0.00  0.00    +0.000 A 
ATOM     21  C   UNL     1       0.351  10.535  19.921  0.00  0.00    +0.000 A 
ENDBRANCH   1  21
TORSDOF 1
ENDMDL
MODEL 9
REMARK VINA RESULT:      -7.3      1.418      2.255
REMARK  Name = 
REMARK  1 active torsions:
REMARK  status: ('A' for Active; 'I' for Inactive)
REMARK    1  A    between atoms: C_7  and  C_8
REMARK                            x       y       z     vdW  Elec       q    Type
REMARK                         _______ _______ _______ _____ _____    ______ ____
ROOT
ATOM      1  C   UNL     1       2.536   7.213  18.616  0.00  0.00    +0.000 A 
ATOM      2  C   UNL     1       2.198   7.117  19.971  0.00  0.00    +0.000 A 
ATOM      3  C   UNL     1       1.484   8.138  20.601  0.00  0.00    +0.000 A 
ATOM      4  C   UNL     1       1.109   9.238  19.822  0.00  0.00    +0.000 A 
ATOM      5  C   UNL     1       1.477   9.222  18.485  0.00  0.00    +0.000 A 
ATOM      6  N   UNL     1       2.168   8.266  17.834  0.00  0.00    +0.000 NA
ATOM      7  N   UNL     1       1.013  10.374  17.909  0.00  0.00    +0.000 N 
ATOM      8  C   UNL     1       0.342  11.139  18.837  0.00  0.00    +0.000 A 
ATOM      9  C   UNL     1      -0.300  12.370  18.713  0.00  0.00    +0.000 A 
ATOM     10  C   UNL     1      -0.878  12.849  19.882  0.00  0.00    +0.000 A 
ATOM     11  N   UNL     1      -0.849  12.220  21.078  0.00  0.00    +0.000 NA
ATOM     12  C   UNL     1      -0.216  11.025  21.173  0.00  0.00    +0.000 A 
ATOM     13  C   UNL     1       0.395  10.451  20.052  0.00  0.00    +0.000 A 
ATOM     14  H   UNL     1       1.151  10.607  16.937  0.00  0.00    +0.000 HD
ENDROOT
BRANCH   1  21
ATOM     15  F   UNL     1       1.629   4.518  18.243  0.00  0.00    +0.000 F 
ATOM     16  C   UNL     1       2.829   4.859  17.743  0.00  0.00    +0.000 A 
ATOM     17  N   UNL     1       3.487   3.864  17.100  0.00  0.00    +0.000 NA
ATOM     18  C   UNL     1       4.707   4.159  16.613  0.00  0.00    +0.000 A 
ATOM     19  C   UNL     1       5.296   5.403  16.741  0.00  0.00    +0.000 A 
ATOM     20  C   UNL     1       4.589   6.407  17.402  0.00  0.00    +0.000 A 
ATOM     21  C   UNL     1       3.307   6.160  17.923  0.00  0.00    +0.000 A 
ENDBRANCH   1  21
TORSDOF 1
ENDMDL
