MODEL 1
REMARK VINA RESULT:      -8.3      0.000      0.000
REMARK  Name = 
REMARK  8 active torsions:
REMARK  status: ('A' for Active; 'I' for Inactive)
REMARK    1  A    between atoms: C_2  and  C_13
REMARK    2  A    between atoms: N_3  and  C_4
REMARK    3  A    between atoms: C_4  and  C_5
REMARK    4  A    between atoms: C_5  and  C_6
REMARK    5  A    between atoms: C_6  and  N_7
REMARK    6  A    between atoms: N_16  and  C_17
REMARK    7  A    between atoms: C_17  and  C_18
REMARK    8  A    between atoms: C_21  and  C_22
REMARK                            x       y       z     vdW  Elec       q    Type
REMARK                         _______ _______ _______ _____ _____    ______ ____
ROOT
ATOM      1  C   UNL     1       7.364   5.641  16.805  0.00  0.00    +0.000 C 
ATOM      2  C   UNL     1       6.611   5.077  15.600  0.00  0.00    +0.000 C 
ATOM      3  C   UNL     1       5.173   4.692  15.946  0.00  0.00    +0.000 C 
ATOM      4  N   UNL     1       5.093   3.755  17.079  0.00  0.00    +0.000 NA
ATOM      5  C   UNL     1       5.798   4.254  18.269  0.00  0.00    +0.000 C 
ATOM      6  C   UNL     1       7.244   4.668  17.981  0.00  0.00    +0.000 C 
ENDROOT
BRANCH   1   8
ATOM      7  O   UNL     1       5.717   7.348  17.320  0.00  0.00    +0.000 OA
ATOM      8  C   UNL     1       6.904   7.052  17.172  0.00  0.00    +0.000 C 
ATOM      9  N   UNL     1       7.934   7.950  17.350  0.00  0.00    +0.000 N 
ATOM     10  H   UNL     1       8.888   7.618  17.353  0.00  0.00    +0.000 HD
BRANCH   9  11
ATOM     11  C   UNL     1       7.690   9.327  17.741  0.00  0.00    +0.000 C 
BRANCH  11  12
ATOM     12  C   UNL     1       8.984  10.034  18.140  0.00  0.00    +0.000 C 
BRANCH  12  13
ATOM     13  C   UNL     1       9.129  10.145  19.666  0.00  0.00    +0.000 C 
BRANCH  13  14
ATOM     14  N   UNL     1      10.054  11.211  20.084  0.00  0.00    +0.000 NA
ATOM     15  C   UNL     1      11.090  11.462  19.069  0.00  0.00    +0.000 C 
ATOM     16  C   UNL     1      12.091  12.514  19.535  0.00  0.00    +0.000 C 
ATOM     17  C   UNL     1      11.387  13.809  19.908  0.00  0.00    +0.000 C 
ATOM     18  C   UNL     1      10.276  13.535  20.915  0.00  0.00    +0.000 C 
ATOM     19  C   UNL     1       9.325  12.444  20.416  0.00  0.00    +0.000 C 
ENDBRANCH  13  14
ENDBRANCH  12  13
ENDBRANCH  11  12
ENDBRANCH   9  11
ENDBRANCH   1   8
BRANCH   4  20
ATOM     20  C   UNL     1       3.667   3.499  17.430  0.00  0.00    +0.000 C 
BRANCH  20  21
ATOM     21  C   UNL     1       3.117   4.463  18.430  0.00  0.00    +0.000 A 
ATOM     22  N   UNL     1       3.010   4.335  19.737  0.00  0.00    +0.000 NA
ATOM     23  N   UNL     1       2.569   5.553  20.207  0.00  0.00    +0.000 NA
ATOM     24  C   UNL     1       2.433   6.337  19.156  0.00  0.00    +0.000 A 
ATOM     25  O   UNL     1       2.738   5.701  17.982  0.00  0.00    +0.000 OA
BRANCH  24  26
ATOM     26  C   UNL     1       2.046   7.740  19.083  0.00  0.00    +0.000 A 
ATOM     27  C   UNL     1       2.285   8.515  17.938  0.00  0.00    +0.000 A 
ATOM     28  C   UNL     1       1.890   9.856  17.892  0.00  0.00    +0.000 A 
ATOM     29  C   UNL     1       1.260  10.437  18.991  0.00  0.00    +0.000 A 
ATOM     30  C   UNL     1       1.038   9.679  20.139  0.00  0.00    +0.000 A 
ATOM     31 CL   UNL     1       0.274  10.398  21.501  0.00  0.00    +0.000 Cl
ATOM     32  C   UNL     1       1.427   8.343  20.190  0.00  0.00    +0.000 A 
ENDBRANCH  24  26
ENDBRANCH  20  21
ENDBRANCH   4  20
TORSDOF 8
ENDMDL
MODEL 2
REMARK VINA RESULT:      -8.1      1.647      2.158
REMARK  Name = 
REMARK  8 active torsions:
REMARK  status: ('A' for Active; 'I' for Inactive)
REMARK    1  A    between atoms: C_2  and  C_13
REMARK    2  A    between atoms: N_3  and  C_4
REMARK    3  A    between atoms: C_4  and  C_5
REMARK    4  A    between atoms: C_5  and  C_6
REMARK    5  A    between atoms: C_6  and  N_7
REMARK    6  A    between atoms: N_16  and  C_17
REMARK    7  A    between atoms: C_17  and  C_18
REMARK    8  A    between atoms: C_21  and  C_22
REMARK                            x       y       z     vdW  Elec       q    Type
REMARK                         _______ _______ _______ _____ _____    ______ ____
ROOT
ATOM      1  C   UNL     1       7.451   5.503  18.033  0.00  0.00    +0.000 C 
ATOM      2  C   UNL     1       6.708   4.561  17.085  0.00  0.00    +0.000 C 
ATOM      3  C   UNL     1       5.195   4.764  17.138  0.00  0.00    +0.000 C 
ATOM      4  N   UNL     1       4.652   4.645  18.501  0.00  0.00    +0.000 NA
ATOM      5  C   UNL     1       5.330   5.537  19.453  0.00  0.00    +0.000 C 
ATOM      6  C   UNL     1       6.854   5.387  19.437  0.00  0.00    +0.000 C 
ENDROOT
BRANCH   1   8
ATOM      7  O   UNL     1       6.818   7.314  16.546  0.00  0.00    +0.000 OA
ATOM      8  C   UNL     1       7.465   6.946  17.528  0.00  0.00    +0.000 C 
ATOM      9  N   UNL     1       8.240   7.799  18.284  0.00  0.00    +0.000 N 
ATOM     10  H   UNL     1       8.633   7.472  19.156  0.00  0.00    +0.000 HD
BRANCH   9  11
ATOM     11  C   UNL     1       8.342   9.215  17.980  0.00  0.00    +0.000 C 
BRANCH  11  12
ATOM     12  C   UNL     1       9.128   9.964  19.054  0.00  0.00    +0.000 C 
BRANCH  12  13
ATOM     13  C   UNL     1       9.860  11.187  18.478  0.00  0.00    +0.000 C 
BRANCH  13  14
ATOM     14  N   UNL     1       9.786  12.370  19.352  0.00  0.00    +0.000 NA
ATOM     15  C   UNL     1       8.683  13.264  18.967  0.00  0.00    +0.000 C 
ATOM     16  C   UNL     1       8.654  14.524  19.826  0.00  0.00    +0.000 C 
ATOM     17  C   UNL     1       8.566  14.175  21.303  0.00  0.00    +0.000 C 
ATOM     18  C   UNL     1       9.676  13.202  21.683  0.00  0.00    +0.000 C 
ATOM     19  C   UNL     1       9.685  11.977  20.766  0.00  0.00    +0.000 C 
ENDBRANCH  13  14
ENDBRANCH  12  13
ENDBRANCH  11  12
ENDBRANCH   9  11
ENDBRANCH   1   8
BRANCH   4  20
ATOM     20  C   UNL     1       3.193   4.952  18.498  0.00  0.00    +0.000 C 
BRANCH  20  21
ATOM     21  C   UNL     1       2.892   6.413  18.406  0.00  0.00    +0.000 A 
ATOM     22  N   UNL     1       3.172   7.260  17.437  0.00  0.00    +0.000 NA
ATOM     23  N   UNL     1       2.561   8.448  17.778  0.00  0.00    +0.000 NA
ATOM     24  C   UNL     1       1.955   8.244  18.931  0.00  0.00    +0.000 A 
ATOM     25  O   UNL     1       2.147   6.975  19.408  0.00  0.00    +0.000 OA
BRANCH  24  26
ATOM     26  C   UNL     1       1.120   9.142  19.717  0.00  0.00    +0.000 A 
ATOM     27  C   UNL     1       0.481  10.252  19.142  0.00  0.00    +0.000 A 
ATOM     28  C   UNL     1      -0.326  11.089  19.919  0.00  0.00    +0.000 A 
ATOM     29  C   UNL     1      -0.498  10.829  21.277  0.00  0.00    +0.000 A 
ATOM     30  C   UNL     1       0.149   9.742  21.859  0.00  0.00    +0.000 A 
ATOM     31 CL   UNL     1      -0.050   9.429  23.538  0.00  0.00    +0.000 Cl
ATOM     32  C   UNL     1       0.954   8.903  21.091  0.00  0.00    +0.000 A 
ENDBRANCH  24  26
ENDBRANCH  20  21
ENDBRANCH   4  20
TORSDOF 8
ENDMDL
MODEL 3
REMARK VINA RESULT:      -8.0      1.165      1.309
REMARK  Name = 
REMARK  8 active torsions:
REMARK  status: ('A' for Active; 'I' for Inactive)
REMARK    1  A    between atoms: C_2  and  C_13
REMARK    2  A    between atoms: N_3  and  C_4
REMARK    3  A    between atoms: C_4  and  C_5
REMARK    4  A    between atoms: C_5  and  C_6
REMARK    5  A    between atoms: C_6  and  N_7
REMARK    6  A    between atoms: N_16  and  C_17
REMARK    7  A    between atoms: C_17  and  C_18
REMARK    8  A    between atoms: C_21  and  C_22
REMARK                            x       y       z     vdW  Elec       q    Type
REMARK                         _______ _______ _______ _____ _____    ______ ____
ROOT
ATOM      1  C   UNL     1       7.659   5.515  18.005  0.00  0.00    +0.000 C 
ATOM      2  C   UNL     1       7.246   4.512  16.929  0.00  0.00    +0.000 C 
ATOM      3  C   UNL     1       5.728   4.417  16.779  0.00  0.00    +0.000 C 
ATOM      4  N   UNL     1       5.050   4.107  18.049  0.00  0.00    +0.000 NA
ATOM      5  C   UNL     1       5.410   5.049  19.120  0.00  0.00    +0.000 C 
ATOM      6  C   UNL     1       6.923   5.195  19.308  0.00  0.00    +0.000 C 
ENDROOT
BRANCH   1   8
ATOM      7  O   UNL     1       6.624   7.286  16.709  0.00  0.00    +0.000 OA
ATOM      8  C   UNL     1       7.451   6.964  17.563  0.00  0.00    +0.000 C 
ATOM      9  N   UNL     1       8.248   7.873  18.225  0.00  0.00    +0.000 N 
ATOM     10  H   UNL     1       8.803   7.567  19.012  0.00  0.00    +0.000 HD
BRANCH   9  11
ATOM     11  C   UNL     1       8.159   9.299  17.967  0.00  0.00    +0.000 C 
BRANCH  11  12
ATOM     12  C   UNL     1       9.082  10.094  18.889  0.00  0.00    +0.000 C 
BRANCH  12  13
ATOM     13  C   UNL     1       9.729  11.284  18.162  0.00  0.00    +0.000 C 
BRANCH  13  14
ATOM     14  N   UNL     1       9.646  12.541  18.923  0.00  0.00    +0.000 NA
ATOM     15  C   UNL     1      10.788  12.701  19.838  0.00  0.00    +0.000 C 
ATOM     16  C   UNL     1      10.663  13.967  20.679  0.00  0.00    +0.000 C 
ATOM     17  C   UNL     1      10.513  15.196  19.796  0.00  0.00    +0.000 C 
ATOM     18  C   UNL     1       9.367  15.001  18.810  0.00  0.00    +0.000 C 
ATOM     19  C   UNL     1       9.520  13.697  18.023  0.00  0.00    +0.000 C 
ENDBRANCH  13  14
ENDBRANCH  12  13
ENDBRANCH  11  12
ENDBRANCH   9  11
ENDBRANCH   1   8
BRANCH   4  20
ATOM     20  C   UNL     1       3.572   4.128  17.857  0.00  0.00    +0.000 C 
BRANCH  20  21
ATOM     21  C   UNL     1       2.871   5.105  18.744  0.00  0.00    +0.000 A 
ATOM     22  N   UNL     1       2.528   4.981  20.010  0.00  0.00    +0.000 NA
ATOM     23  N   UNL     1       2.033   6.208  20.396  0.00  0.00    +0.000 NA
ATOM     24  C   UNL     1       2.104   6.993  19.338  0.00  0.00    +0.000 A 
ATOM     25  O   UNL     1       2.603   6.349  18.238  0.00  0.00    +0.000 OA
BRANCH  24  26
ATOM     26  C   UNL     1       1.765   8.403  19.200  0.00  0.00    +0.000 A 
ATOM     27  C   UNL     1       2.117   9.141  18.060  0.00  0.00    +0.000 A 
ATOM     28  C   UNL     1       1.766  10.490  17.949  0.00  0.00    +0.000 A 
ATOM     29  C   UNL     1       1.066  11.116  18.979  0.00  0.00    +0.000 A 
ATOM     30  C   UNL     1       0.731  10.395  20.123  0.00  0.00    +0.000 A 
ATOM     31 CL   UNL     1      -0.120  11.170  21.401  0.00  0.00    +0.000 Cl
ATOM     32  C   UNL     1       1.076   9.051  20.238  0.00  0.00    +0.000 A 
ENDBRANCH  24  26
ENDBRANCH  20  21
ENDBRANCH   4  20
TORSDOF 8
ENDMDL
MODEL 4
REMARK VINA RESULT:      -7.9      5.161      8.166
REMARK  Name = 
REMARK  8 active torsions:
REMARK  status: ('A' for Active; 'I' for Inactive)
REMARK    1  A    between atoms: C_2  and  C_13
REMARK    2  A    between atoms: N_3  and  C_4
REMARK    3  A    between atoms: C_4  and  C_5
REMARK    4  A    between atoms: C_5  and  C_6
REMARK    5  A    between atoms: C_6  and  N_7
REMARK    6  A    between atoms: N_16  and  C_17
REMARK    7  A    between atoms: C_17  and  C_18
REMARK    8  A    between atoms: C_21  and  C_22
REMARK                            x       y       z     vdW  Elec       q    Type
REMARK                         _______ _______ _______ _____ _____    ______ ____
ROOT
ATOM      1  C   UNL     1       1.886   6.232  18.778  0.00  0.00    +0.000 C 
ATOM      2  C   UNL     1       2.558   5.886  20.106  0.00  0.00    +0.000 C 
ATOM      3  C   UNL     1       3.981   5.366  19.916  0.00  0.00    +0.000 C 
ATOM      4  N   UNL     1       4.048   4.216  18.998  0.00  0.00    +0.000 NA
ATOM      5  C   UNL     1       3.419   4.499  17.699  0.00  0.00    +0.000 C 
ATOM      6  C   UNL     1       1.991   5.037  17.828  0.00  0.00    +0.000 C 
ENDROOT
BRANCH   1   8
ATOM      7  O   UNL     1       3.534   7.558  17.587  0.00  0.00    +0.000 OA
ATOM      8  C   UNL     1       2.444   7.514  18.159  0.00  0.00    +0.000 C 
ATOM      9  N   UNL     1       1.607   8.604  18.275  0.00  0.00    +0.000 N 
ATOM     10  H   UNL     1       0.669   8.476  18.628  0.00  0.00    +0.000 HD
BRANCH   9  11
ATOM     11  C   UNL     1       1.952   9.897  17.711  0.00  0.00    +0.000 C 
BRANCH  11  12
ATOM     12  C   UNL     1       1.571  11.038  18.652  0.00  0.00    +0.000 C 
BRANCH  12  13
ATOM     13  C   UNL     1       0.137  10.885  19.185  0.00  0.00    +0.000 C 
BRANCH  13  14
ATOM     14  N   UNL     1       0.056  10.953  20.653  0.00  0.00    +0.000 NA
ATOM     15  C   UNL     1      -1.124  11.712  21.100  0.00  0.00    +0.000 C 
ATOM     16  C   UNL     1      -1.166  11.844  22.618  0.00  0.00    +0.000 C 
ATOM     17  C   UNL     1      -1.128  10.479  23.287  0.00  0.00    +0.000 C 
ATOM     18  C   UNL     1       0.062   9.675  22.777  0.00  0.00    +0.000 C 
ATOM     19  C   UNL     1       0.080   9.608  21.248  0.00  0.00    +0.000 C 
ENDBRANCH  13  14
ENDBRANCH  12  13
ENDBRANCH  11  12
ENDBRANCH   9  11
ENDBRANCH   1   8
BRANCH   4  20
ATOM     20  C   UNL     1       5.468   3.822  18.776  0.00  0.00    +0.000 C 
BRANCH  20  21
ATOM     21  C   UNL     1       6.133   4.581  17.675  0.00  0.00    +0.000 A 
ATOM     22  N   UNL     1       6.960   5.603  17.751  0.00  0.00    +0.000 NA
ATOM     23  N   UNL     1       7.392   5.844  16.463  0.00  0.00    +0.000 NA
ATOM     24  C   UNL     1       6.795   4.956  15.693  0.00  0.00    +0.000 A 
ATOM     25  O   UNL     1       5.953   4.133  16.393  0.00  0.00    +0.000 OA
BRANCH  24  26
ATOM     26  C   UNL     1       6.929   4.724  14.261  0.00  0.00    +0.000 A 
ATOM     27  C   UNL     1       7.768   5.513  13.459  0.00  0.00    +0.000 A 
ATOM     28  C   UNL     1       7.888   5.258  12.089  0.00  0.00    +0.000 A 
ATOM     29  C   UNL     1       7.167   4.218  11.507  0.00  0.00    +0.000 A 
ATOM     30  C   UNL     1       6.317   3.443  12.293  0.00  0.00    +0.000 A 
ATOM     31 CL   UNL     1       5.416   2.168  11.573  0.00  0.00    +0.000 Cl
ATOM     32  C   UNL     1       6.194   3.691  13.658  0.00  0.00    +0.000 A 
ENDBRANCH  24  26
ENDBRANCH  20  21
ENDBRANCH   4  20
TORSDOF 8
ENDMDL
MODEL 5
REMARK VINA RESULT:      -7.8      1.938      2.560
REMARK  Name = 
REMARK  8 active torsions:
REMARK  status: ('A' for Active; 'I' for Inactive)
REMARK    1  A    between atoms: C_2  and  C_13
REMARK    2  A    between atoms: N_3  and  C_4
REMARK    3  A    between atoms: C_4  and  C_5
REMARK    4  A    between atoms: C_5  and  C_6
REMARK    5  A    between atoms: C_6  and  N_7
REMARK    6  A    between atoms: N_16  and  C_17
REMARK    7  A    between atoms: C_17  and  C_18
REMARK    8  A    between atoms: C_21  and  C_22
REMARK                            x       y       z     vdW  Elec       q    Type
REMARK                         _______ _______ _______ _____ _____    ______ ____
ROOT
ATOM      1  C   UNL     1       6.100   4.569  17.438  0.00  0.00    +0.000 C 
ATOM      2  C   UNL     1       4.734   4.125  16.918  0.00  0.00    +0.000 C 
ATOM      3  C   UNL     1       3.595   4.962  17.498  0.00  0.00    +0.000 C 
ATOM      4  N   UNL     1       3.596   4.981  18.970  0.00  0.00    +0.000 NA
ATOM      5  C   UNL     1       4.890   5.408  19.524  0.00  0.00    +0.000 C 
ATOM      6  C   UNL     1       6.074   4.610  18.968  0.00  0.00    +0.000 C 
ENDROOT
BRANCH   1   8
ATOM      7  O   UNL     1       6.377   6.181  15.645  0.00  0.00    +0.000 OA
ATOM      8  C   UNL     1       6.552   5.897  16.831  0.00  0.00    +0.000 C 
ATOM      9  N   UNL     1       7.145   6.755  17.733  0.00  0.00    +0.000 N 
ATOM     10  H   UNL     1       7.134   6.526  18.717  0.00  0.00    +0.000 HD
BRANCH   9  11
ATOM     11  C   UNL     1       7.600   8.078  17.346  0.00  0.00    +0.000 C 
BRANCH  11  12
ATOM     12  C   UNL     1       8.509   8.691  18.409  0.00  0.00    +0.000 C 
BRANCH  12  13
ATOM     13  C   UNL     1       8.685  10.205  18.207  0.00  0.00    +0.000 C 
BRANCH  13  14
ATOM     14  N   UNL     1       9.883  10.742  18.873  0.00  0.00    +0.000 NA
ATOM     15  C   UNL     1      10.723  11.515  17.944  0.00  0.00    +0.000 C 
ATOM     16  C   UNL     1      12.000  12.008  18.617  0.00  0.00    +0.000 C 
ATOM     17  C   UNL     1      11.681  12.831  19.855  0.00  0.00    +0.000 C 
ATOM     18  C   UNL     1      10.762  12.049  20.786  0.00  0.00    +0.000 C 
ATOM     19  C   UNL     1       9.518  11.543  20.052  0.00  0.00    +0.000 C 
ENDBRANCH  13  14
ENDBRANCH  12  13
ENDBRANCH  11  12
ENDBRANCH   9  11
ENDBRANCH   1   8
BRANCH   4  20
ATOM     20  C   UNL     1       2.528   5.892  19.471  0.00  0.00    +0.000 C 
BRANCH  20  21
ATOM     21  C   UNL     1       2.519   7.226  18.798  0.00  0.00    +0.000 A 
ATOM     22  N   UNL     1       3.187   7.625  17.735  0.00  0.00    +0.000 NA
ATOM     23  N   UNL     1       2.722   8.890  17.443  0.00  0.00    +0.000 NA
ATOM     24  C   UNL     1       1.808   9.175  18.349  0.00  0.00    +0.000 A 
ATOM     25  O   UNL     1       1.643   8.170  19.264  0.00  0.00    +0.000 OA
BRANCH  24  26
ATOM     26  C   UNL     1       0.962  10.354  18.481  0.00  0.00    +0.000 A 
ATOM     27  C   UNL     1       1.499  11.624  18.744  0.00  0.00    +0.000 A 
ATOM     28  C   UNL     1       0.664  12.741  18.851  0.00  0.00    +0.000 A 
ATOM     29  C   UNL     1      -0.714  12.598  18.704  0.00  0.00    +0.000 A 
ATOM     30  C   UNL     1      -1.256  11.338  18.464  0.00  0.00    +0.000 A 
ATOM     31 CL   UNL     1      -2.958  11.158  18.297  0.00  0.00    +0.000 Cl
ATOM     32  C   UNL     1      -0.430  10.222  18.354  0.00  0.00    +0.000 A 
ENDBRANCH  24  26
ENDBRANCH  20  21
ENDBRANCH   4  20
TORSDOF 8
ENDMDL
MODEL 6
REMARK VINA RESULT:      -7.8      1.345      1.876
REMARK  Name = 
REMARK  8 active torsions:
REMARK  status: ('A' for Active; 'I' for Inactive)
REMARK    1  A    between atoms: C_2  and  C_13
REMARK    2  A    between atoms: N_3  and  C_4
REMARK    3  A    between atoms: C_4  and  C_5
REMARK    4  A    between atoms: C_5  and  C_6
REMARK    5  A    between atoms: C_6  and  N_7
REMARK    6  A    between atoms: N_16  and  C_17
REMARK    7  A    between atoms: C_17  and  C_18
REMARK    8  A    between atoms: C_21  and  C_22
REMARK                            x       y       z     vdW  Elec       q    Type
REMARK                         _______ _______ _______ _____ _____    ______ ____
ROOT
ATOM      1  C   UNL     1       7.610   5.727  18.035  0.00  0.00    +0.000 C 
ATOM      2  C   UNL     1       7.177   4.760  16.934  0.00  0.00    +0.000 C 
ATOM      3  C   UNL     1       5.658   4.704  16.780  0.00  0.00    +0.000 C 
ATOM      4  N   UNL     1       4.970   4.379  18.041  0.00  0.00    +0.000 NA
ATOM      5  C   UNL     1       5.349   5.286  19.134  0.00  0.00    +0.000 C 
ATOM      6  C   UNL     1       6.864   5.393  19.329  0.00  0.00    +0.000 C 
ENDROOT
BRANCH   1   8
ATOM      7  O   UNL     1       6.582   7.560  16.821  0.00  0.00    +0.000 OA
ATOM      8  C   UNL     1       7.436   7.191  17.628  0.00  0.00    +0.000 C 
ATOM      9  N   UNL     1       8.299   8.057  18.264  0.00  0.00    +0.000 N 
ATOM     10  H   UNL     1       8.880   7.717  19.017  0.00  0.00    +0.000 HD
BRANCH   9  11
ATOM     11  C   UNL     1       8.253   9.490  18.034  0.00  0.00    +0.000 C 
BRANCH  11  12
ATOM     12  C   UNL     1       8.982  10.259  19.134  0.00  0.00    +0.000 C 
BRANCH  12  13
ATOM     13  C   UNL     1      10.174  11.055  18.582  0.00  0.00    +0.000 C 
BRANCH  13  14
ATOM     14  N   UNL     1      10.192  12.457  19.031  0.00  0.00    +0.000 NA
ATOM     15  C   UNL     1       8.939  13.152  18.697  0.00  0.00    +0.000 C 
ATOM     16  C   UNL     1       8.987  14.624  19.097  0.00  0.00    +0.000 C 
ATOM     17  C   UNL     1       9.303  14.776  20.577  0.00  0.00    +0.000 C 
ATOM     18  C   UNL     1      10.569  14.005  20.929  0.00  0.00    +0.000 C 
ATOM     19  C   UNL     1      10.484  12.547  20.470  0.00  0.00    +0.000 C 
ENDBRANCH  13  14
ENDBRANCH  12  13
ENDBRANCH  11  12
ENDBRANCH   9  11
ENDBRANCH   1   8
BRANCH   4  20
ATOM     20  C   UNL     1       3.493   4.439  17.847  0.00  0.00    +0.000 C 
BRANCH  20  21
ATOM     21  C   UNL     1       2.766   5.056  18.997  0.00  0.00    +0.000 A 
ATOM     22  N   UNL     1       2.459   4.531  20.165  0.00  0.00    +0.000 NA
ATOM     23  N   UNL     1       1.915   5.552  20.914  0.00  0.00    +0.000 NA
ATOM     24  C   UNL     1       1.924   6.627  20.150  0.00  0.00    +0.000 A 
ATOM     25  O   UNL     1       2.427   6.380  18.901  0.00  0.00    +0.000 OA
BRANCH  24  26
ATOM     26  C   UNL     1       1.514   7.991  20.457  0.00  0.00    +0.000 A 
ATOM     27  C   UNL     1       1.119   8.374  21.747  0.00  0.00    +0.000 A 
ATOM     28  C   UNL     1       0.745   9.695  22.015  0.00  0.00    +0.000 A 
ATOM     29  C   UNL     1       0.756  10.643  20.994  0.00  0.00    +0.000 A 
ATOM     30  C   UNL     1       1.127  10.266  19.706  0.00  0.00    +0.000 A 
ATOM     31 CL   UNL     1       1.127  11.433  18.442  0.00  0.00    +0.000 Cl
ATOM     32  C   UNL     1       1.503   8.953  19.433  0.00  0.00    +0.000 A 
ENDBRANCH  24  26
ENDBRANCH  20  21
ENDBRANCH   4  20
TORSDOF 8
ENDMDL
MODEL 7
REMARK VINA RESULT:      -7.7      1.713      2.236
REMARK  Name = 
REMARK  8 active torsions:
REMARK  status: ('A' for Active; 'I' for Inactive)
REMARK    1  A    between atoms: C_2  and  C_13
REMARK    2  A    between atoms: N_3  and  C_4
REMARK    3  A    between atoms: C_4  and  C_5
REMARK    4  A    between atoms: C_5  and  C_6
REMARK    5  A    between atoms: C_6  and  N_7
REMARK    6  A    between atoms: N_16  and  C_17
REMARK    7  A    between atoms: C_17  and  C_18
REMARK    8  A    between atoms: C_21  and  C_22
REMARK                            x       y       z     vdW  Elec       q    Type
REMARK                         _______ _______ _______ _____ _____    ______ ____
ROOT
ATOM      1  C   UNL     1       7.666   6.014  17.824  0.00  0.00    +0.000 C 
ATOM      2  C   UNL     1       6.993   5.182  16.733  0.00  0.00    +0.000 C 
ATOM      3  C   UNL     1       5.469   5.236  16.823  0.00  0.00    +0.000 C 
ATOM      4  N   UNL     1       4.963   4.841  18.147  0.00  0.00    +0.000 NA
ATOM      5  C   UNL     1       5.575   5.617  19.235  0.00  0.00    +0.000 C 
ATOM      6  C   UNL     1       7.106   5.610  19.191  0.00  0.00    +0.000 C 
ENDROOT
BRANCH   1   8
ATOM      7  O   UNL     1       6.773   7.990  16.734  0.00  0.00    +0.000 OA
ATOM      8  C   UNL     1       7.543   7.517  17.571  0.00  0.00    +0.000 C 
ATOM      9  N   UNL     1       8.348   8.291  18.380  0.00  0.00    +0.000 N 
ATOM     10  H   UNL     1       8.852   7.857  19.140  0.00  0.00    +0.000 HD
BRANCH   9  11
ATOM     11  C   UNL     1       8.336   9.741  18.309  0.00  0.00    +0.000 C 
BRANCH  11  12
ATOM     12  C   UNL     1       9.744  10.306  18.135  0.00  0.00    +0.000 C 
BRANCH  12  13
ATOM     13  C   UNL     1      10.181  11.138  19.351  0.00  0.00    +0.000 C 
BRANCH  13  14
ATOM     14  N   UNL     1      11.122  12.217  19.007  0.00  0.00    +0.000 NA
ATOM     15  C   UNL     1      11.297  12.343  17.551  0.00  0.00    +0.000 C 
ATOM     16  C   UNL     1      12.327  13.411  17.198  0.00  0.00    +0.000 C 
ATOM     17  C   UNL     1      11.952  14.753  17.807  0.00  0.00    +0.000 C 
ATOM     18  C   UNL     1      11.714  14.605  19.305  0.00  0.00    +0.000 C 
ATOM     19  C   UNL     1      10.704  13.494  19.605  0.00  0.00    +0.000 C 
ENDBRANCH  13  14
ENDBRANCH  12  13
ENDBRANCH  11  12
ENDBRANCH   9  11
ENDBRANCH   1   8
BRANCH   4  20
ATOM     20  C   UNL     1       3.483   5.011  18.200  0.00  0.00    +0.000 C 
BRANCH  20  21
ATOM     21  C   UNL     1       3.052   6.433  18.353  0.00  0.00    +0.000 A 
ATOM     22  N   UNL     1       3.159   7.431  17.499  0.00  0.00    +0.000 NA
ATOM     23  N   UNL     1       2.488   8.494  18.065  0.00  0.00    +0.000 NA
ATOM     24  C   UNL     1       2.022   8.072  19.224  0.00  0.00    +0.000 A 
ATOM     25  O   UNL     1       2.367   6.774  19.489  0.00  0.00    +0.000 OA
BRANCH  24  26
ATOM     26  C   UNL     1       1.198   8.766  20.205  0.00  0.00    +0.000 A 
ATOM     27  C   UNL     1       1.204   8.409  21.563  0.00  0.00    +0.000 A 
ATOM     28  C   UNL     1       0.413   9.104  22.484  0.00  0.00    +0.000 A 
ATOM     29  C   UNL     1      -0.395  10.155  22.058  0.00  0.00    +0.000 A 
ATOM     30  C   UNL     1      -0.421  10.502  20.709  0.00  0.00    +0.000 A 
ATOM     31 CL   UNL     1      -1.430  11.790  20.178  0.00  0.00    +0.000 Cl
ATOM     32  C   UNL     1       0.365   9.816  19.786  0.00  0.00    +0.000 A 
ENDBRANCH  24  26
ENDBRANCH  20  21
ENDBRANCH   4  20
TORSDOF 8
ENDMDL
MODEL 8
REMARK VINA RESULT:      -7.7      3.490      5.172
REMARK  Name = 
REMARK  8 active torsions:
REMARK  status: ('A' for Active; 'I' for Inactive)
REMARK    1  A    between atoms: C_2  and  C_13
REMARK    2  A    between atoms: N_3  and  C_4
REMARK    3  A    between atoms: C_4  and  C_5
REMARK    4  A    between atoms: C_5  and  C_6
REMARK    5  A    between atoms: C_6  and  N_7
REMARK    6  A    between atoms: N_16  and  C_17
REMARK    7  A    between atoms: C_17  and  C_18
REMARK    8  A    between atoms: C_21  and  C_22
REMARK                            x       y       z     vdW  Elec       q    Type
REMARK                         _______ _______ _______ _____ _____    ______ ____
ROOT
ATOM      1  C   UNL     1       3.063   1.787  18.409  0.00  0.00    +0.000 C 
ATOM      2  C   UNL     1       1.666   1.775  19.029  0.00  0.00    +0.000 C 
ATOM      3  C   UNL     1       1.386   3.037  19.844  0.00  0.00    +0.000 C 
ATOM      4  N   UNL     1       2.400   3.280  20.882  0.00  0.00    +0.000 NA
ATOM      5  C   UNL     1       3.765   3.307  20.336  0.00  0.00    +0.000 C 
ATOM      6  C   UNL     1       4.101   2.070  19.497  0.00  0.00    +0.000 C 
ENDROOT
BRANCH   1   8
ATOM      7  O   UNL     1       2.213   3.055  16.522  0.00  0.00    +0.000 OA
ATOM      8  C   UNL     1       3.173   2.763  17.236  0.00  0.00    +0.000 C 
ATOM      9  N   UNL     1       4.430   3.304  17.072  0.00  0.00    +0.000 N 
ATOM     10  H   UNL     1       5.139   3.136  17.772  0.00  0.00    +0.000 HD
BRANCH   9  11
ATOM     11  C   UNL     1       4.713   4.281  16.036  0.00  0.00    +0.000 C 
BRANCH  11  12
ATOM     12  C   UNL     1       5.861   3.827  15.137  0.00  0.00    +0.000 C 
BRANCH  12  13
ATOM     13  C   UNL     1       7.152   4.613  15.419  0.00  0.00    +0.000 C 
BRANCH  13  14
ATOM     14  N   UNL     1       7.094   5.393  16.665  0.00  0.00    +0.000 NA
ATOM     15  C   UNL     1       7.795   4.715  17.767  0.00  0.00    +0.000 C 
ATOM     16  C   UNL     1       7.671   5.490  19.075  0.00  0.00    +0.000 C 
ATOM     17  C   UNL     1       8.181   6.913  18.917  0.00  0.00    +0.000 C 
ATOM     18  C   UNL     1       7.495   7.592  17.737  0.00  0.00    +0.000 C 
ATOM     19  C   UNL     1       7.615   6.754  16.461  0.00  0.00    +0.000 C 
ENDBRANCH  13  14
ENDBRANCH  12  13
ENDBRANCH  11  12
ENDBRANCH   9  11
ENDBRANCH   1   8
BRANCH   4  20
ATOM     20  C   UNL     1       2.126   4.573  21.571  0.00  0.00    +0.000 C 
BRANCH  20  21
ATOM     21  C   UNL     1       2.235   5.762  20.673  0.00  0.00    +0.000 A 
ATOM     22  N   UNL     1       2.828   5.868  19.502  0.00  0.00    +0.000 NA
ATOM     23  N   UNL     1       2.523   7.126  19.029  0.00  0.00    +0.000 NA
ATOM     24  C   UNL     1       1.769   7.701  19.945  0.00  0.00    +0.000 A 
ATOM     25  O   UNL     1       1.565   6.900  21.037  0.00  0.00    +0.000 OA
BRANCH  24  26
ATOM     26  C   UNL     1       1.125   9.008  19.936  0.00  0.00    +0.000 A 
ATOM     27  C   UNL     1       1.121   9.824  18.795  0.00  0.00    +0.000 A 
ATOM     28  C   UNL     1       0.482  11.068  18.812  0.00  0.00    +0.000 A 
ATOM     29  C   UNL     1      -0.151  11.512  19.971  0.00  0.00    +0.000 A 
ATOM     30  C   UNL     1      -0.133  10.716  21.114  0.00  0.00    +0.000 A 
ATOM     31 CL   UNL     1      -0.902  11.269  22.550  0.00  0.00    +0.000 Cl
ATOM     32  C   UNL     1       0.499   9.476  21.103  0.00  0.00    +0.000 A 
ENDBRANCH  24  26
ENDBRANCH  20  21
ENDBRANCH   4  20
TORSDOF 8
ENDMDL
MODEL 9
REMARK VINA RESULT:      -7.6      5.255      8.354
REMARK  Name = 
REMARK  8 active torsions:
REMARK  status: ('A' for Active; 'I' for Inactive)
REMARK    1  A    between atoms: C_2  and  C_13
REMARK    2  A    between atoms: N_3  and  C_4
REMARK    3  A    between atoms: C_4  and  C_5
REMARK    4  A    between atoms: C_5  and  C_6
REMARK    5  A    between atoms: C_6  and  N_7
REMARK    6  A    between atoms: N_16  and  C_17
REMARK    7  A    between atoms: C_17  and  C_18
REMARK    8  A    between atoms: C_21  and  C_22
REMARK                            x       y       z     vdW  Elec       q    Type
REMARK                         _______ _______ _______ _____ _____    ______ ____
ROOT
ATOM      1  C   UNL     1       1.551   3.266  18.890  0.00  0.00    +0.000 C 
ATOM      2  C   UNL     1       2.594   2.186  19.174  0.00  0.00    +0.000 C 
ATOM      3  C   UNL     1       3.983   2.773  19.417  0.00  0.00    +0.000 C 
ATOM      4  N   UNL     1       4.435   3.638  18.315  0.00  0.00    +0.000 NA
ATOM      5  C   UNL     1       3.467   4.701  18.004  0.00  0.00    +0.000 C 
ATOM      6  C   UNL     1       2.051   4.172  17.762  0.00  0.00    +0.000 C 
ENDROOT
BRANCH   1   8
ATOM      7  O   UNL     1       0.671   3.528  21.137  0.00  0.00    +0.000 OA
ATOM      8  C   UNL     1       1.174   4.056  20.144  0.00  0.00    +0.000 C 
ATOM      9  N   UNL     1       1.473   5.400  20.072  0.00  0.00    +0.000 N 
ATOM     10  H   UNL     1       2.011   5.748  19.291  0.00  0.00    +0.000 HD
BRANCH   9  11
ATOM     11  C   UNL     1       1.223   6.299  21.184  0.00  0.00    +0.000 C 
BRANCH  11  12
ATOM     12  C   UNL     1       1.315   7.762  20.752  0.00  0.00    +0.000 C 
BRANCH  12  13
ATOM     13  C   UNL     1       1.521   8.700  21.952  0.00  0.00    +0.000 C 
BRANCH  13  14
ATOM     14  N   UNL     1       0.836   9.995  21.798  0.00  0.00    +0.000 NA
ATOM     15  C   UNL     1       0.351  10.196  20.424  0.00  0.00    +0.000 C 
ATOM     16  C   UNL     1      -0.292  11.567  20.248  0.00  0.00    +0.000 C 
ATOM     17  C   UNL     1      -1.421  11.772  21.245  0.00  0.00    +0.000 C 
ATOM     18  C   UNL     1      -0.929  11.505  22.663  0.00  0.00    +0.000 C 
ATOM     19  C   UNL     1      -0.256  10.134  22.773  0.00  0.00    +0.000 C 
ENDBRANCH  13  14
ENDBRANCH  12  13
ENDBRANCH  11  12
ENDBRANCH   9  11
ENDBRANCH   1   8
BRANCH   4  20
ATOM     20  C   UNL     1       5.747   4.258  18.657  0.00  0.00    +0.000 C 
BRANCH  20  21
ATOM     21  C   UNL     1       6.400   4.946  17.502  0.00  0.00    +0.000 A 
ATOM     22  N   UNL     1       7.248   5.954  17.506  0.00  0.00    +0.000 NA
ATOM     23  N   UNL     1       7.655   6.118  16.199  0.00  0.00    +0.000 NA
ATOM     24  C   UNL     1       7.026   5.202  15.490  0.00  0.00    +0.000 A 
ATOM     25  O   UNL     1       6.185   4.434  16.250  0.00  0.00    +0.000 OA
BRANCH  24  26
ATOM     26  C   UNL     1       7.125   4.892  14.070  0.00  0.00    +0.000 A 
ATOM     27  C   UNL     1       7.937   5.641  13.204  0.00  0.00    +0.000 A 
ATOM     28  C   UNL     1       8.024   5.311  11.847  0.00  0.00    +0.000 A 
ATOM     29  C   UNL     1       7.296   4.235  11.343  0.00  0.00    +0.000 A 
ATOM     30  C   UNL     1       6.472   3.500  12.192  0.00  0.00    +0.000 A 
ATOM     31 CL   UNL     1       5.562   2.181  11.568  0.00  0.00    +0.000 Cl
ATOM     32  C   UNL     1       6.383   3.822  13.544  0.00  0.00    +0.000 A 
ENDBRANCH  24  26
ENDBRANCH  20  21
ENDBRANCH   4  20
TORSDOF 8
ENDMDL
