MODEL 1
REMARK VINA RESULT:      -9.6      0.000      0.000
REMARK  Name = 
REMARK  6 active torsions:
REMARK  status: ('A' for Active; 'I' for Inactive)
REMARK    1  A    between atoms: C_1  and  N_2
REMARK    2  A    between atoms: C_3  and  C_5
REMARK    3  A    between atoms: C_7  and  O_8
REMARK    4  A    between atoms: O_8  and  C_9
REMARK    5  A    between atoms: C_12  and  C_13
REMARK    6  A    between atoms: C_16  and  C_17
REMARK                            x       y       z     vdW  Elec       q    Type
REMARK                         _______ _______ _______ _____ _____    ______ ____
ROOT
ATOM      1  C   UNL     1       3.448   6.058  18.489  0.00  0.00    +0.000 A 
ATOM      2  C   UNL     1       2.640   6.265  19.610  0.00  0.00    +0.000 A 
ATOM      3  C   UNL     1       1.920   7.457  19.747  0.00  0.00    +0.000 A 
ATOM      4  C   UNL     1       2.004   8.446  18.760  0.00  0.00    +0.000 A 
ATOM      5  C   UNL     1       2.818   8.240  17.644  0.00  0.00    +0.000 A 
ATOM      6  C   UNL     1       3.564   7.067  17.528  0.00  0.00    +0.000 A 
ENDROOT
BRANCH   4   7
ATOM      7  C   UNL     1       1.245   9.707  18.918  0.00  0.00    +0.000 C 
ATOM      8  N   UNL     1       1.434  10.751  18.171  0.00  0.00    +0.000 NA
ATOM      9  N   UNL     1       0.624  11.721  18.644  0.00  0.00    +0.000 N 
ATOM     10  C   UNL     1      -0.327  11.266  19.664  0.00  0.00    +0.000 C 
ATOM     11  C   UNL     1       0.161   9.849  19.953  0.00  0.00    +0.000 C 
ATOM     12  H   UNL     1       0.209  12.299  17.914  0.00  0.00    +0.000 HD
BRANCH  10  13
ATOM     13  C   UNL     1      -1.771  11.355  19.198  0.00  0.00    +0.000 A 
ATOM     14  C   UNL     1      -2.194  10.615  18.074  0.00  0.00    +0.000 A 
ATOM     15  C   UNL     1      -3.493  10.736  17.574  0.00  0.00    +0.000 A 
ATOM     16  C   UNL     1      -4.392  11.599  18.191  0.00  0.00    +0.000 A 
ATOM     17 CL   UNL     1      -5.975  11.789  17.548  0.00  0.00    +0.000 Cl
ATOM     18  C   UNL     1      -4.014  12.317  19.320  0.00  0.00    +0.000 A 
ATOM     19  C   UNL     1      -2.713  12.192  19.827  0.00  0.00    +0.000 A 
ATOM     20 CL   UNL     1      -2.348  13.105  21.247  0.00  0.00    +0.000 Cl
ENDBRANCH  10  13
ENDBRANCH   4   7
BRANCH   1  21
ATOM     21  O   UNL     1       4.136   4.866  18.447  0.00  0.00    +0.000 OA
BRANCH  21  24
ATOM     22  C   UNL     1       6.693   4.602  15.822  0.00  0.00    +0.000 A 
ATOM     23  C   UNL     1       5.426   4.670  16.378  0.00  0.00    +0.000 A 
ATOM     24  C   UNL     1       5.326   4.782  17.760  0.00  0.00    +0.000 A 
ATOM     25  C   UNL     1       6.482   4.750  18.537  0.00  0.00    +0.000 A 
ATOM     26  C   UNL     1       7.704   4.656  17.892  0.00  0.00    +0.000 A 
ATOM     27  N   UNL     1       7.847   4.590  16.550  0.00  0.00    +0.000 NA
BRANCH  22  30
ATOM     28  C   UNL     1       6.207   3.332  12.293  0.00  0.00    +0.000 C 
ATOM     29  N   UNL     1       6.166   3.513  13.720  0.00  0.00    +0.000 N 
ATOM     30  C   UNL     1       6.829   4.557  14.330  0.00  0.00    +0.000 C 
ATOM     31  O   UNL     1       7.491   5.390  13.726  0.00  0.00    +0.000 OA
ATOM     32  H   UNL     1       5.646   2.880  14.319  0.00  0.00    +0.000 HD
ENDBRANCH  22  30
ENDBRANCH  21  24
ENDBRANCH   1  21
TORSDOF 5
ENDMDL
MODEL 2
REMARK VINA RESULT:      -9.4      2.244      3.333
REMARK  Name = 
REMARK  6 active torsions:
REMARK  status: ('A' for Active; 'I' for Inactive)
REMARK    1  A    between atoms: C_1  and  N_2
REMARK    2  A    between atoms: C_3  and  C_5
REMARK    3  A    between atoms: C_7  and  O_8
REMARK    4  A    between atoms: O_8  and  C_9
REMARK    5  A    between atoms: C_12  and  C_13
REMARK    6  A    between atoms: C_16  and  C_17
REMARK                            x       y       z     vdW  Elec       q    Type
REMARK                         _______ _______ _______ _____ _____    ______ ____
ROOT
ATOM      1  C   UNL     1       3.204   5.715  18.685  0.00  0.00    +0.000 A 
ATOM      2  C   UNL     1       3.209   6.757  17.755  0.00  0.00    +0.000 A 
ATOM      3  C   UNL     1       2.556   7.961  18.044  0.00  0.00    +0.000 A 
ATOM      4  C   UNL     1       1.897   8.125  19.268  0.00  0.00    +0.000 A 
ATOM      5  C   UNL     1       1.887   7.080  20.194  0.00  0.00    +0.000 A 
ATOM      6  C   UNL     1       2.507   5.868  19.887  0.00  0.00    +0.000 A 
ENDROOT
BRANCH   4   7
ATOM      7  C   UNL     1       1.201   9.399  19.562  0.00  0.00    +0.000 C 
ATOM      8  N   UNL     1       1.044   9.865  20.763  0.00  0.00    +0.000 NA
ATOM      9  N   UNL     1       0.313  10.994  20.650  0.00  0.00    +0.000 N 
ATOM     10  C   UNL     1       0.111  11.445  19.269  0.00  0.00    +0.000 C 
ATOM     11  C   UNL     1       0.652  10.268  18.461  0.00  0.00    +0.000 C 
ATOM     12  H   UNL     1       0.600  11.732  21.293  0.00  0.00    +0.000 HD
BRANCH  10  13
ATOM     13  C   UNL     1       0.793  12.774  18.983  0.00  0.00    +0.000 A 
ATOM     14  C   UNL     1       2.059  12.796  18.361  0.00  0.00    +0.000 A 
ATOM     15  C   UNL     1       2.744  13.996  18.157  0.00  0.00    +0.000 A 
ATOM     16  C   UNL     1       2.175  15.196  18.571  0.00  0.00    +0.000 A 
ATOM     17 CL   UNL     1       3.038  16.668  18.367  0.00  0.00    +0.000 Cl
ATOM     18  C   UNL     1       0.914  15.209  19.157  0.00  0.00    +0.000 A 
ATOM     19  C   UNL     1       0.221  14.006  19.357  0.00  0.00    +0.000 A 
ATOM     20 CL   UNL     1      -1.348  14.130  20.068  0.00  0.00    +0.000 Cl
ENDBRANCH  10  13
ENDBRANCH   4   7
BRANCH   1  21
ATOM     21  O   UNL     1       3.854   4.562  18.308  0.00  0.00    +0.000 OA
BRANCH  21  24
ATOM     22  C   UNL     1       6.639   4.630  15.912  0.00  0.00    +0.000 A 
ATOM     23  C   UNL     1       5.331   4.532  16.358  0.00  0.00    +0.000 A 
ATOM     24  C   UNL     1       5.099   4.633  17.725  0.00  0.00    +0.000 A 
ATOM     25  C   UNL     1       6.179   4.755  18.597  0.00  0.00    +0.000 A 
ATOM     26  C   UNL     1       7.454   4.822  18.059  0.00  0.00    +0.000 A 
ATOM     27  N   UNL     1       7.718   4.772  16.734  0.00  0.00    +0.000 NA
BRANCH  22  30
ATOM     28  C   UNL     1       6.385   3.460  12.324  0.00  0.00    +0.000 C 
ATOM     29  N   UNL     1       6.228   3.619  13.746  0.00  0.00    +0.000 N 
ATOM     30  C   UNL     1       6.906   4.600  14.437  0.00  0.00    +0.000 C 
ATOM     31  O   UNL     1       7.679   5.392  13.914  0.00  0.00    +0.000 OA
ATOM     32  H   UNL     1       5.611   3.016  14.281  0.00  0.00    +0.000 HD
ENDBRANCH  22  30
ENDBRANCH  21  24
ENDBRANCH   1  21
TORSDOF 5
ENDMDL
MODEL 3
REMARK VINA RESULT:      -9.4      2.646      3.398
REMARK  Name = 
REMARK  6 active torsions:
REMARK  status: ('A' for Active; 'I' for Inactive)
REMARK    1  A    between atoms: C_1  and  N_2
REMARK    2  A    between atoms: C_3  and  C_5
REMARK    3  A    between atoms: C_7  and  O_8
REMARK    4  A    between atoms: O_8  and  C_9
REMARK    5  A    between atoms: C_12  and  C_13
REMARK    6  A    between atoms: C_16  and  C_17
REMARK                            x       y       z     vdW  Elec       q    Type
REMARK                         _______ _______ _______ _____ _____    ______ ____
ROOT
ATOM      1  C   UNL     1       2.990   5.313  18.745  0.00  0.00    +0.000 A 
ATOM      2  C   UNL     1       2.929   6.568  18.133  0.00  0.00    +0.000 A 
ATOM      3  C   UNL     1       2.332   7.645  18.797  0.00  0.00    +0.000 A 
ATOM      4  C   UNL     1       1.795   7.470  20.078  0.00  0.00    +0.000 A 
ATOM      5  C   UNL     1       1.851   6.214  20.685  0.00  0.00    +0.000 A 
ATOM      6  C   UNL     1       2.412   5.133  20.005  0.00  0.00    +0.000 A 
ENDROOT
BRANCH   4   7
ATOM      7  C   UNL     1       1.158   8.614  20.769  0.00  0.00    +0.000 C 
ATOM      8  N   UNL     1       1.304   8.852  22.037  0.00  0.00    +0.000 NA
ATOM      9  N   UNL     1       0.533   9.921  22.324  0.00  0.00    +0.000 N 
ATOM     10  C   UNL     1      -0.038  10.585  21.147  0.00  0.00    +0.000 C 
ATOM     11  C   UNL     1       0.312   9.612  20.025  0.00  0.00    +0.000 C 
ATOM     12  H   UNL     1       0.952  10.558  23.001  0.00  0.00    +0.000 HD
BRANCH  10  13
ATOM     13  C   UNL     1       0.500  11.994  20.953  0.00  0.00    +0.000 A 
ATOM     14  C   UNL     1       1.473  12.245  19.964  0.00  0.00    +0.000 A 
ATOM     15  C   UNL     1       2.043  13.512  19.814  0.00  0.00    +0.000 A 
ATOM     16  C   UNL     1       1.650  14.550  20.652  0.00  0.00    +0.000 A 
ATOM     17 CL   UNL     1       2.387  16.096  20.505  0.00  0.00    +0.000 Cl
ATOM     18  C   UNL     1       0.669  14.340  21.615  0.00  0.00    +0.000 A 
ATOM     19  C   UNL     1       0.090  13.072  21.763  0.00  0.00    +0.000 A 
ATOM     20 CL   UNL     1      -1.136  12.920  22.969  0.00  0.00    +0.000 Cl
ENDBRANCH  10  13
ENDBRANCH   4   7
BRANCH   1  21
ATOM     21  O   UNL     1       3.576   4.307  18.010  0.00  0.00    +0.000 OA
BRANCH  21  24
ATOM     22  C   UNL     1       6.533   4.592  15.847  0.00  0.00    +0.000 A 
ATOM     23  C   UNL     1       5.202   4.409  16.184  0.00  0.00    +0.000 A 
ATOM     24  C   UNL     1       4.857   4.464  17.530  0.00  0.00    +0.000 A 
ATOM     25  C   UNL     1       5.855   4.626  18.488  0.00  0.00    +0.000 A 
ATOM     26  C   UNL     1       7.163   4.778  18.056  0.00  0.00    +0.000 A 
ATOM     27  N   UNL     1       7.533   4.775  16.756  0.00  0.00    +0.000 NA
BRANCH  22  30
ATOM     28  C   UNL     1       6.587   3.530  12.217  0.00  0.00    +0.000 C 
ATOM     29  N   UNL     1       6.315   3.643  13.626  0.00  0.00    +0.000 N 
ATOM     30  C   UNL     1       6.918   4.612  14.399  0.00  0.00    +0.000 C 
ATOM     31  O   UNL     1       7.715   5.432  13.963  0.00  0.00    +0.000 OA
ATOM     32  H   UNL     1       5.668   3.014  14.092  0.00  0.00    +0.000 HD
ENDBRANCH  22  30
ENDBRANCH  21  24
ENDBRANCH   1  21
TORSDOF 5
ENDMDL
MODEL 4
REMARK VINA RESULT:      -9.1      1.063      1.247
REMARK  Name = 
REMARK  6 active torsions:
REMARK  status: ('A' for Active; 'I' for Inactive)
REMARK    1  A    between atoms: C_1  and  N_2
REMARK    2  A    between atoms: C_3  and  C_5
REMARK    3  A    between atoms: C_7  and  O_8
REMARK    4  A    between atoms: O_8  and  C_9
REMARK    5  A    between atoms: C_12  and  C_13
REMARK    6  A    between atoms: C_16  and  C_17
REMARK                            x       y       z     vdW  Elec       q    Type
REMARK                         _______ _______ _______ _____ _____    ______ ____
ROOT
ATOM      1  C   UNL     1       2.922   6.417  18.508  0.00  0.00    +0.000 A 
ATOM      2  C   UNL     1       2.379   6.652  19.774  0.00  0.00    +0.000 A 
ATOM      3  C   UNL     1       1.802   7.891  20.073  0.00  0.00    +0.000 A 
ATOM      4  C   UNL     1       1.765   8.901  19.103  0.00  0.00    +0.000 A 
ATOM      5  C   UNL     1       2.313   8.666  17.841  0.00  0.00    +0.000 A 
ATOM      6  C   UNL     1       2.922   7.443  17.558  0.00  0.00    +0.000 A 
ENDROOT
BRANCH   4   7
ATOM      7  C   UNL     1       1.160  10.211  19.431  0.00  0.00    +0.000 C 
ATOM      8  N   UNL     1       1.199  11.234  18.633  0.00  0.00    +0.000 NA
ATOM      9  N   UNL     1       0.615  12.260  19.286  0.00  0.00    +0.000 N 
ATOM     10  C   UNL     1      -0.040  11.880  20.543  0.00  0.00    +0.000 C 
ATOM     11  C   UNL     1       0.419  10.436  20.723  0.00  0.00    +0.000 C 
ATOM     12  H   UNL     1       0.049  12.859  18.685  0.00  0.00    +0.000 HD
BRANCH  10  13
ATOM     13  C   UNL     1      -1.549  12.062  20.493  0.00  0.00    +0.000 A 
ATOM     14  C   UNL     1      -2.239  11.887  19.276  0.00  0.00    +0.000 A 
ATOM     15  C   UNL     1      -3.613  12.123  19.182  0.00  0.00    +0.000 A 
ATOM     16  C   UNL     1      -4.320  12.540  20.305  0.00  0.00    +0.000 A 
ATOM     17 CL   UNL     1      -6.000  12.882  20.181  0.00  0.00    +0.000 Cl
ATOM     18  C   UNL     1      -3.673  12.689  21.527  0.00  0.00    +0.000 A 
ATOM     19  C   UNL     1      -2.295  12.446  21.625  0.00  0.00    +0.000 A 
ATOM     20 CL   UNL     1      -1.589  12.634  23.189  0.00  0.00    +0.000 Cl
ENDBRANCH  10  13
ENDBRANCH   4   7
BRANCH   1  21
ATOM     21  O   UNL     1       3.486   5.177  18.309  0.00  0.00    +0.000 OA
BRANCH  21  24
ATOM     22  C   UNL     1       6.437   4.816  16.151  0.00  0.00    +0.000 A 
ATOM     23  C   UNL     1       5.096   4.893  16.490  0.00  0.00    +0.000 A 
ATOM     24  C   UNL     1       4.772   5.076  17.829  0.00  0.00    +0.000 A 
ATOM     25  C   UNL     1       5.786   5.102  18.784  0.00  0.00    +0.000 A 
ATOM     26  C   UNL     1       7.098   4.993  18.351  0.00  0.00    +0.000 A 
ATOM     27  N   UNL     1       7.458   4.860  17.056  0.00  0.00    +0.000 NA
BRANCH  22  30
ATOM     28  C   UNL     1       6.379   3.488  12.610  0.00  0.00    +0.000 C 
ATOM     29  N   UNL     1       6.125   3.728  14.006  0.00  0.00    +0.000 N 
ATOM     30  C   UNL     1       6.815   4.695  14.706  0.00  0.00    +0.000 C 
ATOM     31  O   UNL     1       7.679   5.408  14.212  0.00  0.00    +0.000 OA
ATOM     32  H   UNL     1       5.428   3.195  14.516  0.00  0.00    +0.000 HD
ENDBRANCH  22  30
ENDBRANCH  21  24
ENDBRANCH   1  21
TORSDOF 5
ENDMDL
MODEL 5
REMARK VINA RESULT:      -9.0      1.048      1.623
REMARK  Name = 
REMARK  6 active torsions:
REMARK  status: ('A' for Active; 'I' for Inactive)
REMARK    1  A    between atoms: C_1  and  N_2
REMARK    2  A    between atoms: C_3  and  C_5
REMARK    3  A    between atoms: C_7  and  O_8
REMARK    4  A    between atoms: O_8  and  C_9
REMARK    5  A    between atoms: C_12  and  C_13
REMARK    6  A    between atoms: C_16  and  C_17
REMARK                            x       y       z     vdW  Elec       q    Type
REMARK                         _______ _______ _______ _____ _____    ______ ____
ROOT
ATOM      1  C   UNL     1       3.054   6.110  18.700  0.00  0.00    +0.000 A 
ATOM      2  C   UNL     1       2.947   7.031  17.655  0.00  0.00    +0.000 A 
ATOM      3  C   UNL     1       2.281   8.246  17.854  0.00  0.00    +0.000 A 
ATOM      4  C   UNL     1       1.721   8.543  19.102  0.00  0.00    +0.000 A 
ATOM      5  C   UNL     1       1.822   7.618  20.143  0.00  0.00    +0.000 A 
ATOM      6  C   UNL     1       2.454   6.392  19.931  0.00  0.00    +0.000 A 
ENDROOT
BRANCH   4   7
ATOM      7  C   UNL     1       1.011   9.827  19.300  0.00  0.00    +0.000 C 
ATOM      8  N   UNL     1       1.311  10.914  18.657  0.00  0.00    +0.000 NA
ATOM      9  N   UNL     1       0.510  11.886  19.141  0.00  0.00    +0.000 N 
ATOM     10  C   UNL     1      -0.543  11.406  20.042  0.00  0.00    +0.000 C 
ATOM     11  C   UNL     1      -0.149   9.947  20.254  0.00  0.00    +0.000 C 
ATOM     12  H   UNL     1       0.185  12.540  18.429  0.00  0.00    +0.000 HD
BRANCH  10  13
ATOM     13  C   UNL     1      -1.938  11.607  19.471  0.00  0.00    +0.000 A 
ATOM     14  C   UNL     1      -2.854  12.450  20.132  0.00  0.00    +0.000 A 
ATOM     15  C   UNL     1      -4.167  12.593  19.675  0.00  0.00    +0.000 A 
ATOM     16  C   UNL     1      -4.586  11.893  18.548  0.00  0.00    +0.000 A 
ATOM     17 CL   UNL     1      -6.214  12.026  18.013  0.00  0.00    +0.000 Cl
ATOM     18  C   UNL     1      -3.695  11.079  17.856  0.00  0.00    +0.000 A 
ATOM     19  C   UNL     1      -2.375  10.940  18.309  0.00  0.00    +0.000 A 
ATOM     20 CL   UNL     1      -1.340   9.928  17.367  0.00  0.00    +0.000 Cl
ENDBRANCH  10  13
ENDBRANCH   4   7
BRANCH   1  21
ATOM     21  O   UNL     1       3.708   4.934  18.409  0.00  0.00    +0.000 OA
BRANCH  21  24
ATOM     22  C   UNL     1       6.567   4.845  16.103  0.00  0.00    +0.000 A 
ATOM     23  C   UNL     1       5.245   4.777  16.512  0.00  0.00    +0.000 A 
ATOM     24  C   UNL     1       4.971   4.967  17.861  0.00  0.00    +0.000 A 
ATOM     25  C   UNL     1       6.022   5.145  18.758  0.00  0.00    +0.000 A 
ATOM     26  C   UNL     1       7.314   5.176  18.257  0.00  0.00    +0.000 A 
ATOM     27  N   UNL     1       7.620   5.040  16.948  0.00  0.00    +0.000 NA
BRANCH  22  30
ATOM     28  C   UNL     1       6.393   3.468  12.584  0.00  0.00    +0.000 C 
ATOM     29  N   UNL     1       6.196   3.718  13.987  0.00  0.00    +0.000 N 
ATOM     30  C   UNL     1       6.881   4.719  14.642  0.00  0.00    +0.000 C 
ATOM     31  O   UNL     1       7.694   5.455  14.100  0.00  0.00    +0.000 OA
ATOM     32  H   UNL     1       5.543   3.166  14.536  0.00  0.00    +0.000 HD
ENDBRANCH  22  30
ENDBRANCH  21  24
ENDBRANCH   1  21
TORSDOF 5
ENDMDL
MODEL 6
REMARK VINA RESULT:      -8.9      2.239      2.593
REMARK  Name = 
REMARK  6 active torsions:
REMARK  status: ('A' for Active; 'I' for Inactive)
REMARK    1  A    between atoms: C_1  and  N_2
REMARK    2  A    between atoms: C_3  and  C_5
REMARK    3  A    between atoms: C_7  and  O_8
REMARK    4  A    between atoms: O_8  and  C_9
REMARK    5  A    between atoms: C_12  and  C_13
REMARK    6  A    between atoms: C_16  and  C_17
REMARK                            x       y       z     vdW  Elec       q    Type
REMARK                         _______ _______ _______ _____ _____    ______ ____
ROOT
ATOM      1  C   UNL     1       2.957   6.491  18.709  0.00  0.00    +0.000 A 
ATOM      2  C   UNL     1       2.358   6.771  19.941  0.00  0.00    +0.000 A 
ATOM      3  C   UNL     1       1.685   7.983  20.135  0.00  0.00    +0.000 A 
ATOM      4  C   UNL     1       1.608   8.918  19.097  0.00  0.00    +0.000 A 
ATOM      5  C   UNL     1       2.213   8.640  17.870  0.00  0.00    +0.000 A 
ATOM      6  C   UNL     1       2.915   7.447  17.690  0.00  0.00    +0.000 A 
ENDROOT
BRANCH   4   7
ATOM      7  C   UNL     1       0.901  10.201  19.315  0.00  0.00    +0.000 C 
ATOM      8  N   UNL     1      -0.033  10.643  18.530  0.00  0.00    +0.000 NA
ATOM      9  N   UNL     1      -0.392  11.857  18.996  0.00  0.00    +0.000 N 
ATOM     10  C   UNL     1       0.195  12.200  20.296  0.00  0.00    +0.000 C 
ATOM     11  C   UNL     1       1.205  11.075  20.503  0.00  0.00    +0.000 C 
ATOM     12  H   UNL     1      -1.392  12.042  18.927  0.00  0.00    +0.000 HD
BRANCH  10  13
ATOM     13  C   UNL     1      -0.849  12.323  21.395  0.00  0.00    +0.000 A 
ATOM     14  C   UNL     1      -0.986  11.296  22.352  0.00  0.00    +0.000 A 
ATOM     15  C   UNL     1      -1.987  11.343  23.326  0.00  0.00    +0.000 A 
ATOM     16  C   UNL     1      -2.870  12.418  23.357  0.00  0.00    +0.000 A 
ATOM     17 CL   UNL     1      -4.135  12.453  24.521  0.00  0.00    +0.000 Cl
ATOM     18  C   UNL     1      -2.739  13.461  22.447  0.00  0.00    +0.000 A 
ATOM     19  C   UNL     1      -1.730  13.419  21.473  0.00  0.00    +0.000 A 
ATOM     20 CL   UNL     1      -1.633  14.773  20.405  0.00  0.00    +0.000 Cl
ENDBRANCH  10  13
ENDBRANCH   4   7
BRANCH   1  21
ATOM     21  O   UNL     1       3.613   5.285  18.614  0.00  0.00    +0.000 OA
BRANCH  21  24
ATOM     22  C   UNL     1       6.457   4.880  16.323  0.00  0.00    +0.000 A 
ATOM     23  C   UNL     1       5.136   4.886  16.742  0.00  0.00    +0.000 A 
ATOM     24  C   UNL     1       4.874   5.230  18.063  0.00  0.00    +0.000 A 
ATOM     25  C   UNL     1       5.934   5.483  18.930  0.00  0.00    +0.000 A 
ATOM     26  C   UNL     1       7.223   5.430  18.425  0.00  0.00    +0.000 A 
ATOM     27  N   UNL     1       7.519   5.143  17.138  0.00  0.00    +0.000 NA
BRANCH  22  30
ATOM     28  C   UNL     1       8.039   5.306  12.914  0.00  0.00    +0.000 C 
ATOM     29  N   UNL     1       7.653   5.454  14.292  0.00  0.00    +0.000 N 
ATOM     30  C   UNL     1       6.760   4.586  14.885  0.00  0.00    +0.000 C 
ATOM     31  O   UNL     1       6.235   3.646  14.303  0.00  0.00    +0.000 OA
ATOM     32  H   UNL     1       8.028   6.200  14.870  0.00  0.00    +0.000 HD
ENDBRANCH  22  30
ENDBRANCH  21  24
ENDBRANCH   1  21
TORSDOF 5
ENDMDL
MODEL 7
REMARK VINA RESULT:      -8.8      1.344      1.607
REMARK  Name = 
REMARK  6 active torsions:
REMARK  status: ('A' for Active; 'I' for Inactive)
REMARK    1  A    between atoms: C_1  and  N_2
REMARK    2  A    between atoms: C_3  and  C_5
REMARK    3  A    between atoms: C_7  and  O_8
REMARK    4  A    between atoms: O_8  and  C_9
REMARK    5  A    between atoms: C_12  and  C_13
REMARK    6  A    between atoms: C_16  and  C_17
REMARK                            x       y       z     vdW  Elec       q    Type
REMARK                         _______ _______ _______ _____ _____    ______ ____
ROOT
ATOM      1  C   UNL     1       3.088   6.343  18.777  0.00  0.00    +0.000 A 
ATOM      2  C   UNL     1       2.443   6.625  19.984  0.00  0.00    +0.000 A 
ATOM      3  C   UNL     1       1.713   7.810  20.131  0.00  0.00    +0.000 A 
ATOM      4  C   UNL     1       1.626   8.717  19.068  0.00  0.00    +0.000 A 
ATOM      5  C   UNL     1       2.277   8.437  17.865  0.00  0.00    +0.000 A 
ATOM      6  C   UNL     1       3.034   7.272  17.734  0.00  0.00    +0.000 A 
ENDROOT
BRANCH   4   7
ATOM      7  C   UNL     1       0.860   9.973  19.236  0.00  0.00    +0.000 C 
ATOM      8  N   UNL     1       1.130  11.065  18.588  0.00  0.00    +0.000 NA
ATOM      9  N   UNL     1       0.279  12.008  19.043  0.00  0.00    +0.000 N 
ATOM     10  C   UNL     1      -0.775  11.494  19.925  0.00  0.00    +0.000 C 
ATOM     11  C   UNL     1      -0.326  10.055  20.161  0.00  0.00    +0.000 C 
ATOM     12  H   UNL     1      -0.056  12.640  18.317  0.00  0.00    +0.000 HD
BRANCH  10  13
ATOM     13  C   UNL     1      -2.163  11.631  19.319  0.00  0.00    +0.000 A 
ATOM     14  C   UNL     1      -3.122  12.457  19.940  0.00  0.00    +0.000 A 
ATOM     15  C   UNL     1      -4.429  12.542  19.452  0.00  0.00    +0.000 A 
ATOM     16  C   UNL     1      -4.798  11.801  18.334  0.00  0.00    +0.000 A 
ATOM     17 CL   UNL     1      -6.418  11.863  17.762  0.00  0.00    +0.000 Cl
ATOM     18  C   UNL     1      -3.864  11.003  17.682  0.00  0.00    +0.000 A 
ATOM     19  C   UNL     1      -2.551  10.922  18.165  0.00  0.00    +0.000 A 
ATOM     20 CL   UNL     1      -1.460   9.925  17.271  0.00  0.00    +0.000 Cl
ENDBRANCH  10  13
ENDBRANCH   4   7
BRANCH   1  21
ATOM     21  O   UNL     1       3.798   5.164  18.729  0.00  0.00    +0.000 OA
BRANCH  21  24
ATOM     22  C   UNL     1       6.545   4.830  16.313  0.00  0.00    +0.000 A 
ATOM     23  C   UNL     1       5.243   4.817  16.786  0.00  0.00    +0.000 A 
ATOM     24  C   UNL     1       5.034   5.131  18.124  0.00  0.00    +0.000 A 
ATOM     25  C   UNL     1       6.128   5.373  18.952  0.00  0.00    +0.000 A 
ATOM     26  C   UNL     1       7.395   5.340  18.392  0.00  0.00    +0.000 A 
ATOM     27  N   UNL     1       7.639   5.084  17.088  0.00  0.00    +0.000 NA
BRANCH  22  30
ATOM     28  C   UNL     1       7.982   5.341  12.851  0.00  0.00    +0.000 C 
ATOM     29  N   UNL     1       7.652   5.456  14.247  0.00  0.00    +0.000 N 
ATOM     30  C   UNL     1       6.790   4.570  14.857  0.00  0.00    +0.000 C 
ATOM     31  O   UNL     1       6.246   3.640  14.276  0.00  0.00    +0.000 OA
ATOM     32  H   UNL     1       8.047   6.192  14.825  0.00  0.00    +0.000 HD
ENDBRANCH  22  30
ENDBRANCH  21  24
ENDBRANCH   1  21
TORSDOF 5
ENDMDL
MODEL 8
REMARK VINA RESULT:      -8.7      4.844     10.081
REMARK  Name = 
REMARK  6 active torsions:
REMARK  status: ('A' for Active; 'I' for Inactive)
REMARK    1  A    between atoms: C_1  and  N_2
REMARK    2  A    between atoms: C_3  and  C_5
REMARK    3  A    between atoms: C_7  and  O_8
REMARK    4  A    between atoms: O_8  and  C_9
REMARK    5  A    between atoms: C_12  and  C_13
REMARK    6  A    between atoms: C_16  and  C_17
REMARK                            x       y       z     vdW  Elec       q    Type
REMARK                         _______ _______ _______ _____ _____    ______ ____
ROOT
ATOM      1  C   UNL     1       1.059   9.830  19.810  0.00  0.00    +0.000 A 
ATOM      2  C   UNL     1       1.570   9.758  18.511  0.00  0.00    +0.000 A 
ATOM      3  C   UNL     1       2.172   8.580  18.057  0.00  0.00    +0.000 A 
ATOM      4  C   UNL     1       2.263   7.467  18.901  0.00  0.00    +0.000 A 
ATOM      5  C   UNL     1       1.757   7.542  20.201  0.00  0.00    +0.000 A 
ATOM      6  C   UNL     1       1.192   8.731  20.664  0.00  0.00    +0.000 A 
ENDROOT
BRANCH   4   7
ATOM      7  C   UNL     1       2.909   6.227  18.414  0.00  0.00    +0.000 C 
ATOM      8  N   UNL     1       2.248   5.228  17.913  0.00  0.00    +0.000 NA
ATOM      9  N   UNL     1       3.149   4.260  17.646  0.00  0.00    +0.000 N 
ATOM     10  C   UNL     1       4.547   4.680  17.794  0.00  0.00    +0.000 C 
ATOM     11  C   UNL     1       4.405   6.056  18.439  0.00  0.00    +0.000 C 
ATOM     12  H   UNL     1       2.956   3.748  16.786  0.00  0.00    +0.000 HD
BRANCH  10  13
ATOM     13  C   UNL     1       5.301   4.677  16.473  0.00  0.00    +0.000 A 
ATOM     14  C   UNL     1       4.617   4.389  15.274  0.00  0.00    +0.000 A 
ATOM     15  C   UNL     1       5.298   4.301  14.056  0.00  0.00    +0.000 A 
ATOM     16  C   UNL     1       6.673   4.500  14.018  0.00  0.00    +0.000 A 
ATOM     17 CL   UNL     1       7.520   4.341  12.530  0.00  0.00    +0.000 Cl
ATOM     18  C   UNL     1       7.369   4.818  15.179  0.00  0.00    +0.000 A 
ATOM     19  C   UNL     1       6.688   4.913  16.401  0.00  0.00    +0.000 A 
ATOM     20 CL   UNL     1       7.636   5.338  17.781  0.00  0.00    +0.000 Cl
ENDBRANCH  10  13
ENDBRANCH   4   7
BRANCH   1  21
ATOM     21  O   UNL     1       0.503  11.034  20.178  0.00  0.00    +0.000 OA
BRANCH  21  24
ATOM     22  C   UNL     1      -2.648  11.355  18.315  0.00  0.00    +0.000 A 
ATOM     23  C   UNL     1      -1.341  10.974  18.571  0.00  0.00    +0.000 A 
ATOM     24  C   UNL     1      -0.779  11.348  19.786  0.00  0.00    +0.000 A 
ATOM     25  C   UNL     1      -1.511  12.143  20.665  0.00  0.00    +0.000 A 
ATOM     26  C   UNL     1      -2.804  12.495  20.311  0.00  0.00    +0.000 A 
ATOM     27  N   UNL     1      -3.402  12.115  19.160  0.00  0.00    +0.000 NA
BRANCH  22  30
ATOM     28  C   UNL     1      -2.905  10.200  14.722  0.00  0.00    +0.000 C 
ATOM     29  N   UNL     1      -2.430  10.639  16.008  0.00  0.00    +0.000 N 
ATOM     30  C   UNL     1      -3.300  10.900  17.045  0.00  0.00    +0.000 C 
ATOM     31  O   UNL     1      -4.516  10.786  16.959  0.00  0.00    +0.000 OA
ATOM     32  H   UNL     1      -1.439  10.767  16.190  0.00  0.00    +0.000 HD
ENDBRANCH  22  30
ENDBRANCH  21  24
ENDBRANCH   1  21
TORSDOF 5
ENDMDL
MODEL 9
REMARK VINA RESULT:      -8.6      2.453      2.868
REMARK  Name = 
REMARK  6 active torsions:
REMARK  status: ('A' for Active; 'I' for Inactive)
REMARK    1  A    between atoms: C_1  and  N_2
REMARK    2  A    between atoms: C_3  and  C_5
REMARK    3  A    between atoms: C_7  and  O_8
REMARK    4  A    between atoms: O_8  and  C_9
REMARK    5  A    between atoms: C_12  and  C_13
REMARK    6  A    between atoms: C_16  and  C_17
REMARK                            x       y       z     vdW  Elec       q    Type
REMARK                         _______ _______ _______ _____ _____    ______ ____
ROOT
ATOM      1  C   UNL     1       2.548   6.769  18.714  0.00  0.00    +0.000 A 
ATOM      2  C   UNL     1       2.084   7.106  19.988  0.00  0.00    +0.000 A 
ATOM      3  C   UNL     1       1.522   8.366  20.221  0.00  0.00    +0.000 A 
ATOM      4  C   UNL     1       1.421   9.294  19.177  0.00  0.00    +0.000 A 
ATOM      5  C   UNL     1       1.891   8.958  17.907  0.00  0.00    +0.000 A 
ATOM      6  C   UNL     1       2.485   7.715  17.686  0.00  0.00    +0.000 A 
ENDROOT
BRANCH   4   7
ATOM      7  C   UNL     1       0.833  10.628  19.436  0.00  0.00    +0.000 C 
ATOM      8  N   UNL     1      -0.107  11.146  18.707  0.00  0.00    +0.000 NA
ATOM      9  N   UNL     1      -0.341  12.383  19.192  0.00  0.00    +0.000 N 
ATOM     10  C   UNL     1       0.346  12.674  20.455  0.00  0.00    +0.000 C 
ATOM     11  C   UNL     1       1.273  11.470  20.604  0.00  0.00    +0.000 C 
ATOM     12  H   UNL     1      -1.325  12.647  19.181  0.00  0.00    +0.000 HD
BRANCH  10  13
ATOM     13  C   UNL     1      -0.619  12.874  21.613  0.00  0.00    +0.000 A 
ATOM     14  C   UNL     1      -1.643  11.933  21.845  0.00  0.00    +0.000 A 
ATOM     15  C   UNL     1      -2.593  12.131  22.851  0.00  0.00    +0.000 A 
ATOM     16  C   UNL     1      -2.534  13.273  23.642  0.00  0.00    +0.000 A 
ATOM     17 CL   UNL     1      -3.731  13.544  24.846  0.00  0.00    +0.000 Cl
ATOM     18  C   UNL     1      -1.516  14.203  23.457  0.00  0.00    +0.000 A 
ATOM     19  C   UNL     1      -0.558  14.003  22.453  0.00  0.00    +0.000 A 
ATOM     20 CL   UNL     1       0.680  15.200  22.320  0.00  0.00    +0.000 Cl
ENDBRANCH  10  13
ENDBRANCH   4   7
BRANCH   1  21
ATOM     21  O   UNL     1       3.103   5.517  18.581  0.00  0.00    +0.000 OA
BRANCH  21  24
ATOM     22  C   UNL     1       6.203   5.036  16.669  0.00  0.00    +0.000 A 
ATOM     23  C   UNL     1       4.841   5.137  16.902  0.00  0.00    +0.000 A 
ATOM     24  C   UNL     1       4.420   5.385  18.203  0.00  0.00    +0.000 A 
ATOM     25  C   UNL     1       5.361   5.451  19.229  0.00  0.00    +0.000 A 
ATOM     26  C   UNL     1       6.700   5.313  18.901  0.00  0.00    +0.000 A 
ATOM     27  N   UNL     1       7.154   5.116  17.644  0.00  0.00    +0.000 NA
BRANCH  22  30
ATOM     28  C   UNL     1       6.247   3.715  13.125  0.00  0.00    +0.000 C 
ATOM     29  N   UNL     1       5.910   4.003  14.494  0.00  0.00    +0.000 N 
ATOM     30  C   UNL     1       6.686   4.844  15.263  0.00  0.00    +0.000 C 
ATOM     31  O   UNL     1       7.699   5.398  14.856  0.00  0.00    +0.000 OA
ATOM     32  H   UNL     1       5.089   3.598  14.934  0.00  0.00    +0.000 HD
ENDBRANCH  22  30
ENDBRANCH  21  24
ENDBRANCH   1  21
TORSDOF 5
ENDMDL
