MODEL 1
REMARK VINA RESULT:      -7.0      0.000      0.000
REMARK  Name = 
REMARK  4 active torsions:
REMARK  status: ('A' for Active; 'I' for Inactive)
REMARK    1  A    between atoms: C_2  and  C_11
REMARK    2  A    between atoms: N_3  and  C_4
REMARK    3  A    between atoms: N_15  and  S_16
REMARK    4  A    between atoms: S_16  and  C_19
REMARK                            x       y       z     vdW  Elec       q    Type
REMARK                         _______ _______ _______ _____ _____    ______ ____
ROOT
ATOM      1  C   UNL     1       1.554   9.185  21.503  0.00  0.00    +0.000 C 
ATOM      2  C   UNL     1       1.280   9.271  23.002  0.00  0.00    +0.000 C 
ATOM      3  C   UNL     1      -0.196   9.496  23.307  0.00  0.00    +0.000 C 
ATOM      4  C   UNL     1      -0.733  10.712  22.566  0.00  0.00    +0.000 C 
ATOM      5  N   UNL     1      -0.545  10.564  21.080  0.00  0.00    +0.000 NA
ATOM      6  C   UNL     1       0.907  10.332  20.721  0.00  0.00    +0.000 C 
ENDROOT
BRANCH   1   8
ATOM      7  O   UNL     1       0.109   7.304  21.066  0.00  0.00    +0.000 OA
ATOM      8  C   UNL     1       1.226   7.802  20.946  0.00  0.00    +0.000 C 
ATOM      9  N   UNL     1       2.229   7.191  20.230  0.00  0.00    +0.000 N 
ATOM     10  H   UNL     1       3.143   7.639  20.267  0.00  0.00    +0.000 HD
BRANCH   9  11
ATOM     11  C   UNL     1       2.097   5.856  19.668  0.00  0.00    +0.000 C 
ATOM     12  C   UNL     1       3.250   4.969  20.150  0.00  0.00    +0.000 C 
ATOM     13  C   UNL     1       4.489   5.452  19.403  0.00  0.00    +0.000 C 
ATOM     14  S   UNL     1       3.918   5.867  17.765  0.00  0.00    +0.000 S 
ATOM     15  O   UNL     1       4.230   4.766  16.880  0.00  0.00    +0.000 OA
ATOM     16  O   UNL     1       4.315   7.228  17.472  0.00  0.00    +0.000 OA
ATOM     17  C   UNL     1       2.170   5.825  18.139  0.00  0.00    +0.000 C 
ENDBRANCH   9  11
ENDBRANCH   1   8
BRANCH   5  18
ATOM     18  S   UNL     1      -1.164  11.957  20.215  0.00  0.00    +0.000 S 
ATOM     19  O   UNL     1      -2.151  12.608  21.048  0.00  0.00    +0.000 OA
ATOM     20  O   UNL     1      -0.019  12.684  19.707  0.00  0.00    +0.000 OA
BRANCH  18  21
ATOM     21  C   UNL     1      -1.999  11.267  18.799  0.00  0.00    +0.000 A 
ATOM     22  C   UNL     1      -3.246  11.759  18.399  0.00  0.00    +0.000 A 
ATOM     23  C   UNL     1      -3.812  11.315  17.198  0.00  0.00    +0.000 A 
ATOM     24  C   UNL     1      -3.120  10.405  16.394  0.00  0.00    +0.000 A 
ATOM     25 CL   UNL     1      -3.806   9.881  14.905  0.00  0.00    +0.000 Cl
ATOM     26  C   UNL     1      -1.867   9.933  16.780  0.00  0.00    +0.000 A 
ATOM     27  C   UNL     1      -1.304  10.365  17.982  0.00  0.00    +0.000 A 
ENDBRANCH  18  21
ENDBRANCH   5  18
TORSDOF 4
ENDMDL
MODEL 2
REMARK VINA RESULT:      -6.6      4.076      6.511
REMARK  Name = 
REMARK  4 active torsions:
REMARK  status: ('A' for Active; 'I' for Inactive)
REMARK    1  A    between atoms: C_2  and  C_11
REMARK    2  A    between atoms: N_3  and  C_4
REMARK    3  A    between atoms: N_15  and  S_16
REMARK    4  A    between atoms: S_16  and  C_19
REMARK                            x       y       z     vdW  Elec       q    Type
REMARK                         _______ _______ _______ _____ _____    ______ ____
ROOT
ATOM      1  C   UNL     1      -2.620   9.872  17.683  0.00  0.00    +0.000 C 
ATOM      2  C   UNL     1      -2.541   9.971  16.161  0.00  0.00    +0.000 C 
ATOM      3  C   UNL     1      -3.219  11.227  15.628  0.00  0.00    +0.000 C 
ATOM      4  C   UNL     1      -4.654  11.331  16.125  0.00  0.00    +0.000 C 
ATOM      5  N   UNL     1      -4.705  11.335  17.629  0.00  0.00    +0.000 NA
ATOM      6  C   UNL     1      -4.038  10.107  18.213  0.00  0.00    +0.000 C 
ENDROOT
BRANCH   1   8
ATOM      7  O   UNL     1      -1.061  11.708  17.802  0.00  0.00    +0.000 OA
ATOM      8  C   UNL     1      -1.561  10.735  18.363  0.00  0.00    +0.000 C 
ATOM      9  N   UNL     1      -1.266  10.407  19.665  0.00  0.00    +0.000 N 
ATOM     10  H   UNL     1      -1.660   9.532  20.007  0.00  0.00    +0.000 HD
BRANCH   9  11
ATOM     11  C   UNL     1      -0.251  11.100  20.444  0.00  0.00    +0.000 C 
ATOM     12  C   UNL     1       1.123  10.470  20.190  0.00  0.00    +0.000 C 
ATOM     13  C   UNL     1       1.105   9.125  20.912  0.00  0.00    +0.000 C 
ATOM     14  S   UNL     1       0.191   9.412  22.416  0.00  0.00    +0.000 S 
ATOM     15  O   UNL     1       1.136   9.594  23.497  0.00  0.00    +0.000 OA
ATOM     16  O   UNL     1      -0.886   8.447  22.489  0.00  0.00    +0.000 OA
ATOM     17  C   UNL     1      -0.470  11.008  21.956  0.00  0.00    +0.000 C 
ENDBRANCH   9  11
ENDBRANCH   1   8
BRANCH   5  18
ATOM     18  S   UNL     1      -6.353  11.459  18.213  0.00  0.00    +0.000 S 
ATOM     19  O   UNL     1      -7.092  12.313  17.310  0.00  0.00    +0.000 OA
ATOM     20  O   UNL     1      -6.802  10.114  18.504  0.00  0.00    +0.000 OA
BRANCH  18  21
ATOM     21  C   UNL     1      -6.208  12.299  19.780  0.00  0.00    +0.000 A 
ATOM     22  C   UNL     1      -7.095  12.016  20.823  0.00  0.00    +0.000 A 
ATOM     23  C   UNL     1      -6.870  12.566  22.090  0.00  0.00    +0.000 A 
ATOM     24  C   UNL     1      -5.750  13.372  22.314  0.00  0.00    +0.000 A 
ATOM     25 CL   UNL     1      -5.461  14.025  23.879  0.00  0.00    +0.000 Cl
ATOM     26  C   UNL     1      -4.853  13.635  21.281  0.00  0.00    +0.000 A 
ATOM     27  C   UNL     1      -5.079  13.097  20.012  0.00  0.00    +0.000 A 
ENDBRANCH  18  21
ENDBRANCH   5  18
TORSDOF 4
ENDMDL
MODEL 3
REMARK VINA RESULT:      -6.6      4.108      6.578
REMARK  Name = 
REMARK  4 active torsions:
REMARK  status: ('A' for Active; 'I' for Inactive)
REMARK    1  A    between atoms: C_2  and  C_11
REMARK    2  A    between atoms: N_3  and  C_4
REMARK    3  A    between atoms: N_15  and  S_16
REMARK    4  A    between atoms: S_16  and  C_19
REMARK                            x       y       z     vdW  Elec       q    Type
REMARK                         _______ _______ _______ _____ _____    ______ ____
ROOT
ATOM      1  C   UNL     1      -2.460   9.931  17.647  0.00  0.00    +0.000 C 
ATOM      2  C   UNL     1      -2.433  10.193  16.144  0.00  0.00    +0.000 C 
ATOM      3  C   UNL     1      -3.222  11.439  15.760  0.00  0.00    +0.000 C 
ATOM      4  C   UNL     1      -4.645  11.375  16.295  0.00  0.00    +0.000 C 
ATOM      5  N   UNL     1      -4.653  11.220  17.791  0.00  0.00    +0.000 NA
ATOM      6  C   UNL     1      -3.875   9.996  18.230  0.00  0.00    +0.000 C 
ENDROOT
BRANCH   1   8
ATOM      7  O   UNL     1      -0.971  11.813  17.885  0.00  0.00    +0.000 OA
ATOM      8  C   UNL     1      -1.451  10.803  18.392  0.00  0.00    +0.000 C 
ATOM      9  N   UNL     1      -1.182  10.434  19.689  0.00  0.00    +0.000 N 
ATOM     10  H   UNL     1      -1.554   9.532  19.985  0.00  0.00    +0.000 HD
BRANCH   9  11
ATOM     11  C   UNL     1      -0.215  11.129  20.524  0.00  0.00    +0.000 C 
ATOM     12  C   UNL     1       1.176  10.517  20.333  0.00  0.00    +0.000 C 
ATOM     13  C   UNL     1       1.138   9.164  21.039  0.00  0.00    +0.000 C 
ATOM     14  S   UNL     1       0.147   9.425  22.498  0.00  0.00    +0.000 S 
ATOM     15  O   UNL     1       1.036   9.606  23.627  0.00  0.00    +0.000 OA
ATOM     16  O   UNL     1      -0.920   8.447  22.508  0.00  0.00    +0.000 OA
ATOM     17  C   UNL     1      -0.508  11.018  22.023  0.00  0.00    +0.000 C 
ENDBRANCH   9  11
ENDBRANCH   1   8
BRANCH   5  18
ATOM     18  S   UNL     1      -6.288  11.150  18.420  0.00  0.00    +0.000 S 
ATOM     19  O   UNL     1      -7.133  11.968  17.579  0.00  0.00    +0.000 OA
ATOM     20  O   UNL     1      -6.593   9.754  18.654  0.00  0.00    +0.000 OA
BRANCH  18  21
ATOM     21  C   UNL     1      -6.182  11.924  20.023  0.00  0.00    +0.000 A 
ATOM     22  C   UNL     1      -5.146  12.819  20.314  0.00  0.00    +0.000 A 
ATOM     23  C   UNL     1      -5.167  13.534  21.517  0.00  0.00    +0.000 A 
ATOM     24  C   UNL     1      -6.232  13.372  22.407  0.00  0.00    +0.000 A 
ATOM     25 CL   UNL     1      -6.270  14.273  23.872  0.00  0.00    +0.000 Cl
ATOM     26  C   UNL     1      -7.277  12.500  22.107  0.00  0.00    +0.000 A 
ATOM     27  C   UNL     1      -7.254  11.775  20.913  0.00  0.00    +0.000 A 
ENDBRANCH  18  21
ENDBRANCH   5  18
TORSDOF 4
ENDMDL
MODEL 4
REMARK VINA RESULT:      -6.6      3.857      8.476
REMARK  Name = 
REMARK  4 active torsions:
REMARK  status: ('A' for Active; 'I' for Inactive)
REMARK    1  A    between atoms: C_2  and  C_11
REMARK    2  A    between atoms: N_3  and  C_4
REMARK    3  A    between atoms: N_15  and  S_16
REMARK    4  A    between atoms: S_16  and  C_19
REMARK                            x       y       z     vdW  Elec       q    Type
REMARK                         _______ _______ _______ _____ _____    ______ ____
ROOT
ATOM      1  C   UNL     1       2.319   5.975  18.480  0.00  0.00    +0.000 C 
ATOM      2  C   UNL     1       1.827   4.569  18.148  0.00  0.00    +0.000 C 
ATOM      3  C   UNL     1       2.774   3.490  18.661  0.00  0.00    +0.000 C 
ATOM      4  C   UNL     1       4.194   3.722  18.164  0.00  0.00    +0.000 C 
ATOM      5  N   UNL     1       4.699   5.074  18.587  0.00  0.00    +0.000 NA
ATOM      6  C   UNL     1       3.790   6.186  18.108  0.00  0.00    +0.000 C 
ENDROOT
BRANCH   1   8
ATOM      7  O   UNL     1       2.111   5.573  20.849  0.00  0.00    +0.000 OA
ATOM      8  C   UNL     1       1.989   6.366  19.918  0.00  0.00    +0.000 C 
ATOM      9  N   UNL     1       1.632   7.679  20.116  0.00  0.00    +0.000 N 
ATOM     10  H   UNL     1       1.467   8.230  19.275  0.00  0.00    +0.000 HD
BRANCH   9  11
ATOM     11  C   UNL     1       1.245   8.206  21.416  0.00  0.00    +0.000 C 
ATOM     12  C   UNL     1      -0.273   8.404  21.470  0.00  0.00    +0.000 C 
ATOM     13  C   UNL     1      -0.567   9.617  20.593  0.00  0.00    +0.000 C 
ATOM     14  S   UNL     1       0.787  10.743  20.878  0.00  0.00    +0.000 S 
ATOM     15  O   UNL     1       0.352  11.748  21.825  0.00  0.00    +0.000 OA
ATOM     16  O   UNL     1       1.373  11.089  19.601  0.00  0.00    +0.000 OA
ATOM     17  C   UNL     1       1.848   9.579  21.724  0.00  0.00    +0.000 C 
ENDBRANCH   9  11
ENDBRANCH   1   8
BRANCH   5  18
ATOM     18  S   UNL     1       6.336   5.351  18.024  0.00  0.00    +0.000 S 
ATOM     19  O   UNL     1       6.633   6.759  18.166  0.00  0.00    +0.000 OA
ATOM     20  O   UNL     1       7.173   4.345  18.644  0.00  0.00    +0.000 OA
BRANCH  18  21
ATOM     21  C   UNL     1       6.280   4.967  16.284  0.00  0.00    +0.000 A 
ATOM     22  C   UNL     1       7.373   5.247  15.458  0.00  0.00    +0.000 A 
ATOM     23  C   UNL     1       7.371   4.797  14.133  0.00  0.00    +0.000 A 
ATOM     24  C   UNL     1       6.294   4.050  13.649  0.00  0.00    +0.000 A 
ATOM     25 CL   UNL     1       6.307   3.475  12.028  0.00  0.00    +0.000 Cl
ATOM     26  C   UNL     1       5.215   3.749  14.479  0.00  0.00    +0.000 A 
ATOM     27  C   UNL     1       5.207   4.206  15.798  0.00  0.00    +0.000 A 
ENDBRANCH  18  21
ENDBRANCH   5  18
TORSDOF 4
ENDMDL
MODEL 5
REMARK VINA RESULT:      -6.6      1.891      2.209
REMARK  Name = 
REMARK  4 active torsions:
REMARK  status: ('A' for Active; 'I' for Inactive)
REMARK    1  A    between atoms: C_2  and  C_11
REMARK    2  A    between atoms: N_3  and  C_4
REMARK    3  A    between atoms: N_15  and  S_16
REMARK    4  A    between atoms: S_16  and  C_19
REMARK                            x       y       z     vdW  Elec       q    Type
REMARK                         _______ _______ _______ _____ _____    ______ ____
ROOT
ATOM      1  C   UNL     1       1.836   9.268  20.112  0.00  0.00    +0.000 C 
ATOM      2  C   UNL     1       1.238   8.614  21.355  0.00  0.00    +0.000 C 
ATOM      3  C   UNL     1      -0.286   8.609  21.328  0.00  0.00    +0.000 C 
ATOM      4  C   UNL     1      -0.837  10.011  21.109  0.00  0.00    +0.000 C 
ATOM      5  N   UNL     1      -0.315  10.602  19.827  0.00  0.00    +0.000 NA
ATOM      6  C   UNL     1       1.199  10.625  19.798  0.00  0.00    +0.000 C 
ENDROOT
BRANCH   1   8
ATOM      7  O   UNL     1       1.507   8.667  17.800  0.00  0.00    +0.000 OA
ATOM      8  C   UNL     1       1.857   8.311  18.923  0.00  0.00    +0.000 C 
ATOM      9  N   UNL     1       2.371   7.060  19.169  0.00  0.00    +0.000 N 
ATOM     10  H   UNL     1       2.545   6.831  20.147  0.00  0.00    +0.000 HD
BRANCH   9  11
ATOM     11  C   UNL     1       2.425   6.015  18.158  0.00  0.00    +0.000 C 
ATOM     12  C   UNL     1       2.013   4.673  18.772  0.00  0.00    +0.000 C 
ATOM     13  C   UNL     1       3.177   4.244  19.660  0.00  0.00    +0.000 C 
ATOM     14  S   UNL     1       4.646   4.746  18.782  0.00  0.00    +0.000 S 
ATOM     15  O   UNL     1       5.186   3.590  18.099  0.00  0.00    +0.000 OA
ATOM     16  O   UNL     1       5.450   5.564  19.665  0.00  0.00    +0.000 OA
ATOM     17  C   UNL     1       3.826   5.789  17.584  0.00  0.00    +0.000 C 
ENDBRANCH   9  11
ENDBRANCH   1   8
BRANCH   5  18
ATOM     18  S   UNL     1      -0.947  12.215  19.561  0.00  0.00    +0.000 S 
ATOM     19  O   UNL     1      -0.845  12.953  20.801  0.00  0.00    +0.000 OA
ATOM     20  O   UNL     1      -0.339  12.713  18.345  0.00  0.00    +0.000 OA
BRANCH  18  21
ATOM     21  C   UNL     1      -2.675  11.964  19.203  0.00  0.00    +0.000 A 
ATOM     22  C   UNL     1      -3.660  12.592  19.974  0.00  0.00    +0.000 A 
ATOM     23  C   UNL     1      -5.001  12.509  19.582  0.00  0.00    +0.000 A 
ATOM     24  C   UNL     1      -5.347  11.825  18.414  0.00  0.00    +0.000 A 
ATOM     25 CL   UNL     1      -6.994  11.747  17.921  0.00  0.00    +0.000 Cl
ATOM     26  C   UNL     1      -4.364  11.220  17.633  0.00  0.00    +0.000 A 
ATOM     27  C   UNL     1      -3.026  11.290  18.026  0.00  0.00    +0.000 A 
ENDBRANCH  18  21
ENDBRANCH   5  18
TORSDOF 4
ENDMDL
MODEL 6
REMARK VINA RESULT:      -6.5      3.616      7.952
REMARK  Name = 
REMARK  4 active torsions:
REMARK  status: ('A' for Active; 'I' for Inactive)
REMARK    1  A    between atoms: C_2  and  C_11
REMARK    2  A    between atoms: N_3  and  C_4
REMARK    3  A    between atoms: N_15  and  S_16
REMARK    4  A    between atoms: S_16  and  C_19
REMARK                            x       y       z     vdW  Elec       q    Type
REMARK                         _______ _______ _______ _____ _____    ______ ____
ROOT
ATOM      1  C   UNL     1      -2.876  12.440  18.683  0.00  0.00    +0.000 C 
ATOM      2  C   UNL     1      -3.210  11.403  17.614  0.00  0.00    +0.000 C 
ATOM      3  C   UNL     1      -2.708  10.012  17.982  0.00  0.00    +0.000 C 
ATOM      4  C   UNL     1      -1.220  10.030  18.304  0.00  0.00    +0.000 C 
ATOM      5  N   UNL     1      -0.924  10.983  19.429  0.00  0.00    +0.000 NA
ATOM      6  C   UNL     1      -1.408  12.384  19.118  0.00  0.00    +0.000 C 
ENDROOT
BRANCH   1   8
ATOM      7  O   UNL     1      -5.036  12.065  19.689  0.00  0.00    +0.000 OA
ATOM      8  C   UNL     1      -3.862  12.389  19.848  0.00  0.00    +0.000 C 
ATOM      9  N   UNL     1      -3.334  12.646  21.092  0.00  0.00    +0.000 N 
ATOM     10  H   UNL     1      -2.377  12.998  21.109  0.00  0.00    +0.000 HD
BRANCH   9  11
ATOM     11  C   UNL     1      -4.141  12.681  22.301  0.00  0.00    +0.000 C 
ATOM     12  C   UNL     1      -4.827  14.045  22.433  0.00  0.00    +0.000 C 
ATOM     13  C   UNL     1      -3.728  15.030  22.818  0.00  0.00    +0.000 C 
ATOM     14  S   UNL     1      -2.657  14.131  23.924  0.00  0.00    +0.000 S 
ATOM     15  O   UNL     1      -2.992  14.498  25.283  0.00  0.00    +0.000 OA
ATOM     16  O   UNL     1      -1.304  14.208  23.416  0.00  0.00    +0.000 OA
ATOM     17  C   UNL     1      -3.327  12.508  23.587  0.00  0.00    +0.000 C 
ENDBRANCH   9  11
ENDBRANCH   1   8
BRANCH   5  18
ATOM     18  S   UNL     1       0.787  11.010  19.812  0.00  0.00    +0.000 S 
ATOM     19  O   UNL     1       1.442  11.924  18.902  0.00  0.00    +0.000 OA
ATOM     20  O   UNL     1       0.897  11.176  21.246  0.00  0.00    +0.000 OA
BRANCH  18  21
ATOM     21  C   UNL     1       1.351   9.359  19.444  0.00  0.00    +0.000 A 
ATOM     22  C   UNL     1       1.947   9.069  18.212  0.00  0.00    +0.000 A 
ATOM     23  C   UNL     1       2.524   7.811  18.002  0.00  0.00    +0.000 A 
ATOM     24  C   UNL     1       2.526   6.863  19.028  0.00  0.00    +0.000 A 
ATOM     25 CL   UNL     1       3.260   5.327  18.776  0.00  0.00    +0.000 Cl
ATOM     26  C   UNL     1       1.954   7.160  20.264  0.00  0.00    +0.000 A 
ATOM     27  C   UNL     1       1.367   8.409  20.474  0.00  0.00    +0.000 A 
ENDBRANCH  18  21
ENDBRANCH   5  18
TORSDOF 4
ENDMDL
MODEL 7
REMARK VINA RESULT:      -6.5      5.100      7.556
REMARK  Name = 
REMARK  4 active torsions:
REMARK  status: ('A' for Active; 'I' for Inactive)
REMARK    1  A    between atoms: C_2  and  C_11
REMARK    2  A    between atoms: N_3  and  C_4
REMARK    3  A    between atoms: N_15  and  S_16
REMARK    4  A    between atoms: S_16  and  C_19
REMARK                            x       y       z     vdW  Elec       q    Type
REMARK                         _______ _______ _______ _____ _____    ______ ____
ROOT
ATOM      1  C   UNL     1      -2.497  10.062  18.063  0.00  0.00    +0.000 C 
ATOM      2  C   UNL     1      -2.306   9.990  16.551  0.00  0.00    +0.000 C 
ATOM      3  C   UNL     1      -2.957  11.164  15.830  0.00  0.00    +0.000 C 
ATOM      4  C   UNL     1      -4.426  11.294  16.206  0.00  0.00    +0.000 C 
ATOM      5  N   UNL     1      -4.589  11.466  17.691  0.00  0.00    +0.000 NA
ATOM      6  C   UNL     1      -3.953  10.327  18.459  0.00  0.00    +0.000 C 
ENDROOT
BRANCH   1   8
ATOM      7  O   UNL     1      -0.351  11.137  18.301  0.00  0.00    +0.000 OA
ATOM      8  C   UNL     1      -1.502  11.019  18.715  0.00  0.00    +0.000 C 
ATOM      9  N   UNL     1      -1.998  11.797  19.735  0.00  0.00    +0.000 N 
ATOM     10  H   UNL     1      -2.931  11.558  20.067  0.00  0.00    +0.000 HD
BRANCH   9  11
ATOM     11  C   UNL     1      -1.174  12.728  20.491  0.00  0.00    +0.000 C 
ATOM     12  C   UNL     1      -0.288  11.961  21.478  0.00  0.00    +0.000 C 
ATOM     13  C   UNL     1      -1.220  11.472  22.582  0.00  0.00    +0.000 C 
ATOM     14  S   UNL     1      -2.396  12.791  22.823  0.00  0.00    +0.000 S 
ATOM     15  O   UNL     1      -1.987  13.563  23.977  0.00  0.00    +0.000 OA
ATOM     16  O   UNL     1      -3.730  12.245  22.695  0.00  0.00    +0.000 OA
ATOM     17  C   UNL     1      -1.984  13.708  21.344  0.00  0.00    +0.000 C 
ENDBRANCH   9  11
ENDBRANCH   1   8
BRANCH   5  18
ATOM     18  S   UNL     1      -6.278  11.622  18.137  0.00  0.00    +0.000 S 
ATOM     19  O   UNL     1      -6.933  12.455  17.152  0.00  0.00    +0.000 OA
ATOM     20  O   UNL     1      -6.763  10.290  18.430  0.00  0.00    +0.000 OA
BRANCH  18  21
ATOM     21  C   UNL     1      -6.251  12.507  19.684  0.00  0.00    +0.000 A 
ATOM     22  C   UNL     1      -5.614  13.749  19.782  0.00  0.00    +0.000 A 
ATOM     23  C   UNL     1      -5.737  14.498  20.958  0.00  0.00    +0.000 A 
ATOM     24  C   UNL     1      -6.514  14.018  22.015  0.00  0.00    +0.000 A 
ATOM     25 CL   UNL     1      -6.687  14.953  23.449  0.00  0.00    +0.000 Cl
ATOM     26  C   UNL     1      -7.169  12.792  21.909  0.00  0.00    +0.000 A 
ATOM     27  C   UNL     1      -7.039  12.035  20.743  0.00  0.00    +0.000 A 
ENDBRANCH  18  21
ENDBRANCH   5  18
TORSDOF 4
ENDMDL
MODEL 8
REMARK VINA RESULT:      -6.5      3.605      8.336
REMARK  Name = 
REMARK  4 active torsions:
REMARK  status: ('A' for Active; 'I' for Inactive)
REMARK    1  A    between atoms: C_2  and  C_11
REMARK    2  A    between atoms: N_3  and  C_4
REMARK    3  A    between atoms: N_15  and  S_16
REMARK    4  A    between atoms: S_16  and  C_19
REMARK                            x       y       z     vdW  Elec       q    Type
REMARK                         _______ _______ _______ _____ _____    ______ ____
ROOT
ATOM      1  C   UNL     1       2.219   6.616  18.122  0.00  0.00    +0.000 C 
ATOM      2  C   UNL     1       1.288   5.974  19.148  0.00  0.00    +0.000 C 
ATOM      3  C   UNL     1       1.990   5.699  20.472  0.00  0.00    +0.000 C 
ATOM      4  C   UNL     1       3.253   4.875  20.265  0.00  0.00    +0.000 C 
ATOM      5  N   UNL     1       4.204   5.572  19.330  0.00  0.00    +0.000 NA
ATOM      6  C   UNL     1       3.554   5.876  17.996  0.00  0.00    +0.000 C 
ENDROOT
BRANCH   1   8
ATOM      7  O   UNL     1       3.261   8.769  17.816  0.00  0.00    +0.000 OA
ATOM      8  C   UNL     1       2.371   8.117  18.357  0.00  0.00    +0.000 C 
ATOM      9  N   UNL     1       1.403   8.703  19.138  0.00  0.00    +0.000 N 
ATOM     10  H   UNL     1       0.767   8.066  19.615  0.00  0.00    +0.000 HD
BRANCH   9  11
ATOM     11  C   UNL     1       1.423  10.113  19.495  0.00  0.00    +0.000 C 
ATOM     12  C   UNL     1       0.814  10.309  20.887  0.00  0.00    +0.000 C 
ATOM     13  C   UNL     1      -0.688  10.096  20.720  0.00  0.00    +0.000 C 
ATOM     14  S   UNL     1      -1.091  10.815  19.139  0.00  0.00    +0.000 S 
ATOM     15  O   UNL     1      -1.647  12.132  19.365  0.00  0.00    +0.000 OA
ATOM     16  O   UNL     1      -1.773   9.817  18.342  0.00  0.00    +0.000 OA
ATOM     17  C   UNL     1       0.591  10.993  18.558  0.00  0.00    +0.000 C 
ENDBRANCH   9  11
ENDBRANCH   1   8
BRANCH   5  18
ATOM     18  S   UNL     1       5.665   4.635  19.087  0.00  0.00    +0.000 S 
ATOM     19  O   UNL     1       6.769   5.351  19.687  0.00  0.00    +0.000 OA
ATOM     20  O   UNL     1       5.363   3.271  19.471  0.00  0.00    +0.000 OA
BRANCH  18  21
ATOM     21  C   UNL     1       5.901   4.627  17.320  0.00  0.00    +0.000 A 
ATOM     22  C   UNL     1       6.969   5.322  16.742  0.00  0.00    +0.000 A 
ATOM     23  C   UNL     1       7.229   5.177  15.375  0.00  0.00    +0.000 A 
ATOM     24  C   UNL     1       6.441   4.322  14.600  0.00  0.00    +0.000 A 
ATOM     25 CL   UNL     1       6.780   4.124  12.925  0.00  0.00    +0.000 Cl
ATOM     26  C   UNL     1       5.392   3.610  15.180  0.00  0.00    +0.000 A 
ATOM     27  C   UNL     1       5.122   3.761  16.541  0.00  0.00    +0.000 A 
ENDBRANCH  18  21
ENDBRANCH   5  18
TORSDOF 4
ENDMDL
MODEL 9
REMARK VINA RESULT:      -6.5      6.358      8.652
REMARK  Name = 
REMARK  4 active torsions:
REMARK  status: ('A' for Active; 'I' for Inactive)
REMARK    1  A    between atoms: C_2  and  C_11
REMARK    2  A    between atoms: N_3  and  C_4
REMARK    3  A    between atoms: N_15  and  S_16
REMARK    4  A    between atoms: S_16  and  C_19
REMARK                            x       y       z     vdW  Elec       q    Type
REMARK                         _______ _______ _______ _____ _____    ______ ____
ROOT
ATOM      1  C   UNL     1       4.641   6.100  19.506  0.00  0.00    +0.000 C 
ATOM      2  C   UNL     1       3.750   7.141  18.834  0.00  0.00    +0.000 C 
ATOM      3  C   UNL     1       3.498   6.823  17.365  0.00  0.00    +0.000 C 
ATOM      4  C   UNL     1       4.806   6.629  16.611  0.00  0.00    +0.000 C 
ATOM      5  N   UNL     1       5.626   5.530  17.227  0.00  0.00    +0.000 NA
ATOM      6  C   UNL     1       5.903   5.793  18.693  0.00  0.00    +0.000 C 
ENDROOT
BRANCH   1   8
ATOM      7  O   UNL     1       2.894   4.916  20.672  0.00  0.00    +0.000 OA
ATOM      8  C   UNL     1       3.854   4.855  19.908  0.00  0.00    +0.000 C 
ATOM      9  N   UNL     1       4.233   3.683  19.298  0.00  0.00    +0.000 N 
ATOM     10  H   UNL     1       5.096   3.718  18.757  0.00  0.00    +0.000 HD
BRANCH   9  11
ATOM     11  C   UNL     1       3.617   2.400  19.599  0.00  0.00    +0.000 C 
ATOM     12  C   UNL     1       3.629   1.508  18.353  0.00  0.00    +0.000 C 
ATOM     13  C   UNL     1       2.581   2.093  17.411  0.00  0.00    +0.000 C 
ATOM     14  S   UNL     1       1.251   2.636  18.467  0.00  0.00    +0.000 S 
ATOM     15  O   UNL     1       0.213   1.628  18.448  0.00  0.00    +0.000 OA
ATOM     16  O   UNL     1       0.978   4.029  18.182  0.00  0.00    +0.000 OA
ATOM     17  C   UNL     1       2.146   2.508  20.010  0.00  0.00    +0.000 C 
ENDBRANCH   9  11
ENDBRANCH   1   8
BRANCH   5  18
ATOM     18  S   UNL     1       7.134   5.295  16.364  0.00  0.00    +0.000 S 
ATOM     19  O   UNL     1       7.757   6.587  16.178  0.00  0.00    +0.000 OA
ATOM     20  O   UNL     1       7.837   4.215  17.025  0.00  0.00    +0.000 OA
BRANCH  18  21
ATOM     21  C   UNL     1       6.641   4.679  14.765  0.00  0.00    +0.000 A 
ATOM     22  C   UNL     1       7.497   4.790  13.665  0.00  0.00    +0.000 A 
ATOM     23  C   UNL     1       7.160   4.163  12.460  0.00  0.00    +0.000 A 
ATOM     24  C   UNL     1       5.986   3.411  12.368  0.00  0.00    +0.000 A 
ATOM     25 CL   UNL     1       5.586   2.620  10.894  0.00  0.00    +0.000 Cl
ATOM     26  C   UNL     1       5.143   3.280  13.471  0.00  0.00    +0.000 A 
ATOM     27  C   UNL     1       5.470   3.913  14.672  0.00  0.00    +0.000 A 
ENDBRANCH  18  21
ENDBRANCH   5  18
TORSDOF 4
ENDMDL
