MODEL 1
REMARK VINA RESULT:      -7.8      0.000      0.000
REMARK  Name = 
REMARK  3 active torsions:
REMARK  status: ('A' for Active; 'I' for Inactive)
REMARK    1  A    between atoms: C_3  and  C_4
REMARK    2  A    between atoms: N_10  and  C_11
REMARK    3  A    between atoms: N_19  and  C_20
REMARK                            x       y       z     vdW  Elec       q    Type
REMARK                         _______ _______ _______ _____ _____    ______ ____
ROOT
ATOM      1  O   UNL     1       3.301   6.680  18.596  0.00  0.00    +0.000 OA
ATOM      2  C   UNL     1       3.799   5.779  17.927  0.00  0.00    +0.000 C 
ATOM      3  C   UNL     1       4.835   6.005  16.831  0.00  0.00    +0.000 C 
ATOM      4  N   UNL     1       4.949   4.668  16.249  0.00  0.00    +0.000 N 
ATOM      5  C   UNL     1       4.258   3.717  17.055  0.00  0.00    +0.000 C 
ATOM      6  S   UNL     1       4.409   2.046  16.983  0.00  0.00    +0.000 S 
ATOM      7  N   UNL     1       3.555   4.429  18.028  0.00  0.00    +0.000 N 
ENDROOT
BRANCH   3   8
ATOM      8  C   UNL     1       6.087   6.589  17.453  0.00  0.00    +0.000 A 
ATOM      9  C   UNL     1       6.589   7.850  17.095  0.00  0.00    +0.000 A 
ATOM     10  C   UNL     1       7.750   8.344  17.686  0.00  0.00    +0.000 A 
ATOM     11  C   UNL     1       8.440   7.579  18.623  0.00  0.00    +0.000 A 
ATOM     12  C   UNL     1       7.968   6.315  18.973  0.00  0.00    +0.000 A 
ATOM     13  C   UNL     1       6.800   5.823  18.394  0.00  0.00    +0.000 A 
ENDBRANCH   3   8
BRANCH   4  14
ATOM     14  C   UNL     1       5.588   4.467  14.981  0.00  0.00    +0.000 A 
ATOM     15  C   UNL     1       6.876   4.967  14.727  0.00  0.00    +0.000 A 
ATOM     16  C   UNL     1       7.521   4.750  13.503  0.00  0.00    +0.000 A 
ATOM     17  C   UNL     1       6.873   4.063  12.485  0.00  0.00    +0.000 A 
ATOM     18  C   UNL     1       5.581   3.600  12.693  0.00  0.00    +0.000 A 
ATOM     19  C   UNL     1       4.946   3.803  13.927  0.00  0.00    +0.000 A 
ENDBRANCH   4  14
BRANCH   7  20
ATOM     20  C   UNL     1       2.740   3.898  19.056  0.00  0.00    +0.000 A 
ATOM     21  C   UNL     1       1.364   3.717  18.867  0.00  0.00    +0.000 A 
ATOM     22  C   UNL     1       0.570   3.223  19.903  0.00  0.00    +0.000 A 
ATOM     23  C   UNL     1       1.145   2.883  21.127  0.00  0.00    +0.000 A 
ATOM     24  C   UNL     1       2.514   3.051  21.322  0.00  0.00    +0.000 A 
ATOM     25  C   UNL     1       3.305   3.574  20.298  0.00  0.00    +0.000 A 
ENDBRANCH   7  20
TORSDOF 3
ENDMDL
MODEL 2
REMARK VINA RESULT:      -7.8      0.094      1.363
REMARK  Name = 
REMARK  3 active torsions:
REMARK  status: ('A' for Active; 'I' for Inactive)
REMARK    1  A    between atoms: C_3  and  C_4
REMARK    2  A    between atoms: N_10  and  C_11
REMARK    3  A    between atoms: N_19  and  C_20
REMARK                            x       y       z     vdW  Elec       q    Type
REMARK                         _______ _______ _______ _____ _____    ______ ____
ROOT
ATOM      1  O   UNL     1       3.368   6.726  18.552  0.00  0.00    +0.000 OA
ATOM      2  C   UNL     1       3.852   5.820  17.878  0.00  0.00    +0.000 C 
ATOM      3  C   UNL     1       4.901   6.033  16.793  0.00  0.00    +0.000 C 
ATOM      4  N   UNL     1       4.992   4.699  16.200  0.00  0.00    +0.000 N 
ATOM      5  C   UNL     1       4.273   3.756  16.993  0.00  0.00    +0.000 C 
ATOM      6  S   UNL     1       4.388   2.082  16.906  0.00  0.00    +0.000 S 
ATOM      7  N   UNL     1       3.577   4.474  17.966  0.00  0.00    +0.000 N 
ENDROOT
BRANCH   3   8
ATOM      8  C   UNL     1       6.161   6.584  17.432  0.00  0.00    +0.000 A 
ATOM      9  C   UNL     1       6.901   5.863  18.382  0.00  0.00    +0.000 A 
ATOM     10  C   UNL     1       8.048   6.413  18.950  0.00  0.00    +0.000 A 
ATOM     11  C   UNL     1       8.459   7.696  18.599  0.00  0.00    +0.000 A 
ATOM     12  C   UNL     1       7.723   8.434  17.675  0.00  0.00    +0.000 A 
ATOM     13  C   UNL     1       6.582   7.883  17.094  0.00  0.00    +0.000 A 
ENDBRANCH   3   8
BRANCH   4  14
ATOM     14  C   UNL     1       5.637   4.494  14.937  0.00  0.00    +0.000 A 
ATOM     15  C   UNL     1       5.003   3.788  13.901  0.00  0.00    +0.000 A 
ATOM     16  C   UNL     1       5.612   3.607  12.653  0.00  0.00    +0.000 A 
ATOM     17  C   UNL     1       6.892   4.094  12.425  0.00  0.00    +0.000 A 
ATOM     18  C   UNL     1       7.560   4.755  13.447  0.00  0.00    +0.000 A 
ATOM     19  C   UNL     1       6.939   4.949  14.689  0.00  0.00    +0.000 A 
ENDBRANCH   4  14
BRANCH   7  20
ATOM     20  C   UNL     1       2.742   3.952  18.982  0.00  0.00    +0.000 A 
ATOM     21  C   UNL     1       1.377   3.735  18.755  0.00  0.00    +0.000 A 
ATOM     22  C   UNL     1       0.561   3.250  19.779  0.00  0.00    +0.000 A 
ATOM     23  C   UNL     1       1.105   2.956  21.029  0.00  0.00    +0.000 A 
ATOM     24  C   UNL     1       2.463   3.161  21.262  0.00  0.00    +0.000 A 
ATOM     25  C   UNL     1       3.275   3.674  20.249  0.00  0.00    +0.000 A 
ENDBRANCH   7  20
TORSDOF 3
ENDMDL
MODEL 3
REMARK VINA RESULT:      -7.8      0.075      1.367
REMARK  Name = 
REMARK  3 active torsions:
REMARK  status: ('A' for Active; 'I' for Inactive)
REMARK    1  A    between atoms: C_3  and  C_4
REMARK    2  A    between atoms: N_10  and  C_11
REMARK    3  A    between atoms: N_19  and  C_20
REMARK                            x       y       z     vdW  Elec       q    Type
REMARK                         _______ _______ _______ _____ _____    ______ ____
ROOT
ATOM      1  O   UNL     1       3.360   6.734  18.577  0.00  0.00    +0.000 OA
ATOM      2  C   UNL     1       3.837   5.822  17.906  0.00  0.00    +0.000 C 
ATOM      3  C   UNL     1       4.878   6.026  16.810  0.00  0.00    +0.000 C 
ATOM      4  N   UNL     1       4.961   4.687  16.227  0.00  0.00    +0.000 N 
ATOM      5  C   UNL     1       4.247   3.752  17.032  0.00  0.00    +0.000 C 
ATOM      6  S   UNL     1       4.360   2.077  16.957  0.00  0.00    +0.000 S 
ATOM      7  N   UNL     1       3.561   4.478  18.005  0.00  0.00    +0.000 N 
ENDROOT
BRANCH   3   8
ATOM      8  C   UNL     1       6.143   6.579  17.434  0.00  0.00    +0.000 A 
ATOM      9  C   UNL     1       6.886   5.869  18.390  0.00  0.00    +0.000 A 
ATOM     10  C   UNL     1       8.039   6.421  18.944  0.00  0.00    +0.000 A 
ATOM     11  C   UNL     1       8.453   7.698  18.573  0.00  0.00    +0.000 A 
ATOM     12  C   UNL     1       7.715   8.426  17.642  0.00  0.00    +0.000 A 
ATOM     13  C   UNL     1       6.568   7.873  17.076  0.00  0.00    +0.000 A 
ENDBRANCH   3   8
BRANCH   4  14
ATOM     14  C   UNL     1       5.595   4.472  14.959  0.00  0.00    +0.000 A 
ATOM     15  C   UNL     1       6.879   4.976  14.692  0.00  0.00    +0.000 A 
ATOM     16  C   UNL     1       7.520   4.747  13.468  0.00  0.00    +0.000 A 
ATOM     17  C   UNL     1       6.871   4.043  12.463  0.00  0.00    +0.000 A 
ATOM     18  C   UNL     1       5.583   3.575  12.683  0.00  0.00    +0.000 A 
ATOM     19  C   UNL     1       4.952   3.792  13.916  0.00  0.00    +0.000 A 
ENDBRANCH   4  14
BRANCH   7  20
ATOM     20  C   UNL     1       2.734   3.965  19.032  0.00  0.00    +0.000 A 
ATOM     21  C   UNL     1       3.260   3.640  20.289  0.00  0.00    +0.000 A 
ATOM     22  C   UNL     1       2.436   3.104  21.281  0.00  0.00    +0.000 A 
ATOM     23  C   UNL     1       1.078   2.912  21.035  0.00  0.00    +0.000 A 
ATOM     24  C   UNL     1       0.543   3.240  19.792  0.00  0.00    +0.000 A 
ATOM     25  C   UNL     1       1.371   3.747  18.788  0.00  0.00    +0.000 A 
ENDBRANCH   7  20
TORSDOF 3
ENDMDL
MODEL 4
REMARK VINA RESULT:      -6.7      2.655      6.896
REMARK  Name = 
REMARK  3 active torsions:
REMARK  status: ('A' for Active; 'I' for Inactive)
REMARK    1  A    between atoms: C_3  and  C_4
REMARK    2  A    between atoms: N_10  and  C_11
REMARK    3  A    between atoms: N_19  and  C_20
REMARK                            x       y       z     vdW  Elec       q    Type
REMARK                         _______ _______ _______ _____ _____    ______ ____
ROOT
ATOM      1  O   UNL     1       2.709   3.263  16.659  0.00  0.00    +0.000 OA
ATOM      2  C   UNL     1       2.972   4.345  17.179  0.00  0.00    +0.000 C 
ATOM      3  C   UNL     1       2.147   4.977  18.295  0.00  0.00    +0.000 C 
ATOM      4  N   UNL     1       2.767   6.295  18.414  0.00  0.00    +0.000 N 
ATOM      5  C   UNL     1       3.965   6.350  17.642  0.00  0.00    +0.000 C 
ATOM      6  S   UNL     1       5.175   7.510  17.753  0.00  0.00    +0.000 S 
ATOM      7  N   UNL     1       4.031   5.176  16.892  0.00  0.00    +0.000 N 
ENDROOT
BRANCH   3   8
ATOM      8  C   UNL     1       2.207   4.080  19.515  0.00  0.00    +0.000 A 
ATOM      9  C   UNL     1       3.396   3.471  19.946  0.00  0.00    +0.000 A 
ATOM     10  C   UNL     1       3.403   2.647  21.069  0.00  0.00    +0.000 A 
ATOM     11  C   UNL     1       2.221   2.397  21.763  0.00  0.00    +0.000 A 
ATOM     12  C   UNL     1       1.028   2.975  21.335  0.00  0.00    +0.000 A 
ATOM     13  C   UNL     1       1.019   3.811  20.220  0.00  0.00    +0.000 A 
ENDBRANCH   3   8
BRANCH   4  14
ATOM     14  C   UNL     1       2.121   7.353  19.135  0.00  0.00    +0.000 A 
ATOM     15  C   UNL     1       1.747   8.547  18.496  0.00  0.00    +0.000 A 
ATOM     16  C   UNL     1       1.089   9.574  19.183  0.00  0.00    +0.000 A 
ATOM     17  C   UNL     1       0.829   9.449  20.541  0.00  0.00    +0.000 A 
ATOM     18  C   UNL     1       1.232   8.300  21.207  0.00  0.00    +0.000 A 
ATOM     19  C   UNL     1       1.874   7.266  20.511  0.00  0.00    +0.000 A 
ENDBRANCH   4  14
BRANCH   7  20
ATOM     20  C   UNL     1       5.053   4.790  15.993  0.00  0.00    +0.000 A 
ATOM     21  C   UNL     1       6.378   4.645  16.424  0.00  0.00    +0.000 A 
ATOM     22  C   UNL     1       7.380   4.295  15.517  0.00  0.00    +0.000 A 
ATOM     23  C   UNL     1       7.065   4.063  14.179  0.00  0.00    +0.000 A 
ATOM     24  C   UNL     1       5.749   4.196  13.742  0.00  0.00    +0.000 A 
ATOM     25  C   UNL     1       4.750   4.576  14.641  0.00  0.00    +0.000 A 
ENDBRANCH   7  20
TORSDOF 3
ENDMDL
MODEL 5
REMARK VINA RESULT:      -6.6      2.664      6.880
REMARK  Name = 
REMARK  3 active torsions:
REMARK  status: ('A' for Active; 'I' for Inactive)
REMARK    1  A    between atoms: C_3  and  C_4
REMARK    2  A    between atoms: N_10  and  C_11
REMARK    3  A    between atoms: N_19  and  C_20
REMARK                            x       y       z     vdW  Elec       q    Type
REMARK                         _______ _______ _______ _____ _____    ______ ____
ROOT
ATOM      1  O   UNL     1       2.676   3.301  16.623  0.00  0.00    +0.000 OA
ATOM      2  C   UNL     1       2.948   4.371  17.161  0.00  0.00    +0.000 C 
ATOM      3  C   UNL     1       2.117   5.001  18.273  0.00  0.00    +0.000 C 
ATOM      4  N   UNL     1       2.757   6.307  18.421  0.00  0.00    +0.000 N 
ATOM      5  C   UNL     1       3.967   6.353  17.668  0.00  0.00    +0.000 C 
ATOM      6  S   UNL     1       5.194   7.491  17.814  0.00  0.00    +0.000 S 
ATOM      7  N   UNL     1       4.025   5.188  16.902  0.00  0.00    +0.000 N 
ENDROOT
BRANCH   3   8
ATOM      8  C   UNL     1       2.143   4.087  19.482  0.00  0.00    +0.000 A 
ATOM      9  C   UNL     1       0.993   3.797  20.233  0.00  0.00    +0.000 A 
ATOM     10  C   UNL     1       1.065   2.958  21.343  0.00  0.00    +0.000 A 
ATOM     11  C   UNL     1       2.287   2.418  21.736  0.00  0.00    +0.000 A 
ATOM     12  C   UNL     1       3.442   2.714  21.015  0.00  0.00    +0.000 A 
ATOM     13  C   UNL     1       3.373   3.542  19.897  0.00  0.00    +0.000 A 
ENDBRANCH   3   8
BRANCH   4  14
ATOM     14  C   UNL     1       2.117   7.366  19.146  0.00  0.00    +0.000 A 
ATOM     15  C   UNL     1       1.834   7.242  20.517  0.00  0.00    +0.000 A 
ATOM     16  C   UNL     1       1.237   8.280  21.241  0.00  0.00    +0.000 A 
ATOM     17  C   UNL     1       0.867   9.455  20.601  0.00  0.00    +0.000 A 
ATOM     18  C   UNL     1       1.092   9.585  19.237  0.00  0.00    +0.000 A 
ATOM     19  C   UNL     1       1.707   8.550  18.519  0.00  0.00    +0.000 A 
ENDBRANCH   4  14
BRANCH   7  20
ATOM     20  C   UNL     1       5.055   4.798  16.014  0.00  0.00    +0.000 A 
ATOM     21  C   UNL     1       6.378   4.666  16.454  0.00  0.00    +0.000 A 
ATOM     22  C   UNL     1       7.387   4.311  15.557  0.00  0.00    +0.000 A 
ATOM     23  C   UNL     1       7.081   4.062  14.220  0.00  0.00    +0.000 A 
ATOM     24  C   UNL     1       5.767   4.182  13.774  0.00  0.00    +0.000 A 
ATOM     25  C   UNL     1       4.761   4.566  14.663  0.00  0.00    +0.000 A 
ENDBRANCH   7  20
TORSDOF 3
ENDMDL
MODEL 6
REMARK VINA RESULT:      -6.4      8.334     10.469
REMARK  Name = 
REMARK  3 active torsions:
REMARK  status: ('A' for Active; 'I' for Inactive)
REMARK    1  A    between atoms: C_3  and  C_4
REMARK    2  A    between atoms: N_10  and  C_11
REMARK    3  A    between atoms: N_19  and  C_20
REMARK                            x       y       z     vdW  Elec       q    Type
REMARK                         _______ _______ _______ _____ _____    ______ ____
ROOT
ATOM      1  O   UNL     1      -2.348  13.044  20.120  0.00  0.00    +0.000 OA
ATOM      2  C   UNL     1      -1.272  12.594  19.735  0.00  0.00    +0.000 C 
ATOM      3  C   UNL     1      -1.048  11.138  19.342  0.00  0.00    +0.000 C 
ATOM      4  N   UNL     1       0.400  11.102  19.144  0.00  0.00    +0.000 N 
ATOM      5  C   UNL     1       0.936  12.423  19.173  0.00  0.00    +0.000 C 
ATOM      6  S   UNL     1       2.460  12.896  18.647  0.00  0.00    +0.000 S 
ATOM      7  N   UNL     1      -0.091  13.281  19.564  0.00  0.00    +0.000 N 
ENDROOT
BRANCH   3   8
ATOM      8  C   UNL     1      -1.910  10.818  18.137  0.00  0.00    +0.000 A 
ATOM      9  C   UNL     1      -1.885  11.591  16.965  0.00  0.00    +0.000 A 
ATOM     10  C   UNL     1      -2.702  11.265  15.885  0.00  0.00    +0.000 A 
ATOM     11  C   UNL     1      -3.574  10.182  15.966  0.00  0.00    +0.000 A 
ATOM     12  C   UNL     1      -3.629   9.419  17.130  0.00  0.00    +0.000 A 
ATOM     13  C   UNL     1      -2.804   9.733  18.209  0.00  0.00    +0.000 A 
ENDBRANCH   3   8
BRANCH   4  14
ATOM     14  C   UNL     1       1.103   9.855  19.061  0.00  0.00    +0.000 A 
ATOM     15  C   UNL     1       1.721   9.446  17.868  0.00  0.00    +0.000 A 
ATOM     16  C   UNL     1       2.435   8.244  17.784  0.00  0.00    +0.000 A 
ATOM     17  C   UNL     1       2.511   7.400  18.883  0.00  0.00    +0.000 A 
ATOM     18  C   UNL     1       1.869   7.758  20.061  0.00  0.00    +0.000 A 
ATOM     19  C   UNL     1       1.171   8.970  20.146  0.00  0.00    +0.000 A 
ENDBRANCH   4  14
BRANCH   7  20
ATOM     20  C   UNL     1      -0.023  14.686  19.715  0.00  0.00    +0.000 A 
ATOM     21  C   UNL     1       0.315  15.266  20.944  0.00  0.00    +0.000 A 
ATOM     22  C   UNL     1       0.346  16.655  21.084  0.00  0.00    +0.000 A 
ATOM     23  C   UNL     1       0.063  17.476  19.993  0.00  0.00    +0.000 A 
ATOM     24  C   UNL     1      -0.266  16.909  18.764  0.00  0.00    +0.000 A 
ATOM     25  C   UNL     1      -0.328  15.521  18.630  0.00  0.00    +0.000 A 
ENDBRANCH   7  20
TORSDOF 3
ENDMDL
MODEL 7
REMARK VINA RESULT:      -6.4      8.339      9.518
REMARK  Name = 
REMARK  3 active torsions:
REMARK  status: ('A' for Active; 'I' for Inactive)
REMARK    1  A    between atoms: C_3  and  C_4
REMARK    2  A    between atoms: N_10  and  C_11
REMARK    3  A    between atoms: N_19  and  C_20
REMARK                            x       y       z     vdW  Elec       q    Type
REMARK                         _______ _______ _______ _____ _____    ______ ____
ROOT
ATOM      1  O   UNL     1      -1.224  14.027  19.870  0.00  0.00    +0.000 OA
ATOM      2  C   UNL     1      -0.771  12.950  20.249  0.00  0.00    +0.000 C 
ATOM      3  C   UNL     1       0.310  12.173  19.507  0.00  0.00    +0.000 C 
ATOM      4  N   UNL     1       0.347  10.920  20.261  0.00  0.00    +0.000 N 
ATOM      5  C   UNL     1      -0.434  11.035  21.448  0.00  0.00    +0.000 C 
ATOM      6  S   UNL     1      -0.400  10.001  22.772  0.00  0.00    +0.000 S 
ATOM      7  N   UNL     1      -1.114  12.251  21.384  0.00  0.00    +0.000 N 
ENDROOT
BRANCH   3   8
ATOM      8  C   UNL     1       1.582  12.997  19.490  0.00  0.00    +0.000 A 
ATOM      9  C   UNL     1       2.214  13.432  20.665  0.00  0.00    +0.000 A 
ATOM     10  C   UNL     1       3.377  14.196  20.602  0.00  0.00    +0.000 A 
ATOM     11  C   UNL     1       3.911  14.560  19.368  0.00  0.00    +0.000 A 
ATOM     12  C   UNL     1       3.283  14.157  18.191  0.00  0.00    +0.000 A 
ATOM     13  C   UNL     1       2.127  13.381  18.250  0.00  0.00    +0.000 A 
ENDBRANCH   3   8
BRANCH   4  14
ATOM     14  C   UNL     1       1.008   9.761  19.736  0.00  0.00    +0.000 A 
ATOM     15  C   UNL     1       1.319   9.656  18.370  0.00  0.00    +0.000 A 
ATOM     16  C   UNL     1       1.990   8.542  17.852  0.00  0.00    +0.000 A 
ATOM     17  C   UNL     1       2.328   7.483  18.683  0.00  0.00    +0.000 A 
ATOM     18  C   UNL     1       1.989   7.539  20.029  0.00  0.00    +0.000 A 
ATOM     19  C   UNL     1       1.333   8.665  20.546  0.00  0.00    +0.000 A 
ENDBRANCH   4  14
BRANCH   7  20
ATOM     20  C   UNL     1      -1.994  12.793  22.350  0.00  0.00    +0.000 A 
ATOM     21  C   UNL     1      -3.362  12.490  22.332  0.00  0.00    +0.000 A 
ATOM     22  C   UNL     1      -4.222  13.059  23.273  0.00  0.00    +0.000 A 
ATOM     23  C   UNL     1      -3.722  13.914  24.254  0.00  0.00    +0.000 A 
ATOM     24  C   UNL     1      -2.362  14.215  24.285  0.00  0.00    +0.000 A 
ATOM     25  C   UNL     1      -1.505  13.672  23.327  0.00  0.00    +0.000 A 
ENDBRANCH   7  20
TORSDOF 3
ENDMDL
MODEL 8
REMARK VINA RESULT:      -6.4      8.332     10.482
REMARK  Name = 
REMARK  3 active torsions:
REMARK  status: ('A' for Active; 'I' for Inactive)
REMARK    1  A    between atoms: C_3  and  C_4
REMARK    2  A    between atoms: N_10  and  C_11
REMARK    3  A    between atoms: N_19  and  C_20
REMARK                            x       y       z     vdW  Elec       q    Type
REMARK                         _______ _______ _______ _____ _____    ______ ____
ROOT
ATOM      1  O   UNL     1      -2.466  12.985  20.119  0.00  0.00    +0.000 OA
ATOM      2  C   UNL     1      -1.389  12.536  19.735  0.00  0.00    +0.000 C 
ATOM      3  C   UNL     1      -1.158  11.074  19.367  0.00  0.00    +0.000 C 
ATOM      4  N   UNL     1       0.290  11.044  19.162  0.00  0.00    +0.000 N 
ATOM      5  C   UNL     1       0.817  12.369  19.164  0.00  0.00    +0.000 C 
ATOM      6  S   UNL     1       2.335  12.842  18.621  0.00  0.00    +0.000 S 
ATOM      7  N   UNL     1      -0.214  13.228  19.545  0.00  0.00    +0.000 N 
ENDROOT
BRANCH   3   8
ATOM      8  C   UNL     1      -2.024  10.727  18.174  0.00  0.00    +0.000 A 
ATOM      9  C   UNL     1      -2.910   9.638  18.177  0.00  0.00    +0.000 A 
ATOM     10  C   UNL     1      -3.682   9.349  17.053  0.00  0.00    +0.000 A 
ATOM     11  C   UNL     1      -3.563  10.125  15.903  0.00  0.00    +0.000 A 
ATOM     12  C   UNL     1      -2.671  11.196  15.875  0.00  0.00    +0.000 A 
ATOM     13  C   UNL     1      -1.907  11.496  17.001  0.00  0.00    +0.000 A 
ENDBRANCH   3   8
BRANCH   4  14
ATOM     14  C   UNL     1       1.001   9.801  19.097  0.00  0.00    +0.000 A 
ATOM     15  C   UNL     1       1.565   9.346  17.894  0.00  0.00    +0.000 A 
ATOM     16  C   UNL     1       2.286   8.148  17.825  0.00  0.00    +0.000 A 
ATOM     17  C   UNL     1       2.424   7.352  18.954  0.00  0.00    +0.000 A 
ATOM     18  C   UNL     1       1.836   7.754  20.146  0.00  0.00    +0.000 A 
ATOM     19  C   UNL     1       1.130   8.964  20.214  0.00  0.00    +0.000 A 
ENDBRANCH   4  14
BRANCH   7  20
ATOM     20  C   UNL     1      -0.155  14.636  19.670  0.00  0.00    +0.000 A 
ATOM     21  C   UNL     1      -0.412  15.470  18.575  0.00  0.00    +0.000 A 
ATOM     22  C   UNL     1      -0.317  16.856  18.707  0.00  0.00    +0.000 A 
ATOM     23  C   UNL     1       0.011  17.422  19.939  0.00  0.00    +0.000 A 
ATOM     24  C   UNL     1       0.261  16.602  21.036  0.00  0.00    +0.000 A 
ATOM     25  C   UNL     1       0.196  15.214  20.898  0.00  0.00    +0.000 A 
ENDBRANCH   7  20
TORSDOF 3
ENDMDL
MODEL 9
REMARK VINA RESULT:      -6.4      8.426     10.619
REMARK  Name = 
REMARK  3 active torsions:
REMARK  status: ('A' for Active; 'I' for Inactive)
REMARK    1  A    between atoms: C_3  and  C_4
REMARK    2  A    between atoms: N_10  and  C_11
REMARK    3  A    between atoms: N_19  and  C_20
REMARK                            x       y       z     vdW  Elec       q    Type
REMARK                         _______ _______ _______ _____ _____    ______ ____
ROOT
ATOM      1  O   UNL     1      -2.060  13.423  20.319  0.00  0.00    +0.000 OA
ATOM      2  C   UNL     1      -1.057  12.901  19.841  0.00  0.00    +0.000 C 
ATOM      3  C   UNL     1      -0.940  11.415  19.521  0.00  0.00    +0.000 C 
ATOM      4  N   UNL     1       0.471  11.297  19.159  0.00  0.00    +0.000 N 
ATOM      5  C   UNL     1       1.060  12.591  19.038  0.00  0.00    +0.000 C 
ATOM      6  S   UNL     1       2.528  12.958  18.308  0.00  0.00    +0.000 S 
ATOM      7  N   UNL     1       0.121  13.519  19.489  0.00  0.00    +0.000 N 
ENDROOT
BRANCH   3   8
ATOM      8  C   UNL     1      -1.952  11.064  18.449  0.00  0.00    +0.000 A 
ATOM      9  C   UNL     1      -1.642  10.228  17.365  0.00  0.00    +0.000 A 
ATOM     10  C   UNL     1      -2.602   9.939  16.397  0.00  0.00    +0.000 A 
ATOM     11  C   UNL     1      -3.874  10.499  16.482  0.00  0.00    +0.000 A 
ATOM     12  C   UNL     1      -4.191  11.349  17.539  0.00  0.00    +0.000 A 
ATOM     13  C   UNL     1      -3.239  11.630  18.517  0.00  0.00    +0.000 A 
ENDBRANCH   3   8
BRANCH   4  14
ATOM     14  C   UNL     1       1.109  10.016  19.077  0.00  0.00    +0.000 A 
ATOM     15  C   UNL     1       1.139   9.145  20.178  0.00  0.00    +0.000 A 
ATOM     16  C   UNL     1       1.733   7.879  20.100  0.00  0.00    +0.000 A 
ATOM     17  C   UNL     1       2.352   7.471  18.927  0.00  0.00    +0.000 A 
ATOM     18  C   UNL     1       2.379   8.332  17.837  0.00  0.00    +0.000 A 
ATOM     19  C   UNL     1       1.767   9.591  17.915  0.00  0.00    +0.000 A 
ENDBRANCH   4  14
BRANCH   7  20
ATOM     20  C   UNL     1       0.263  14.926  19.538  0.00  0.00    +0.000 A 
ATOM     21  C   UNL     1      -0.249  15.740  18.519  0.00  0.00    +0.000 A 
ATOM     22  C   UNL     1      -0.072  17.124  18.567  0.00  0.00    +0.000 A 
ATOM     23  C   UNL     1       0.597  17.709  19.642  0.00  0.00    +0.000 A 
ATOM     24  C   UNL     1       1.102  16.909  20.664  0.00  0.00    +0.000 A 
ATOM     25  C   UNL     1       0.953  15.522  20.603  0.00  0.00    +0.000 A 
ENDBRANCH   7  20
TORSDOF 3
ENDMDL
