MODEL 1
REMARK VINA RESULT:      -7.4      0.000      0.000
REMARK  Name = 
REMARK  5 active torsions:
REMARK  status: ('A' for Active; 'I' for Inactive)
REMARK    1  A    between atoms: C_2  and  C_3
REMARK    2  A    between atoms: C_3  and  C_4
REMARK    3  A    between atoms: C_4  and  N_5
REMARK    4  A    between atoms: C_6  and  C_8
REMARK    5  A    between atoms: N_13  and  C_14
REMARK                            x       y       z     vdW  Elec       q    Type
REMARK                         _______ _______ _______ _____ _____    ______ ____
ROOT
ATOM      1  O   UNL     1       7.230   5.151  20.373  0.00  0.00    +0.000 OA
ATOM      2  C   UNL     1       6.891   5.516  19.247  0.00  0.00    +0.000 C 
ATOM      3  N   UNL     1       5.629   5.345  18.689  0.00  0.00    +0.000 N 
ATOM      4  H   UNL     1       5.545   5.493  17.690  0.00  0.00    +0.000 HD
ENDROOT
BRANCH   3   5
ATOM      5  C   UNL     1       4.515   4.748  19.332  0.00  0.00    +0.000 A 
ATOM      6  C   UNL     1       3.444   5.485  19.849  0.00  0.00    +0.000 A 
ATOM      7  C   UNL     1       2.412   4.856  20.558  0.00  0.00    +0.000 A 
ATOM      8  C   UNL     1       2.437   3.476  20.732  0.00  0.00    +0.000 A 
ATOM      9 CL   UNL     1       1.200   2.707  21.649  0.00  0.00    +0.000 Cl
ATOM     10  C   UNL     1       3.457   2.718  20.166  0.00  0.00    +0.000 A 
ATOM     11  C   UNL     1       4.493   3.354  19.458  0.00  0.00    +0.000 A 
ENDBRANCH   3   5
BRANCH   2  12
ATOM     12  C   UNL     1       7.863   6.265  18.352  0.00  0.00    +0.000 C 
BRANCH  12  13
ATOM     13  C   UNL     1       7.150   6.951  17.191  0.00  0.00    +0.000 C 
BRANCH  13  14
ATOM     14  N   UNL     1       7.247   6.162  15.973  0.00  0.00    +0.000 N 
ATOM     15  C   UNL     1       6.136   5.651  15.330  0.00  0.00    +0.000 C 
ATOM     16  O   UNL     1       4.998   5.828  15.760  0.00  0.00    +0.000 OA
ATOM     17  H   UNL     1       8.142   6.053  15.508  0.00  0.00    +0.000 HD
BRANCH  15  18
ATOM     18  C   UNL     1       6.425   4.914  14.117  0.00  0.00    +0.000 A 
ATOM     19  C   UNL     1       5.864   3.762  13.597  0.00  0.00    +0.000 A 
ATOM     20  C   UNL     1       6.515   3.511  12.366  0.00  0.00    +0.000 A 
ATOM     21  C   UNL     1       7.445   4.511  12.217  0.00  0.00    +0.000 A 
ATOM     22  O   UNL     1       7.401   5.368  13.269  0.00  0.00    +0.000 OA
ENDBRANCH  15  18
ENDBRANCH  13  14
ENDBRANCH  12  13
ENDBRANCH   2  12
TORSDOF 5
ENDMDL
MODEL 2
REMARK VINA RESULT:      -7.1      0.833      1.466
REMARK  Name = 
REMARK  5 active torsions:
REMARK  status: ('A' for Active; 'I' for Inactive)
REMARK    1  A    between atoms: C_2  and  C_3
REMARK    2  A    between atoms: C_3  and  C_4
REMARK    3  A    between atoms: C_4  and  N_5
REMARK    4  A    between atoms: C_6  and  C_8
REMARK    5  A    between atoms: N_13  and  C_14
REMARK                            x       y       z     vdW  Elec       q    Type
REMARK                         _______ _______ _______ _____ _____    ______ ____
ROOT
ATOM      1  O   UNL     1       7.180   5.282  20.119  0.00  0.00    +0.000 OA
ATOM      2  C   UNL     1       6.682   5.473  19.010  0.00  0.00    +0.000 C 
ATOM      3  N   UNL     1       5.399   5.103  18.626  0.00  0.00    +0.000 N 
ATOM      4  H   UNL     1       5.192   5.124  17.634  0.00  0.00    +0.000 HD
ENDROOT
BRANCH   3   5
ATOM      5  C   UNL     1       4.439   4.468  19.455  0.00  0.00    +0.000 A 
ATOM      6  C   UNL     1       4.463   3.100  19.744  0.00  0.00    +0.000 A 
ATOM      7  C   UNL     1       3.440   2.502  20.491  0.00  0.00    +0.000 A 
ATOM      8  C   UNL     1       2.394   3.283  20.974  0.00  0.00    +0.000 A 
ATOM      9 CL   UNL     1       1.107   2.543  21.845  0.00  0.00    +0.000 Cl
ATOM     10  C   UNL     1       2.388   4.656  20.756  0.00  0.00    +0.000 A 
ATOM     11  C   UNL     1       3.416   5.251  20.003  0.00  0.00    +0.000 A 
ENDBRANCH   3   5
BRANCH   2  12
ATOM     12  C   UNL     1       7.457   6.214  17.933  0.00  0.00    +0.000 C 
BRANCH  12  13
ATOM     13  C   UNL     1       6.535   6.764  16.849  0.00  0.00    +0.000 C 
BRANCH  13  14
ATOM     14  N   UNL     1       6.718   6.056  15.592  0.00  0.00    +0.000 N 
ATOM     15  C   UNL     1       5.877   5.040  15.182  0.00  0.00    +0.000 C 
ATOM     16  O   UNL     1       4.926   4.669  15.867  0.00  0.00    +0.000 OA
ATOM     17  H   UNL     1       7.423   6.368  14.932  0.00  0.00    +0.000 HD
BRANCH  15  18
ATOM     18  C   UNL     1       6.200   4.470  13.890  0.00  0.00    +0.000 A 
ATOM     19  C   UNL     1       7.304   4.634  13.073  0.00  0.00    +0.000 A 
ATOM     20  C   UNL     1       7.098   3.809  11.941  0.00  0.00    +0.000 A 
ATOM     21  C   UNL     1       5.877   3.208  12.125  0.00  0.00    +0.000 A 
ATOM     22  O   UNL     1       5.322   3.598  13.301  0.00  0.00    +0.000 OA
ENDBRANCH  15  18
ENDBRANCH  13  14
ENDBRANCH  12  13
ENDBRANCH   2  12
TORSDOF 5
ENDMDL
MODEL 3
REMARK VINA RESULT:      -7.0      3.556      5.298
REMARK  Name = 
REMARK  5 active torsions:
REMARK  status: ('A' for Active; 'I' for Inactive)
REMARK    1  A    between atoms: C_2  and  C_3
REMARK    2  A    between atoms: C_3  and  C_4
REMARK    3  A    between atoms: C_4  and  N_5
REMARK    4  A    between atoms: C_6  and  C_8
REMARK    5  A    between atoms: N_13  and  C_14
REMARK                            x       y       z     vdW  Elec       q    Type
REMARK                         _______ _______ _______ _____ _____    ______ ____
ROOT
ATOM      1  O   UNL     1       0.639   4.546  20.275  0.00  0.00    +0.000 OA
ATOM      2  C   UNL     1       1.816   4.651  20.616  0.00  0.00    +0.000 C 
ATOM      3  N   UNL     1       2.569   5.818  20.570  0.00  0.00    +0.000 N 
ATOM      4  H   UNL     1       3.573   5.722  20.673  0.00  0.00    +0.000 HD
ENDROOT
BRANCH   3   5
ATOM      5  C   UNL     1       2.100   7.088  20.148  0.00  0.00    +0.000 A 
ATOM      6  C   UNL     1       1.370   7.948  20.976  0.00  0.00    +0.000 A 
ATOM      7  C   UNL     1       0.848   9.152  20.485  0.00  0.00    +0.000 A 
ATOM      8  C   UNL     1       1.076   9.511  19.160  0.00  0.00    +0.000 A 
ATOM      9 CL   UNL     1       0.390  10.962  18.538  0.00  0.00    +0.000 Cl
ATOM     10  C   UNL     1       1.857   8.703  18.341  0.00  0.00    +0.000 A 
ATOM     11  C   UNL     1       2.377   7.494  18.838  0.00  0.00    +0.000 A 
ENDBRANCH   3   5
BRANCH   2  12
ATOM     12  C   UNL     1       2.563   3.460  21.192  0.00  0.00    +0.000 C 
BRANCH  12  13
ATOM     13  C   UNL     1       3.020   2.496  20.100  0.00  0.00    +0.000 C 
BRANCH  13  14
ATOM     14  N   UNL     1       4.195   3.001  19.408  0.00  0.00    +0.000 N 
ATOM     15  C   UNL     1       4.137   3.522  18.131  0.00  0.00    +0.000 C 
ATOM     16  O   UNL     1       3.084   3.577  17.499  0.00  0.00    +0.000 OA
ATOM     17  H   UNL     1       5.079   3.075  19.899  0.00  0.00    +0.000 HD
BRANCH  15  18
ATOM     18  C   UNL     1       5.402   4.002  17.614  0.00  0.00    +0.000 A 
ATOM     19  C   UNL     1       5.816   4.267  16.322  0.00  0.00    +0.000 A 
ATOM     20  C   UNL     1       7.146   4.745  16.409  0.00  0.00    +0.000 A 
ATOM     21  C   UNL     1       7.469   4.726  17.745  0.00  0.00    +0.000 A 
ATOM     22  O   UNL     1       6.423   4.279  18.486  0.00  0.00    +0.000 OA
ENDBRANCH  15  18
ENDBRANCH  13  14
ENDBRANCH  12  13
ENDBRANCH   2  12
TORSDOF 5
ENDMDL
MODEL 4
REMARK VINA RESULT:      -6.9      3.365      4.503
REMARK  Name = 
REMARK  5 active torsions:
REMARK  status: ('A' for Active; 'I' for Inactive)
REMARK    1  A    between atoms: C_2  and  C_3
REMARK    2  A    between atoms: C_3  and  C_4
REMARK    3  A    between atoms: C_4  and  N_5
REMARK    4  A    between atoms: C_6  and  C_8
REMARK    5  A    between atoms: N_13  and  C_14
REMARK                            x       y       z     vdW  Elec       q    Type
REMARK                         _______ _______ _______ _____ _____    ______ ____
ROOT
ATOM      1  O   UNL     1       2.115   4.827  17.959  0.00  0.00    +0.000 OA
ATOM      2  C   UNL     1       2.780   4.954  18.986  0.00  0.00    +0.000 C 
ATOM      3  N   UNL     1       2.919   6.127  19.719  0.00  0.00    +0.000 N 
ATOM      4  H   UNL     1       3.658   6.151  20.412  0.00  0.00    +0.000 HD
ENDROOT
BRANCH   3   5
ATOM      5  C   UNL     1       2.296   7.365  19.421  0.00  0.00    +0.000 A 
ATOM      6  C   UNL     1       2.414   8.004  18.182  0.00  0.00    +0.000 A 
ATOM      7  C   UNL     1       1.858   9.272  17.967  0.00  0.00    +0.000 A 
ATOM      8  C   UNL     1       1.156   9.898  18.993  0.00  0.00    +0.000 A 
ATOM      9 CL   UNL     1       0.518  11.478  18.750  0.00  0.00    +0.000 Cl
ATOM     10  C   UNL     1       0.968   9.250  20.209  0.00  0.00    +0.000 A 
ATOM     11  C   UNL     1       1.531   7.979  20.420  0.00  0.00    +0.000 A 
ENDBRANCH   3   5
BRANCH   2  12
ATOM     12  C   UNL     1       3.500   3.761  19.593  0.00  0.00    +0.000 C 
BRANCH  12  13
ATOM     13  C   UNL     1       5.006   3.829  19.358  0.00  0.00    +0.000 C 
BRANCH  13  14
ATOM     14  N   UNL     1       5.318   3.840  17.938  0.00  0.00    +0.000 N 
ATOM     15  C   UNL     1       6.128   4.799  17.363  0.00  0.00    +0.000 C 
ATOM     16  O   UNL     1       6.624   5.710  18.023  0.00  0.00    +0.000 OA
ATOM     17  H   UNL     1       5.022   3.070  17.348  0.00  0.00    +0.000 HD
BRANCH  15  18
ATOM     18  C   UNL     1       6.349   4.633  15.941  0.00  0.00    +0.000 A 
ATOM     19  C   UNL     1       5.701   3.847  15.005  0.00  0.00    +0.000 A 
ATOM     20  C   UNL     1       6.319   4.106  13.758  0.00  0.00    +0.000 A 
ATOM     21  C   UNL     1       7.316   5.016  14.010  0.00  0.00    +0.000 A 
ATOM     22  O   UNL     1       7.346   5.345  15.327  0.00  0.00    +0.000 OA
ENDBRANCH  15  18
ENDBRANCH  13  14
ENDBRANCH  12  13
ENDBRANCH   2  12
TORSDOF 5
ENDMDL
MODEL 5
REMARK VINA RESULT:      -6.9      1.074      1.102
REMARK  Name = 
REMARK  5 active torsions:
REMARK  status: ('A' for Active; 'I' for Inactive)
REMARK    1  A    between atoms: C_2  and  C_3
REMARK    2  A    between atoms: C_3  and  C_4
REMARK    3  A    between atoms: C_4  and  N_5
REMARK    4  A    between atoms: C_6  and  C_8
REMARK    5  A    between atoms: N_13  and  C_14
REMARK                            x       y       z     vdW  Elec       q    Type
REMARK                         _______ _______ _______ _____ _____    ______ ____
ROOT
ATOM      1  O   UNL     1       6.650   4.189  19.304  0.00  0.00    +0.000 OA
ATOM      2  C   UNL     1       6.435   5.306  18.835  0.00  0.00    +0.000 C 
ATOM      3  N   UNL     1       5.180   5.847  18.581  0.00  0.00    +0.000 N 
ATOM      4  H   UNL     1       5.146   6.678  18.001  0.00  0.00    +0.000 HD
ENDROOT
BRANCH   3   5
ATOM      5  C   UNL     1       3.939   5.215  18.846  0.00  0.00    +0.000 A 
ATOM      6  C   UNL     1       3.221   5.403  20.033  0.00  0.00    +0.000 A 
ATOM      7  C   UNL     1       2.046   4.684  20.287  0.00  0.00    +0.000 A 
ATOM      8  C   UNL     1       1.570   3.786  19.337  0.00  0.00    +0.000 A 
ATOM      9 CL   UNL     1       0.157   2.860  19.669  0.00  0.00    +0.000 Cl
ATOM     10  C   UNL     1       2.231   3.636  18.122  0.00  0.00    +0.000 A 
ATOM     11  C   UNL     1       3.411   4.358  17.873  0.00  0.00    +0.000 A 
ENDBRANCH   3   5
BRANCH   2  12
ATOM     12  C   UNL     1       7.585   6.249  18.526  0.00  0.00    +0.000 C 
BRANCH  12  13
ATOM     13  C   UNL     1       7.341   7.039  17.243  0.00  0.00    +0.000 C 
BRANCH  13  14
ATOM     14  N   UNL     1       7.340   6.167  16.080  0.00  0.00    +0.000 N 
ATOM     15  C   UNL     1       6.194   5.889  15.362  0.00  0.00    +0.000 C 
ATOM     16  O   UNL     1       5.102   6.358  15.675  0.00  0.00    +0.000 OA
ATOM     17  H   UNL     1       8.217   5.819  15.706  0.00  0.00    +0.000 HD
BRANCH  15  18
ATOM     18  C   UNL     1       6.391   5.023  14.218  0.00  0.00    +0.000 A 
ATOM     19  C   UNL     1       5.688   3.913  13.784  0.00  0.00    +0.000 A 
ATOM     20  C   UNL     1       6.309   3.479  12.589  0.00  0.00    +0.000 A 
ATOM     21  C   UNL     1       7.362   4.335  12.374  0.00  0.00    +0.000 A 
ATOM     22  O   UNL     1       7.424   5.275  13.352  0.00  0.00    +0.000 OA
ENDBRANCH  15  18
ENDBRANCH  13  14
ENDBRANCH  12  13
ENDBRANCH   2  12
TORSDOF 5
ENDMDL
MODEL 6
REMARK VINA RESULT:      -6.9      3.155      6.269
REMARK  Name = 
REMARK  5 active torsions:
REMARK  status: ('A' for Active; 'I' for Inactive)
REMARK    1  A    between atoms: C_2  and  C_3
REMARK    2  A    between atoms: C_3  and  C_4
REMARK    3  A    between atoms: C_4  and  N_5
REMARK    4  A    between atoms: C_6  and  C_8
REMARK    5  A    between atoms: N_13  and  C_14
REMARK                            x       y       z     vdW  Elec       q    Type
REMARK                         _______ _______ _______ _____ _____    ______ ____
ROOT
ATOM      1  O   UNL     1       8.011   4.289  17.039  0.00  0.00    +0.000 OA
ATOM      2  C   UNL     1       7.389   5.347  16.944  0.00  0.00    +0.000 C 
ATOM      3  N   UNL     1       6.635   5.745  15.847  0.00  0.00    +0.000 N 
ATOM      4  H   UNL     1       6.356   6.719  15.810  0.00  0.00    +0.000 HD
ENDROOT
BRANCH   3   5
ATOM      5  C   UNL     1       6.434   4.988  14.664  0.00  0.00    +0.000 A 
ATOM      6  C   UNL     1       5.302   4.194  14.447  0.00  0.00    +0.000 A 
ATOM      7  C   UNL     1       5.193   3.392  13.304  0.00  0.00    +0.000 A 
ATOM      8  C   UNL     1       6.212   3.400  12.357  0.00  0.00    +0.000 A 
ATOM      9 CL   UNL     1       6.106   2.375  10.978  0.00  0.00    +0.000 Cl
ATOM     10  C   UNL     1       7.312   4.235  12.521  0.00  0.00    +0.000 A 
ATOM     11  C   UNL     1       7.419   5.037  13.671  0.00  0.00    +0.000 A 
ENDBRANCH   3   5
BRANCH   2  12
ATOM     12  C   UNL     1       7.356   6.330  18.102  0.00  0.00    +0.000 C 
BRANCH  12  13
ATOM     13  C   UNL     1       6.965   5.651  19.411  0.00  0.00    +0.000 C 
BRANCH  13  14
ATOM     14  N   UNL     1       5.953   4.629  19.192  0.00  0.00    +0.000 N 
ATOM     15  C   UNL     1       4.601   4.908  19.214  0.00  0.00    +0.000 C 
ATOM     16  O   UNL     1       4.174   6.040  19.431  0.00  0.00    +0.000 OA
ATOM     17  H   UNL     1       6.229   3.693  18.915  0.00  0.00    +0.000 HD
BRANCH  15  18
ATOM     18  C   UNL     1       3.744   3.770  18.948  0.00  0.00    +0.000 A 
ATOM     19  C   UNL     1       2.406   3.555  19.224  0.00  0.00    +0.000 A 
ATOM     20  C   UNL     1       2.085   2.275  18.710  0.00  0.00    +0.000 A 
ATOM     21  C   UNL     1       3.247   1.780  18.170  0.00  0.00    +0.000 A 
ATOM     22  O   UNL     1       4.259   2.674  18.306  0.00  0.00    +0.000 OA
ENDBRANCH  15  18
ENDBRANCH  13  14
ENDBRANCH  12  13
ENDBRANCH   2  12
TORSDOF 5
ENDMDL
MODEL 7
REMARK VINA RESULT:      -6.8      1.387      1.656
REMARK  Name = 
REMARK  5 active torsions:
REMARK  status: ('A' for Active; 'I' for Inactive)
REMARK    1  A    between atoms: C_2  and  C_3
REMARK    2  A    between atoms: C_3  and  C_4
REMARK    3  A    between atoms: C_4  and  N_5
REMARK    4  A    between atoms: C_6  and  C_8
REMARK    5  A    between atoms: N_13  and  C_14
REMARK                            x       y       z     vdW  Elec       q    Type
REMARK                         _______ _______ _______ _____ _____    ______ ____
ROOT
ATOM      1  O   UNL     1       5.801   5.797  19.731  0.00  0.00    +0.000 OA
ATOM      2  C   UNL     1       6.306   5.133  18.826  0.00  0.00    +0.000 C 
ATOM      3  N   UNL     1       5.700   4.066  18.174  0.00  0.00    +0.000 N 
ATOM      4  H   UNL     1       6.297   3.476  17.606  0.00  0.00    +0.000 HD
ENDROOT
BRANCH   3   5
ATOM      5  C   UNL     1       4.390   3.583  18.421  0.00  0.00    +0.000 A 
ATOM      6  C   UNL     1       4.078   2.725  19.482  0.00  0.00    +0.000 A 
ATOM      7  C   UNL     1       2.788   2.200  19.629  0.00  0.00    +0.000 A 
ATOM      8  C   UNL     1       1.793   2.552  18.722  0.00  0.00    +0.000 A 
ATOM      9 CL   UNL     1       0.221   1.866  18.868  0.00  0.00    +0.000 Cl
ATOM     10  C   UNL     1       2.066   3.458  17.702  0.00  0.00    +0.000 A 
ATOM     11  C   UNL     1       3.363   3.980  17.556  0.00  0.00    +0.000 A 
ENDBRANCH   3   5
BRANCH   2  12
ATOM     12  C   UNL     1       7.685   5.478  18.291  0.00  0.00    +0.000 C 
BRANCH  12  13
ATOM     13  C   UNL     1       7.608   6.407  17.083  0.00  0.00    +0.000 C 
BRANCH  13  14
ATOM     14  N   UNL     1       7.516   5.652  15.843  0.00  0.00    +0.000 N 
ATOM     15  C   UNL     1       6.321   5.457  15.180  0.00  0.00    +0.000 C 
ATOM     16  O   UNL     1       5.259   5.904  15.609  0.00  0.00    +0.000 OA
ATOM     17  H   UNL     1       8.361   5.333  15.380  0.00  0.00    +0.000 HD
BRANCH  15  18
ATOM     18  C   UNL     1       6.429   4.704  13.947  0.00  0.00    +0.000 A 
ATOM     19  C   UNL     1       5.643   3.691  13.428  0.00  0.00    +0.000 A 
ATOM     20  C   UNL     1       6.199   3.346  12.173  0.00  0.00    +0.000 A 
ATOM     21  C   UNL     1       7.298   4.154  12.009  0.00  0.00    +0.000 A 
ATOM     22  O   UNL     1       7.449   4.982  13.075  0.00  0.00    +0.000 OA
ENDBRANCH  15  18
ENDBRANCH  13  14
ENDBRANCH  12  13
ENDBRANCH   2  12
TORSDOF 5
ENDMDL
MODEL 8
REMARK VINA RESULT:      -6.8      3.278      4.312
REMARK  Name = 
REMARK  5 active torsions:
REMARK  status: ('A' for Active; 'I' for Inactive)
REMARK    1  A    between atoms: C_2  and  C_3
REMARK    2  A    between atoms: C_3  and  C_4
REMARK    3  A    between atoms: C_4  and  N_5
REMARK    4  A    between atoms: C_6  and  C_8
REMARK    5  A    between atoms: N_13  and  C_14
REMARK                            x       y       z     vdW  Elec       q    Type
REMARK                         _______ _______ _______ _____ _____    ______ ____
ROOT
ATOM      1  O   UNL     1       1.294   4.385  19.492  0.00  0.00    +0.000 OA
ATOM      2  C   UNL     1       2.505   4.568  19.377  0.00  0.00    +0.000 C 
ATOM      3  N   UNL     1       3.125   5.804  19.240  0.00  0.00    +0.000 N 
ATOM      4  H   UNL     1       4.093   5.801  18.940  0.00  0.00    +0.000 HD
ENDROOT
BRANCH   3   5
ATOM      5  C   UNL     1       2.470   7.061  19.239  0.00  0.00    +0.000 A 
ATOM      6  C   UNL     1       1.890   7.623  20.382  0.00  0.00    +0.000 A 
ATOM      7  C   UNL     1       1.172   8.825  20.310  0.00  0.00    +0.000 A 
ATOM      8  C   UNL     1       1.054   9.483  19.090  0.00  0.00    +0.000 A 
ATOM      9 CL   UNL     1       0.127  10.931  18.987  0.00  0.00    +0.000 Cl
ATOM     10  C   UNL     1       1.682   8.977  17.957  0.00  0.00    +0.000 A 
ATOM     11  C   UNL     1       2.398   7.769  18.034  0.00  0.00    +0.000 A 
ENDBRANCH   3   5
BRANCH   2  12
ATOM     12  C   UNL     1       3.471   3.397  19.426  0.00  0.00    +0.000 C 
BRANCH  12  13
ATOM     13  C   UNL     1       4.919   3.849  19.261  0.00  0.00    +0.000 C 
BRANCH  13  14
ATOM     14  N   UNL     1       5.323   3.824  17.865  0.00  0.00    +0.000 N 
ATOM     15  C   UNL     1       5.886   4.917  17.235  0.00  0.00    +0.000 C 
ATOM     16  O   UNL     1       6.067   5.982  17.821  0.00  0.00    +0.000 OA
ATOM     17  H   UNL     1       5.291   2.955  17.343  0.00  0.00    +0.000 HD
BRANCH  15  18
ATOM     18  C   UNL     1       6.250   4.697  15.850  0.00  0.00    +0.000 A 
ATOM     19  C   UNL     1       5.743   3.826  14.903  0.00  0.00    +0.000 A 
ATOM     20  C   UNL     1       6.460   4.064  13.706  0.00  0.00    +0.000 A 
ATOM     21  C   UNL     1       7.370   5.051  13.997  0.00  0.00    +0.000 A 
ATOM     22  O   UNL     1       7.255   5.444  15.292  0.00  0.00    +0.000 OA
ENDBRANCH  15  18
ENDBRANCH  13  14
ENDBRANCH  12  13
ENDBRANCH   2  12
TORSDOF 5
ENDMDL
MODEL 9
REMARK VINA RESULT:      -6.8      3.534      5.077
REMARK  Name = 
REMARK  5 active torsions:
REMARK  status: ('A' for Active; 'I' for Inactive)
REMARK    1  A    between atoms: C_2  and  C_3
REMARK    2  A    between atoms: C_3  and  C_4
REMARK    3  A    between atoms: C_4  and  N_5
REMARK    4  A    between atoms: C_6  and  C_8
REMARK    5  A    between atoms: N_13  and  C_14
REMARK                            x       y       z     vdW  Elec       q    Type
REMARK                         _______ _______ _______ _____ _____    ______ ____
ROOT
ATOM      1  O   UNL     1       0.699   4.509  20.356  0.00  0.00    +0.000 OA
ATOM      2  C   UNL     1       1.921   4.580  20.482  0.00  0.00    +0.000 C 
ATOM      3  N   UNL     1       2.685   5.729  20.313  0.00  0.00    +0.000 N 
ATOM      4  H   UNL     1       3.688   5.606  20.234  0.00  0.00    +0.000 HD
ENDROOT
BRANCH   3   5
ATOM      5  C   UNL     1       2.183   7.016  19.994  0.00  0.00    +0.000 A 
ATOM      6  C   UNL     1       1.483   7.813  20.906  0.00  0.00    +0.000 A 
ATOM      7  C   UNL     1       0.925   9.037  20.515  0.00  0.00    +0.000 A 
ATOM      8  C   UNL     1       1.087   9.481  19.206  0.00  0.00    +0.000 A 
ATOM      9 CL   UNL     1       0.357  10.958  18.708  0.00  0.00    +0.000 Cl
ATOM     10  C   UNL     1       1.838   8.736  18.303  0.00  0.00    +0.000 A 
ATOM     11  C   UNL     1       2.394   7.506  18.699  0.00  0.00    +0.000 A 
ENDBRANCH   3   5
BRANCH   2  12
ATOM     12  C   UNL     1       2.726   3.363  20.905  0.00  0.00    +0.000 C 
BRANCH  12  13
ATOM     13  C   UNL     1       3.076   2.474  19.714  0.00  0.00    +0.000 C 
BRANCH  13  14
ATOM     14  N   UNL     1       3.926   3.175  18.765  0.00  0.00    +0.000 N 
ATOM     15  C   UNL     1       3.512   3.483  17.485  0.00  0.00    +0.000 C 
ATOM     16  O   UNL     1       2.398   3.170  17.069  0.00  0.00    +0.000 OA
ATOM     17  H   UNL     1       4.821   3.546  19.065  0.00  0.00    +0.000 HD
BRANCH  15  18
ATOM     18  C   UNL     1       4.485   4.207  16.692  0.00  0.00    +0.000 A 
ATOM     19  C   UNL     1       5.511   3.761  15.879  0.00  0.00    +0.000 A 
ATOM     20  C   UNL     1       6.122   4.911  15.325  0.00  0.00    +0.000 A 
ATOM     21  C   UNL     1       5.446   5.989  15.845  0.00  0.00    +0.000 A 
ATOM     22  O   UNL     1       4.452   5.577  16.673  0.00  0.00    +0.000 OA
ENDBRANCH  15  18
ENDBRANCH  13  14
ENDBRANCH  12  13
ENDBRANCH   2  12
TORSDOF 5
ENDMDL
