MODEL 1
REMARK VINA RESULT:      -7.9      0.000      0.000
REMARK  Name = 
REMARK  6 active torsions:
REMARK  status: ('A' for Active; 'I' for Inactive)
REMARK    1  A    between atoms: C_1  and  C_2
REMARK    2  A    between atoms: N_4  and  C_5
REMARK    3  A    between atoms: C_14  and  N_15
REMARK    4  A    between atoms: N_15  and  C_16
REMARK    5  A    between atoms: C_16  and  C_17
REMARK    6  A    between atoms: C_17  and  C_18
REMARK                            x       y       z     vdW  Elec       q    Type
REMARK                         _______ _______ _______ _____ _____    ______ ____
ROOT
ATOM      1  C   UNL     1       6.519   7.717  17.628  0.00  0.00    +0.000 C 
ATOM      2  C   UNL     1       5.749   6.528  17.100  0.00  0.00    +0.000 A 
ATOM      3  N   UNL     1       6.218   5.973  15.952  0.00  0.00    +0.000 NA
ATOM      4  N   UNL     1       5.522   4.885  15.694  0.00  0.00    +0.000 N 
ATOM      5  C   UNL     1       5.676   4.056  14.511  0.00  0.00    +0.000 C 
ATOM      6  C   UNL     1       4.636   4.700  16.669  0.00  0.00    +0.000 A 
ATOM      7  N   UNL     1       3.839   3.621  16.753  0.00  0.00    +0.000 NA
ATOM      8  C   UNL     1       2.953   3.507  17.757  0.00  0.00    +0.000 A 
ATOM      9  C   UNL     1       2.218   2.321  17.845  0.00  0.00    +0.000 A 
ATOM     10  C   UNL     1       1.246   2.164  18.822  0.00  0.00    +0.000 A 
ATOM     11  C   UNL     1       0.988   3.204  19.707  0.00  0.00    +0.000 A 
ATOM     12  C   UNL     1       1.729   4.390  19.651  0.00  0.00    +0.000 A 
ATOM     13  C   UNL     1       2.764   4.572  18.683  0.00  0.00    +0.000 A 
ATOM     14  C   UNL     1       3.619   5.754  18.598  0.00  0.00    +0.000 A 
ATOM     15  C   UNL     1       4.637   5.749  17.562  0.00  0.00    +0.000 A 
ENDROOT
BRANCH  14  16
ATOM     16  N   UNL     1       3.337   6.845  19.494  0.00  0.00    +0.000 N 
ATOM     17  H   UNL     1       3.949   6.990  20.293  0.00  0.00    +0.000 HD
BRANCH  16  18
ATOM     18  C   UNL     1       2.171   7.693  19.490  0.00  0.00    +0.000 C 
BRANCH  18  19
ATOM     19  C   UNL     1       1.531   7.700  20.899  0.00  0.00    +0.000 C 
BRANCH  19  20
ATOM     20  C   UNL     1       0.691   8.924  21.131  0.00  0.00    +0.000 A 
ATOM     21  C   UNL     1       0.350   9.777  20.067  0.00  0.00    +0.000 A 
ATOM     22  C   UNL     1      -0.441  10.901  20.321  0.00  0.00    +0.000 A 
ATOM     23  N   UNL     1      -0.873  11.161  21.586  0.00  0.00    +0.000 NA
ATOM     24  C   UNL     1      -0.559  10.346  22.627  0.00  0.00    +0.000 A 
ATOM     25  C   UNL     1       0.225   9.213  22.416  0.00  0.00    +0.000 A 
ENDBRANCH  19  20
ENDBRANCH  18  19
ENDBRANCH  16  18
ENDBRANCH  14  16
TORSDOF 4
ENDMDL
MODEL 2
REMARK VINA RESULT:      -7.9      1.627      1.895
REMARK  Name = 
REMARK  6 active torsions:
REMARK  status: ('A' for Active; 'I' for Inactive)
REMARK    1  A    between atoms: C_1  and  C_2
REMARK    2  A    between atoms: N_4  and  C_5
REMARK    3  A    between atoms: C_14  and  N_15
REMARK    4  A    between atoms: N_15  and  C_16
REMARK    5  A    between atoms: C_16  and  C_17
REMARK    6  A    between atoms: C_17  and  C_18
REMARK                            x       y       z     vdW  Elec       q    Type
REMARK                         _______ _______ _______ _____ _____    ______ ____
ROOT
ATOM      1  C   UNL     1       6.704   7.704  17.434  0.00  0.00    +0.000 C 
ATOM      2  C   UNL     1       5.981   6.473  16.937  0.00  0.00    +0.000 A 
ATOM      3  N   UNL     1       6.537   5.842  15.870  0.00  0.00    +0.000 NA
ATOM      4  N   UNL     1       5.867   4.732  15.640  0.00  0.00    +0.000 N 
ATOM      5  C   UNL     1       6.113   3.823  14.534  0.00  0.00    +0.000 C 
ATOM      6  C   UNL     1       4.911   4.608  16.558  0.00  0.00    +0.000 A 
ATOM      7  N   UNL     1       4.115   3.530  16.659  0.00  0.00    +0.000 NA
ATOM      8  C   UNL     1       3.157   3.479  17.600  0.00  0.00    +0.000 A 
ATOM      9  C   UNL     1       2.423   2.296  17.718  0.00  0.00    +0.000 A 
ATOM     10  C   UNL     1       1.382   2.199  18.629  0.00  0.00    +0.000 A 
ATOM     11  C   UNL     1       1.054   3.296  19.416  0.00  0.00    +0.000 A 
ATOM     12  C   UNL     1       1.791   4.482  19.330  0.00  0.00    +0.000 A 
ATOM     13  C   UNL     1       2.895   4.606  18.430  0.00  0.00    +0.000 A 
ATOM     14  C   UNL     1       3.749   5.786  18.325  0.00  0.00    +0.000 A 
ATOM     15  C   UNL     1       4.841   5.718  17.371  0.00  0.00    +0.000 A 
ENDROOT
BRANCH  14  16
ATOM     16  N   UNL     1       3.395   6.936  19.117  0.00  0.00    +0.000 N 
ATOM     17  H   UNL     1       3.989   7.187  19.904  0.00  0.00    +0.000 HD
BRANCH  16  18
ATOM     18  C   UNL     1       2.183   7.712  19.030  0.00  0.00    +0.000 C 
BRANCH  18  19
ATOM     19  C   UNL     1       2.306   8.734  17.875  0.00  0.00    +0.000 C 
BRANCH  19  20
ATOM     20  C   UNL     1       1.577  10.014  18.175  0.00  0.00    +0.000 A 
ATOM     21  C   UNL     1       2.262  11.241  18.217  0.00  0.00    +0.000 A 
ATOM     22  C   UNL     1       1.547  12.411  18.490  0.00  0.00    +0.000 A 
ATOM     23  N   UNL     1       0.205  12.356  18.712  0.00  0.00    +0.000 NA
ATOM     24  C   UNL     1      -0.476  11.181  18.669  0.00  0.00    +0.000 A 
ATOM     25  C   UNL     1       0.198   9.992  18.397  0.00  0.00    +0.000 A 
ENDBRANCH  19  20
ENDBRANCH  18  19
ENDBRANCH  16  18
ENDBRANCH  14  16
TORSDOF 4
ENDMDL
MODEL 3
REMARK VINA RESULT:      -7.9      1.905      4.205
REMARK  Name = 
REMARK  6 active torsions:
REMARK  status: ('A' for Active; 'I' for Inactive)
REMARK    1  A    between atoms: C_1  and  C_2
REMARK    2  A    between atoms: N_4  and  C_5
REMARK    3  A    between atoms: C_14  and  N_15
REMARK    4  A    between atoms: N_15  and  C_16
REMARK    5  A    between atoms: C_16  and  C_17
REMARK    6  A    between atoms: C_17  and  C_18
REMARK                            x       y       z     vdW  Elec       q    Type
REMARK                         _______ _______ _______ _____ _____    ______ ____
ROOT
ATOM      1  C   UNL     1       0.792   3.863  20.442  0.00  0.00    +0.000 C 
ATOM      2  C   UNL     1       2.277   3.670  20.236  0.00  0.00    +0.000 A 
ATOM      3  N   UNL     1       2.805   2.520  20.730  0.00  0.00    +0.000 NA
ATOM      4  N   UNL     1       4.069   2.444  20.365  0.00  0.00    +0.000 N 
ATOM      5  C   UNL     1       4.992   1.396  20.764  0.00  0.00    +0.000 C 
ATOM      6  C   UNL     1       4.363   3.501  19.612  0.00  0.00    +0.000 A 
ATOM      7  N   UNL     1       5.547   3.669  18.999  0.00  0.00    +0.000 NA
ATOM      8  C   UNL     1       5.783   4.771  18.266  0.00  0.00    +0.000 A 
ATOM      9  C   UNL     1       6.996   4.847  17.577  0.00  0.00    +0.000 A 
ATOM     10  C   UNL     1       7.325   5.982  16.851  0.00  0.00    +0.000 A 
ATOM     11  C   UNL     1       6.449   7.061  16.828  0.00  0.00    +0.000 A 
ATOM     12  C   UNL     1       5.220   6.996  17.492  0.00  0.00    +0.000 A 
ATOM     13  C   UNL     1       4.829   5.828  18.218  0.00  0.00    +0.000 A 
ATOM     14  C   UNL     1       3.541   5.660  18.886  0.00  0.00    +0.000 A 
ATOM     15  C   UNL     1       3.313   4.390  19.553  0.00  0.00    +0.000 A 
ENDROOT
BRANCH  14  16
ATOM     16  N   UNL     1       2.641   6.785  18.889  0.00  0.00    +0.000 N 
ATOM     17  H   UNL     1       2.516   7.311  18.028  0.00  0.00    +0.000 HD
BRANCH  16  18
ATOM     18  C   UNL     1       1.993   7.375  20.034  0.00  0.00    +0.000 C 
BRANCH  18  19
ATOM     19  C   UNL     1       1.466   8.782  19.661  0.00  0.00    +0.000 C 
BRANCH  19  20
ATOM     20  C   UNL     1       0.823   9.472  20.831  0.00  0.00    +0.000 A 
ATOM     21  C   UNL     1       0.197  10.721  20.677  0.00  0.00    +0.000 A 
ATOM     22  C   UNL     1      -0.398  11.327  21.787  0.00  0.00    +0.000 A 
ATOM     23  N   UNL     1      -0.368  10.709  23.000  0.00  0.00    +0.000 NA
ATOM     24  C   UNL     1       0.225   9.499  23.169  0.00  0.00    +0.000 A 
ATOM     25  C   UNL     1       0.827   8.859  22.086  0.00  0.00    +0.000 A 
ENDBRANCH  19  20
ENDBRANCH  18  19
ENDBRANCH  16  18
ENDBRANCH  14  16
TORSDOF 4
ENDMDL
MODEL 4
REMARK VINA RESULT:      -7.8      0.820      1.058
REMARK  Name = 
REMARK  6 active torsions:
REMARK  status: ('A' for Active; 'I' for Inactive)
REMARK    1  A    between atoms: C_1  and  C_2
REMARK    2  A    between atoms: N_4  and  C_5
REMARK    3  A    between atoms: C_14  and  N_15
REMARK    4  A    between atoms: N_15  and  C_16
REMARK    5  A    between atoms: C_16  and  C_17
REMARK    6  A    between atoms: C_17  and  C_18
REMARK                            x       y       z     vdW  Elec       q    Type
REMARK                         _______ _______ _______ _____ _____    ______ ____
ROOT
ATOM      1  C   UNL     1       6.581   7.903  17.267  0.00  0.00    +0.000 C 
ATOM      2  C   UNL     1       5.932   6.614  16.818  0.00  0.00    +0.000 A 
ATOM      3  N   UNL     1       6.584   5.924  15.846  0.00  0.00    +0.000 NA
ATOM      4  N   UNL     1       5.964   4.777  15.655  0.00  0.00    +0.000 N 
ATOM      5  C   UNL     1       6.317   3.795  14.644  0.00  0.00    +0.000 C 
ATOM      6  C   UNL     1       4.948   4.690  16.510  0.00  0.00    +0.000 A 
ATOM      7  N   UNL     1       4.178   3.596  16.638  0.00  0.00    +0.000 NA
ATOM      8  C   UNL     1       3.155   3.583  17.510  0.00  0.00    +0.000 A 
ATOM      9  C   UNL     1       2.449   2.388  17.668  0.00  0.00    +0.000 A 
ATOM     10  C   UNL     1       1.346   2.325  18.507  0.00  0.00    +0.000 A 
ATOM     11  C   UNL     1       0.930   3.467  19.180  0.00  0.00    +0.000 A 
ATOM     12  C   UNL     1       1.637   4.667  19.055  0.00  0.00    +0.000 A 
ATOM     13  C   UNL     1       2.800   4.760  18.229  0.00  0.00    +0.000 A 
ATOM     14  C   UNL     1       3.625   5.958  18.093  0.00  0.00    +0.000 A 
ATOM     15  C   UNL     1       4.786   5.855  17.227  0.00  0.00    +0.000 A 
ENDROOT
BRANCH  14  16
ATOM     16  N   UNL     1       3.181   7.152  18.766  0.00  0.00    +0.000 N 
ATOM     17  H   UNL     1       3.054   7.124  19.774  0.00  0.00    +0.000 HD
BRANCH  16  18
ATOM     18  C   UNL     1       2.732   8.378  18.154  0.00  0.00    +0.000 C 
BRANCH  18  19
ATOM     19  C   UNL     1       1.227   8.582  18.451  0.00  0.00    +0.000 C 
BRANCH  19  20
ATOM     20  C   UNL     1       1.003   9.361  19.717  0.00  0.00    +0.000 A 
ATOM     21  C   UNL     1       0.901  10.763  19.692  0.00  0.00    +0.000 A 
ATOM     22  C   UNL     1       0.683  11.451  20.889  0.00  0.00    +0.000 A 
ATOM     23  N   UNL     1       0.572  10.767  22.061  0.00  0.00    +0.000 NA
ATOM     24  C   UNL     1       0.661   9.412  22.105  0.00  0.00    +0.000 A 
ATOM     25  C   UNL     1       0.875   8.687  20.933  0.00  0.00    +0.000 A 
ENDBRANCH  19  20
ENDBRANCH  18  19
ENDBRANCH  16  18
ENDBRANCH  14  16
TORSDOF 4
ENDMDL
MODEL 5
REMARK VINA RESULT:      -7.8      2.602      5.428
REMARK  Name = 
REMARK  6 active torsions:
REMARK  status: ('A' for Active; 'I' for Inactive)
REMARK    1  A    between atoms: C_1  and  C_2
REMARK    2  A    between atoms: N_4  and  C_5
REMARK    3  A    between atoms: C_14  and  N_15
REMARK    4  A    between atoms: N_15  and  C_16
REMARK    5  A    between atoms: C_16  and  C_17
REMARK    6  A    between atoms: C_17  and  C_18
REMARK                            x       y       z     vdW  Elec       q    Type
REMARK                         _______ _______ _______ _____ _____    ______ ____
ROOT
ATOM      1  C   UNL     1       5.499   4.143  19.796  0.00  0.00    +0.000 C 
ATOM      2  C   UNL     1       6.056   4.927  18.630  0.00  0.00    +0.000 A 
ATOM      3  N   UNL     1       6.748   6.054  18.942  0.00  0.00    +0.000 NA
ATOM      4  N   UNL     1       7.268   6.550  17.838  0.00  0.00    +0.000 N 
ATOM      5  C   UNL     1       8.014   7.794  17.752  0.00  0.00    +0.000 C 
ATOM      6  C   UNL     1       6.961   5.748  16.821  0.00  0.00    +0.000 A 
ATOM      7  N   UNL     1       7.428   5.923  15.573  0.00  0.00    +0.000 NA
ATOM      8  C   UNL     1       7.063   5.084  14.588  0.00  0.00    +0.000 A 
ATOM      9  C   UNL     1       7.652   5.259  13.333  0.00  0.00    +0.000 A 
ATOM     10  C   UNL     1       7.276   4.465  12.260  0.00  0.00    +0.000 A 
ATOM     11  C   UNL     1       6.289   3.502  12.431  0.00  0.00    +0.000 A 
ATOM     12  C   UNL     1       5.703   3.295  13.685  0.00  0.00    +0.000 A 
ATOM     13  C   UNL     1       6.093   4.068  14.822  0.00  0.00    +0.000 A 
ATOM     14  C   UNL     1       5.574   3.873  16.173  0.00  0.00    +0.000 A 
ATOM     15  C   UNL     1       6.110   4.738  17.209  0.00  0.00    +0.000 A 
ENDROOT
BRANCH  14  16
ATOM     16  N   UNL     1       4.530   2.896  16.351  0.00  0.00    +0.000 N 
ATOM     17  H   UNL     1       4.373   2.212  15.615  0.00  0.00    +0.000 HD
BRANCH  16  18
ATOM     18  C   UNL     1       3.546   2.857  17.404  0.00  0.00    +0.000 C 
BRANCH  18  19
ATOM     19  C   UNL     1       2.470   3.939  17.145  0.00  0.00    +0.000 C 
BRANCH  19  20
ATOM     20  C   UNL     1       2.276   4.838  18.335  0.00  0.00    +0.000 A 
ATOM     21  C   UNL     1       2.598   6.204  18.266  0.00  0.00    +0.000 A 
ATOM     22  C   UNL     1       2.396   7.010  19.390  0.00  0.00    +0.000 A 
ATOM     23  N   UNL     1       1.892   6.471  20.534  0.00  0.00    +0.000 NA
ATOM     24  C   UNL     1       1.568   5.154  20.619  0.00  0.00    +0.000 A 
ATOM     25  C   UNL     1       1.752   4.317  19.519  0.00  0.00    +0.000 A 
ENDBRANCH  19  20
ENDBRANCH  18  19
ENDBRANCH  16  18
ENDBRANCH  14  16
TORSDOF 4
ENDMDL
MODEL 6
REMARK VINA RESULT:      -7.7      1.832      4.339
REMARK  Name = 
REMARK  6 active torsions:
REMARK  status: ('A' for Active; 'I' for Inactive)
REMARK    1  A    between atoms: C_1  and  C_2
REMARK    2  A    between atoms: N_4  and  C_5
REMARK    3  A    between atoms: C_14  and  N_15
REMARK    4  A    between atoms: N_15  and  C_16
REMARK    5  A    between atoms: C_16  and  C_17
REMARK    6  A    between atoms: C_17  and  C_18
REMARK                            x       y       z     vdW  Elec       q    Type
REMARK                         _______ _______ _______ _____ _____    ______ ____
ROOT
ATOM      1  C   UNL     1       0.786   3.270  18.833  0.00  0.00    +0.000 C 
ATOM      2  C   UNL     1       2.255   3.340  19.184  0.00  0.00    +0.000 A 
ATOM      3  N   UNL     1       2.748   2.300  19.905  0.00  0.00    +0.000 NA
ATOM      4  N   UNL     1       4.052   2.447  20.022  0.00  0.00    +0.000 N 
ATOM      5  C   UNL     1       4.926   1.576  20.789  0.00  0.00    +0.000 C 
ATOM      6  C   UNL     1       4.422   3.540  19.358  0.00  0.00    +0.000 A 
ATOM      7  N   UNL     1       5.703   3.913  19.200  0.00  0.00    +0.000 NA
ATOM      8  C   UNL     1       6.005   5.040  18.532  0.00  0.00    +0.000 A 
ATOM      9  C   UNL     1       7.355   5.328  18.318  0.00  0.00    +0.000 A 
ATOM     10  C   UNL     1       7.735   6.504  17.689  0.00  0.00    +0.000 A 
ATOM     11  C   UNL     1       6.763   7.412  17.286  0.00  0.00    +0.000 A 
ATOM     12  C   UNL     1       5.405   7.132  17.469  0.00  0.00    +0.000 A 
ATOM     13  C   UNL     1       4.975   5.914  18.080  0.00  0.00    +0.000 A 
ATOM     14  C   UNL     1       3.578   5.522  18.253  0.00  0.00    +0.000 A 
ATOM     15  C   UNL     1       3.335   4.231  18.872  0.00  0.00    +0.000 A 
ENDROOT
BRANCH  14  16
ATOM     16  N   UNL     1       2.568   6.472  17.863  0.00  0.00    +0.000 N 
ATOM     17  H   UNL     1       2.089   6.338  16.976  0.00  0.00    +0.000 HD
BRANCH  16  18
ATOM     18  C   UNL     1       2.245   7.715  18.519  0.00  0.00    +0.000 C 
BRANCH  18  19
ATOM     19  C   UNL     1       1.955   7.448  20.016  0.00  0.00    +0.000 C 
BRANCH  19  20
ATOM     20  C   UNL     1       1.299   8.626  20.682  0.00  0.00    +0.000 A 
ATOM     21  C   UNL     1       1.034   8.618  22.062  0.00  0.00    +0.000 A 
ATOM     22  C   UNL     1       0.431   9.735  22.647  0.00  0.00    +0.000 A 
ATOM     23  N   UNL     1       0.108  10.815  21.883  0.00  0.00    +0.000 NA
ATOM     24  C   UNL     1       0.363  10.845  20.549  0.00  0.00    +0.000 A 
ATOM     25  C   UNL     1       0.966   9.752  19.927  0.00  0.00    +0.000 A 
ENDBRANCH  19  20
ENDBRANCH  18  19
ENDBRANCH  16  18
ENDBRANCH  14  16
TORSDOF 4
ENDMDL
MODEL 7
REMARK VINA RESULT:      -7.7      1.972      4.340
REMARK  Name = 
REMARK  6 active torsions:
REMARK  status: ('A' for Active; 'I' for Inactive)
REMARK    1  A    between atoms: C_1  and  C_2
REMARK    2  A    between atoms: N_4  and  C_5
REMARK    3  A    between atoms: C_14  and  N_15
REMARK    4  A    between atoms: N_15  and  C_16
REMARK    5  A    between atoms: C_16  and  C_17
REMARK    6  A    between atoms: C_17  and  C_18
REMARK                            x       y       z     vdW  Elec       q    Type
REMARK                         _______ _______ _______ _____ _____    ______ ____
ROOT
ATOM      1  C   UNL     1       0.671   3.458  19.755  0.00  0.00    +0.000 C 
ATOM      2  C   UNL     1       2.181   3.428  19.812  0.00  0.00    +0.000 A 
ATOM      3  N   UNL     1       2.735   2.367  20.454  0.00  0.00    +0.000 NA
ATOM      4  N   UNL     1       4.044   2.422  20.310  0.00  0.00    +0.000 N 
ATOM      5  C   UNL     1       4.990   1.503  20.918  0.00  0.00    +0.000 C 
ATOM      6  C   UNL     1       4.349   3.474  19.554  0.00  0.00    +0.000 A 
ATOM      7  N   UNL     1       5.596   3.751  19.137  0.00  0.00    +0.000 NA
ATOM      8  C   UNL     1       5.837   4.841  18.389  0.00  0.00    +0.000 A 
ATOM      9  C   UNL     1       7.135   5.027  17.908  0.00  0.00    +0.000 A 
ATOM     10  C   UNL     1       7.462   6.162  17.181  0.00  0.00    +0.000 A 
ATOM     11  C   UNL     1       6.494   7.131  16.947  0.00  0.00    +0.000 A 
ATOM     12  C   UNL     1       5.183   6.953  17.400  0.00  0.00    +0.000 A 
ATOM     13  C   UNL     1       4.799   5.779  18.120  0.00  0.00    +0.000 A 
ATOM     14  C   UNL     1       3.440   5.493  18.574  0.00  0.00    +0.000 A 
ATOM     15  C   UNL     1       3.237   4.234  19.268  0.00  0.00    +0.000 A 
ENDROOT
BRANCH  14  16
ATOM     16  N   UNL     1       2.440   6.507  18.360  0.00  0.00    +0.000 N 
ATOM     17  H   UNL     1       1.907   6.491  17.494  0.00  0.00    +0.000 HD
BRANCH  16  18
ATOM     18  C   UNL     1       2.195   7.671  19.175  0.00  0.00    +0.000 C 
BRANCH  18  19
ATOM     19  C   UNL     1       1.770   8.854  18.272  0.00  0.00    +0.000 C 
BRANCH  19  20
ATOM     20  C   UNL     1       0.722   9.712  18.923  0.00  0.00    +0.000 A 
ATOM     21  C   UNL     1      -0.355  10.225  18.179  0.00  0.00    +0.000 A 
ATOM     22  C   UNL     1      -1.315  11.011  18.822  0.00  0.00    +0.000 A 
ATOM     23  N   UNL     1      -1.203  11.274  20.153  0.00  0.00    +0.000 NA
ATOM     24  C   UNL     1      -0.173  10.782  20.892  0.00  0.00    +0.000 A 
ATOM     25  C   UNL     1       0.804   9.990  20.289  0.00  0.00    +0.000 A 
ENDBRANCH  19  20
ENDBRANCH  18  19
ENDBRANCH  16  18
ENDBRANCH  14  16
TORSDOF 4
ENDMDL
MODEL 8
REMARK VINA RESULT:      -7.7      3.343      5.898
REMARK  Name = 
REMARK  6 active torsions:
REMARK  status: ('A' for Active; 'I' for Inactive)
REMARK    1  A    between atoms: C_1  and  C_2
REMARK    2  A    between atoms: N_4  and  C_5
REMARK    3  A    between atoms: C_14  and  N_15
REMARK    4  A    between atoms: N_15  and  C_16
REMARK    5  A    between atoms: C_16  and  C_17
REMARK    6  A    between atoms: C_17  and  C_18
REMARK                            x       y       z     vdW  Elec       q    Type
REMARK                         _______ _______ _______ _____ _____    ______ ____
ROOT
ATOM      1  C   UNL     1       5.320   4.248  19.765  0.00  0.00    +0.000 C 
ATOM      2  C   UNL     1       5.951   4.988  18.608  0.00  0.00    +0.000 A 
ATOM      3  N   UNL     1       6.720   6.060  18.932  0.00  0.00    +0.000 NA
ATOM      4  N   UNL     1       7.292   6.516  17.836  0.00  0.00    +0.000 N 
ATOM      5  C   UNL     1       8.130   7.701  17.762  0.00  0.00    +0.000 C 
ATOM      6  C   UNL     1       6.941   5.740  16.814  0.00  0.00    +0.000 A 
ATOM      7  N   UNL     1       7.437   5.879  15.573  0.00  0.00    +0.000 NA
ATOM      8  C   UNL     1       7.026   5.071  14.581  0.00  0.00    +0.000 A 
ATOM      9  C   UNL     1       7.644   5.201  13.335  0.00  0.00    +0.000 A 
ATOM     10  C   UNL     1       7.225   4.438  12.256  0.00  0.00    +0.000 A 
ATOM     11  C   UNL     1       6.167   3.551  12.411  0.00  0.00    +0.000 A 
ATOM     12  C   UNL     1       5.549   3.388  13.656  0.00  0.00    +0.000 A 
ATOM     13  C   UNL     1       5.979   4.130  14.800  0.00  0.00    +0.000 A 
ATOM     14  C   UNL     1       5.427   3.974  16.144  0.00  0.00    +0.000 A 
ATOM     15  C   UNL     1       6.011   4.796  17.188  0.00  0.00    +0.000 A 
ENDROOT
BRANCH  14  16
ATOM     16  N   UNL     1       4.311   3.077  16.304  0.00  0.00    +0.000 N 
ATOM     17  H   UNL     1       4.431   2.099  16.053  0.00  0.00    +0.000 HD
BRANCH  16  18
ATOM     18  C   UNL     1       2.954   3.431  16.642  0.00  0.00    +0.000 C 
BRANCH  18  19
ATOM     19  C   UNL     1       2.377   2.386  17.626  0.00  0.00    +0.000 C 
BRANCH  19  20
ATOM     20  C   UNL     1       2.157   2.963  18.997  0.00  0.00    +0.000 A 
ATOM     21  C   UNL     1       1.773   4.305  19.160  0.00  0.00    +0.000 A 
ATOM     22  C   UNL     1       1.569   4.804  20.450  0.00  0.00    +0.000 A 
ATOM     23  N   UNL     1       1.742   3.994  21.531  0.00  0.00    +0.000 NA
ATOM     24  C   UNL     1       2.107   2.692  21.393  0.00  0.00    +0.000 A 
ATOM     25  C   UNL     1       2.317   2.155  20.124  0.00  0.00    +0.000 A 
ENDBRANCH  19  20
ENDBRANCH  18  19
ENDBRANCH  16  18
ENDBRANCH  14  16
TORSDOF 4
ENDMDL
MODEL 9
REMARK VINA RESULT:      -7.5      2.503      7.141
REMARK  Name = 
REMARK  6 active torsions:
REMARK  status: ('A' for Active; 'I' for Inactive)
REMARK    1  A    between atoms: C_1  and  C_2
REMARK    2  A    between atoms: N_4  and  C_5
REMARK    3  A    between atoms: C_14  and  N_15
REMARK    4  A    between atoms: N_15  and  C_16
REMARK    5  A    between atoms: C_16  and  C_17
REMARK    6  A    between atoms: C_17  and  C_18
REMARK                            x       y       z     vdW  Elec       q    Type
REMARK                         _______ _______ _______ _____ _____    ______ ____
ROOT
ATOM      1  C   UNL     1       4.892   7.132  15.935  0.00  0.00    +0.000 C 
ATOM      2  C   UNL     1       4.074   7.015  17.201  0.00  0.00    +0.000 A 
ATOM      3  N   UNL     1       3.268   8.069  17.492  0.00  0.00    +0.000 NA
ATOM      4  N   UNL     1       2.538   7.764  18.545  0.00  0.00    +0.000 N 
ATOM      5  C   UNL     1       1.608   8.664  19.206  0.00  0.00    +0.000 C 
ATOM      6  C   UNL     1       2.824   6.519  18.920  0.00  0.00    +0.000 A 
ATOM      7  N   UNL     1       2.175   5.874  19.905  0.00  0.00    +0.000 NA
ATOM      8  C   UNL     1       2.528   4.622  20.245  0.00  0.00    +0.000 A 
ATOM      9  C   UNL     1       1.758   3.969  21.210  0.00  0.00    +0.000 A 
ATOM     10  C   UNL     1       2.104   2.699  21.648  0.00  0.00    +0.000 A 
ATOM     11  C   UNL     1       3.239   2.082  21.135  0.00  0.00    +0.000 A 
ATOM     12  C   UNL     1       4.010   2.709  20.151  0.00  0.00    +0.000 A 
ATOM     13  C   UNL     1       3.662   4.001  19.648  0.00  0.00    +0.000 A 
ATOM     14  C   UNL     1       4.380   4.695  18.582  0.00  0.00    +0.000 A 
ATOM     15  C   UNL     1       3.862   5.993  18.185  0.00  0.00    +0.000 A 
ENDROOT
BRANCH  14  16
ATOM     16  N   UNL     1       5.573   4.073  18.068  0.00  0.00    +0.000 N 
ATOM     17  H   UNL     1       6.074   3.416  18.660  0.00  0.00    +0.000 HD
BRANCH  16  18
ATOM     18  C   UNL     1       6.255   4.388  16.837  0.00  0.00    +0.000 C 
BRANCH  18  19
ATOM     19  C   UNL     1       5.473   3.790  15.644  0.00  0.00    +0.000 C 
BRANCH  19  20
ATOM     20  C   UNL     1       6.164   4.043  14.333  0.00  0.00    +0.000 A 
ATOM     21  C   UNL     1       7.198   4.990  14.234  0.00  0.00    +0.000 A 
ATOM     22  C   UNL     1       7.823   5.190  13.000  0.00  0.00    +0.000 A 
ATOM     23  N   UNL     1       7.430   4.474  11.911  0.00  0.00    +0.000 NA
ATOM     24  C   UNL     1       6.437   3.549  11.987  0.00  0.00    +0.000 A 
ATOM     25  C   UNL     1       5.791   3.316  13.200  0.00  0.00    +0.000 A 
ENDBRANCH  19  20
ENDBRANCH  18  19
ENDBRANCH  16  18
ENDBRANCH  14  16
TORSDOF 4
ENDMDL
