MODEL 1
REMARK VINA RESULT:      -9.0      0.000      0.000
REMARK  Name = 
REMARK  7 active torsions:
REMARK  status: ('A' for Active; 'I' for Inactive)
REMARK    1  A    between atoms: C_1  and  C_2
REMARK    2  A    between atoms: C_6  and  C_7
REMARK    3  A    between atoms: C_7  and  N_8
REMARK    4  A    between atoms: N_8  and  S_9
REMARK    5  A    between atoms: S_9  and  C_12
REMARK    6  A    between atoms: C_15  and  C_16
REMARK    7  A    between atoms: C_20  and  C_21
REMARK                            x       y       z     vdW  Elec       q    Type
REMARK                         _______ _______ _______ _____ _____    ______ ____
ROOT
ATOM      1  C   UNL     1       0.884   9.983  19.918  0.00  0.00    +0.000 A 
ATOM      2  C   UNL     1       1.119  10.083  18.540  0.00  0.00    +0.000 A 
ATOM      3  C   UNL     1       1.789   9.044  17.868  0.00  0.00    +0.000 A 
ATOM      4  C   UNL     1       2.209   7.911  18.575  0.00  0.00    +0.000 A 
ATOM      5  C   UNL     1       1.930   7.822  19.947  0.00  0.00    +0.000 A 
ATOM      6  C   UNL     1       1.302   8.857  20.619  0.00  0.00    +0.000 A 
ENDROOT
BRANCH   4   7
ATOM      7  C   UNL     1       3.086   6.877  18.045  0.00  0.00    +0.000 A 
ATOM      8  N   UNL     1       4.269   7.169  17.540  0.00  0.00    +0.000 NA
ATOM      9  C   UNL     1       4.744   6.020  17.004  0.00  0.00    +0.000 A 
ATOM     10  C   UNL     1       5.808   5.857  16.124  0.00  0.00    +0.000 A 
ATOM     11  C   UNL     1       6.003   4.586  15.579  0.00  0.00    +0.000 A 
ATOM     12  C   UNL     1       5.343   3.471  16.126  0.00  0.00    +0.000 A 
ATOM     13  C   UNL     1       4.294   3.626  17.048  0.00  0.00    +0.000 A 
ATOM     14  C   UNL     1       3.951   4.940  17.364  0.00  0.00    +0.000 A 
ATOM     15  N   UNL     1       2.845   5.527  17.941  0.00  0.00    +0.000 N 
ATOM     16  H   UNL     1       1.970   5.066  18.140  0.00  0.00    +0.000 HD
BRANCH  11  17
ATOM     17  C   UNL     1       6.740   4.551  14.285  0.00  0.00    +0.000 C 
ATOM     18  N   UNL     1       6.343   3.669  13.325  0.00  0.00    +0.000 N 
ATOM     19  O   UNL     1       7.626   5.360  14.032  0.00  0.00    +0.000 OA
ATOM     20  H   UNL     1       5.593   3.005  13.416  0.00  0.00    +0.000 HD
ATOM     21  H   UNL     1       6.757   3.802  12.411  0.00  0.00    +0.000 HD
ENDBRANCH  11  17
ENDBRANCH   4   7
BRANCH   1  22
ATOM     22  S   UNL     1       0.169  11.328  20.831  0.00  0.00    +0.000 S 
ATOM     23  O   UNL     1       1.251  12.054  21.460  0.00  0.00    +0.000 OA
ATOM     24  O   UNL     1      -0.945  10.810  21.591  0.00  0.00    +0.000 OA
BRANCH  22  25
ATOM     25  N   UNL     1      -0.422  12.361  19.637  0.00  0.00    +0.000 NA
ATOM     26  H   UNL     1       0.223  13.137  19.490  0.00  0.00    +0.000 HD
BRANCH  25  27
ATOM     27  C   UNL     1      -1.843  12.727  19.705  0.00  0.00    +0.000 C 
BRANCH  27  33
ATOM     28  C   UNL     1      -6.366  11.090  18.095  0.00  0.00    +0.000 C 
ATOM     29  C   UNL     1      -4.890  11.255  17.885  0.00  0.00    +0.000 A 
ATOM     30  C   UNL     1      -4.284  10.794  16.710  0.00  0.00    +0.000 A 
ATOM     31  C   UNL     1      -2.913  10.956  16.520  0.00  0.00    +0.000 A 
ATOM     32  C   UNL     1      -2.138  11.566  17.499  0.00  0.00    +0.000 A 
ATOM     33  C   UNL     1      -2.716  12.017  18.697  0.00  0.00    +0.000 A 
ATOM     34  C   UNL     1      -4.102  11.874  18.867  0.00  0.00    +0.000 A 
ENDBRANCH  27  33
ENDBRANCH  25  27
ENDBRANCH  22  25
ENDBRANCH   1  22
TORSDOF 6
ENDMDL
MODEL 2
REMARK VINA RESULT:      -9.0      0.607      1.333
REMARK  Name = 
REMARK  7 active torsions:
REMARK  status: ('A' for Active; 'I' for Inactive)
REMARK    1  A    between atoms: C_1  and  C_2
REMARK    2  A    between atoms: C_6  and  C_7
REMARK    3  A    between atoms: C_7  and  N_8
REMARK    4  A    between atoms: N_8  and  S_9
REMARK    5  A    between atoms: S_9  and  C_12
REMARK    6  A    between atoms: C_15  and  C_16
REMARK    7  A    between atoms: C_20  and  C_21
REMARK                            x       y       z     vdW  Elec       q    Type
REMARK                         _______ _______ _______ _____ _____    ______ ____
ROOT
ATOM      1  C   UNL     1       0.915   9.868  20.156  0.00  0.00    +0.000 A 
ATOM      2  C   UNL     1       1.198  10.051  18.795  0.00  0.00    +0.000 A 
ATOM      3  C   UNL     1       1.861   9.038  18.078  0.00  0.00    +0.000 A 
ATOM      4  C   UNL     1       2.225   7.849  18.721  0.00  0.00    +0.000 A 
ATOM      5  C   UNL     1       1.898   7.679  20.075  0.00  0.00    +0.000 A 
ATOM      6  C   UNL     1       1.277   8.687  20.794  0.00  0.00    +0.000 A 
ENDROOT
BRANCH   4   7
ATOM      7  C   UNL     1       3.090   6.826  18.152  0.00  0.00    +0.000 A 
ATOM      8  N   UNL     1       4.278   7.122  17.662  0.00  0.00    +0.000 NA
ATOM      9  C   UNL     1       4.739   5.990  17.082  0.00  0.00    +0.000 A 
ATOM     10  C   UNL     1       5.804   5.848  16.198  0.00  0.00    +0.000 A 
ATOM     11  C   UNL     1       5.984   4.597  15.602  0.00  0.00    +0.000 A 
ATOM     12  C   UNL     1       5.307   3.470  16.102  0.00  0.00    +0.000 A 
ATOM     13  C   UNL     1       4.257   3.601  17.027  0.00  0.00    +0.000 A 
ATOM     14  C   UNL     1       3.931   4.907  17.395  0.00  0.00    +0.000 A 
ATOM     15  N   UNL     1       2.831   5.484  17.992  0.00  0.00    +0.000 N 
ATOM     16  H   UNL     1       1.949   5.028  18.171  0.00  0.00    +0.000 HD
BRANCH  11  17
ATOM     17  C   UNL     1       6.723   4.605  14.310  0.00  0.00    +0.000 C 
ATOM     18  N   UNL     1       6.372   3.709  13.345  0.00  0.00    +0.000 N 
ATOM     19  O   UNL     1       7.569   5.459  14.063  0.00  0.00    +0.000 OA
ATOM     20  H   UNL     1       5.657   3.008  13.432  0.00  0.00    +0.000 HD
ATOM     21  H   UNL     1       6.782   3.866  12.433  0.00  0.00    +0.000 HD
ENDBRANCH  11  17
ENDBRANCH   4   7
BRANCH   1  22
ATOM     22  S   UNL     1       0.208  11.172  21.133  0.00  0.00    +0.000 S 
ATOM     23  O   UNL     1       0.707  12.427  20.616  0.00  0.00    +0.000 OA
ATOM     24  O   UNL     1       0.345  10.813  22.525  0.00  0.00    +0.000 OA
BRANCH  22  25
ATOM     25  N   UNL     1      -1.428  11.144  20.725  0.00  0.00    +0.000 NA
ATOM     26  H   UNL     1      -1.681  10.234  20.342  0.00  0.00    +0.000 HD
BRANCH  25  27
ATOM     27  C   UNL     1      -1.960  12.304  19.997  0.00  0.00    +0.000 C 
BRANCH  27  33
ATOM     28  C   UNL     1      -2.745  10.476  15.332  0.00  0.00    +0.000 C 
ATOM     29  C   UNL     1      -3.276  11.035  16.618  0.00  0.00    +0.000 A 
ATOM     30  C   UNL     1      -4.654  11.198  16.806  0.00  0.00    +0.000 A 
ATOM     31  C   UNL     1      -5.140  11.713  18.006  0.00  0.00    +0.000 A 
ATOM     32  C   UNL     1      -4.261  12.079  19.018  0.00  0.00    +0.000 A 
ATOM     33  C   UNL     1      -2.873  11.949  18.847  0.00  0.00    +0.000 A 
ATOM     34  C   UNL     1      -2.395  11.403  17.645  0.00  0.00    +0.000 A 
ENDBRANCH  27  33
ENDBRANCH  25  27
ENDBRANCH  22  25
ENDBRANCH   1  22
TORSDOF 6
ENDMDL
MODEL 3
REMARK VINA RESULT:      -8.8      5.763      9.096
REMARK  Name = 
REMARK  7 active torsions:
REMARK  status: ('A' for Active; 'I' for Inactive)
REMARK    1  A    between atoms: C_1  and  C_2
REMARK    2  A    between atoms: C_6  and  C_7
REMARK    3  A    between atoms: C_7  and  N_8
REMARK    4  A    between atoms: N_8  and  S_9
REMARK    5  A    between atoms: S_9  and  C_12
REMARK    6  A    between atoms: C_15  and  C_16
REMARK    7  A    between atoms: C_20  and  C_21
REMARK                            x       y       z     vdW  Elec       q    Type
REMARK                         _______ _______ _______ _____ _____    ______ ____
ROOT
ATOM      1  C   UNL     1       6.447   5.629  17.046  0.00  0.00    +0.000 A 
ATOM      2  C   UNL     1       7.480   5.476  17.981  0.00  0.00    +0.000 A 
ATOM      3  C   UNL     1       8.110   6.613  18.519  0.00  0.00    +0.000 A 
ATOM      4  C   UNL     1       7.697   7.892  18.127  0.00  0.00    +0.000 A 
ATOM      5  C   UNL     1       6.638   8.017  17.216  0.00  0.00    +0.000 A 
ATOM      6  C   UNL     1       6.037   6.900  16.658  0.00  0.00    +0.000 A 
ENDROOT
BRANCH   4   7
ATOM      7  C   UNL     1       8.400   9.127  18.445  0.00  0.00    +0.000 A 
ATOM      8  N   UNL     1       8.342  10.177  17.649  0.00  0.00    +0.000 NA
ATOM      9  C   UNL     1       9.218  11.078  18.152  0.00  0.00    +0.000 A 
ATOM     10  C   UNL     1       9.727  12.217  17.538  0.00  0.00    +0.000 A 
ATOM     11  C   UNL     1      10.750  12.903  18.199  0.00  0.00    +0.000 A 
ATOM     12  C   UNL     1      11.033  12.623  19.547  0.00  0.00    +0.000 A 
ATOM     13  C   UNL     1      10.490  11.497  20.188  0.00  0.00    +0.000 A 
ATOM     14  C   UNL     1       9.676  10.683  19.400  0.00  0.00    +0.000 A 
ATOM     15  N   UNL     1       9.220   9.387  19.518  0.00  0.00    +0.000 N 
ATOM     16  H   UNL     1       9.526   8.714  20.205  0.00  0.00    +0.000 HD
BRANCH  11  17
ATOM     17  C   UNL     1      11.628  13.734  17.330  0.00  0.00    +0.000 C 
ATOM     18  N   UNL     1      11.602  13.534  15.982  0.00  0.00    +0.000 N 
ATOM     19  O   UNL     1      12.295  14.655  17.791  0.00  0.00    +0.000 OA
ATOM     20  H   UNL     1      11.048  12.843  15.506  0.00  0.00    +0.000 HD
ATOM     21  H   UNL     1      12.080  14.232  15.427  0.00  0.00    +0.000 HD
ENDBRANCH  11  17
ENDBRANCH   4   7
BRANCH   1  22
ATOM     22  S   UNL     1       5.719   4.225  16.238  0.00  0.00    +0.000 S 
ATOM     23  O   UNL     1       6.794   3.443  15.667  0.00  0.00    +0.000 OA
ATOM     24  O   UNL     1       4.610   4.693  15.440  0.00  0.00    +0.000 OA
BRANCH  22  25
ATOM     25  N   UNL     1       5.118   3.292  17.507  0.00  0.00    +0.000 NA
ATOM     26  H   UNL     1       5.678   2.447  17.621  0.00  0.00    +0.000 HD
BRANCH  25  27
ATOM     27  C   UNL     1       3.663   3.097  17.571  0.00  0.00    +0.000 C 
BRANCH  27  33
ATOM     28  C   UNL     1       2.252   7.519  19.614  0.00  0.00    +0.000 C 
ATOM     29  C   UNL     1       2.253   6.020  19.627  0.00  0.00    +0.000 A 
ATOM     30  C   UNL     1       1.566   5.318  20.625  0.00  0.00    +0.000 A 
ATOM     31  C   UNL     1       1.567   3.924  20.628  0.00  0.00    +0.000 A 
ATOM     32  C   UNL     1       2.259   3.223  19.648  0.00  0.00    +0.000 A 
ATOM     33  C   UNL     1       2.976   3.902  18.649  0.00  0.00    +0.000 A 
ATOM     34  C   UNL     1       2.946   5.306  18.639  0.00  0.00    +0.000 A 
ENDBRANCH  27  33
ENDBRANCH  25  27
ENDBRANCH  22  25
ENDBRANCH   1  22
TORSDOF 6
ENDMDL
MODEL 4
REMARK VINA RESULT:      -8.7      3.924     10.095
REMARK  Name = 
REMARK  7 active torsions:
REMARK  status: ('A' for Active; 'I' for Inactive)
REMARK    1  A    between atoms: C_1  and  C_2
REMARK    2  A    between atoms: C_6  and  C_7
REMARK    3  A    between atoms: C_7  and  N_8
REMARK    4  A    between atoms: N_8  and  S_9
REMARK    5  A    between atoms: S_9  and  C_12
REMARK    6  A    between atoms: C_15  and  C_16
REMARK    7  A    between atoms: C_20  and  C_21
REMARK                            x       y       z     vdW  Elec       q    Type
REMARK                         _______ _______ _______ _____ _____    ______ ____
ROOT
ATOM      1  C   UNL     1       2.249   4.732  19.022  0.00  0.00    +0.000 A 
ATOM      2  C   UNL     1       2.519   5.838  18.203  0.00  0.00    +0.000 A 
ATOM      3  C   UNL     1       2.279   7.138  18.683  0.00  0.00    +0.000 A 
ATOM      4  C   UNL     1       1.783   7.324  19.978  0.00  0.00    +0.000 A 
ATOM      5  C   UNL     1       1.555   6.203  20.789  0.00  0.00    +0.000 A 
ATOM      6  C   UNL     1       1.757   4.919  20.309  0.00  0.00    +0.000 A 
ENDROOT
BRANCH   4   7
ATOM      7  C   UNL     1       1.299   8.591  20.510  0.00  0.00    +0.000 A 
ATOM      8  N   UNL     1       0.580   8.645  21.614  0.00  0.00    +0.000 NA
ATOM      9  C   UNL     1       0.171   9.930  21.734  0.00  0.00    +0.000 A 
ATOM     10  C   UNL     1      -0.823  10.443  22.560  0.00  0.00    +0.000 A 
ATOM     11  C   UNL     1      -1.178  11.783  22.384  0.00  0.00    +0.000 A 
ATOM     12  C   UNL     1      -0.363  12.638  21.621  0.00  0.00    +0.000 A 
ATOM     13  C   UNL     1       0.671  12.132  20.815  0.00  0.00    +0.000 A 
ATOM     14  C   UNL     1       0.818  10.744  20.815  0.00  0.00    +0.000 A 
ATOM     15  N   UNL     1       1.454   9.851  19.980  0.00  0.00    +0.000 N 
ATOM     16  H   UNL     1       1.857  10.068  19.081  0.00  0.00    +0.000 HD
BRANCH  11  17
ATOM     17  C   UNL     1      -2.546  12.147  22.846  0.00  0.00    +0.000 C 
ATOM     18  N   UNL     1      -3.303  12.975  22.072  0.00  0.00    +0.000 N 
ATOM     19  O   UNL     1      -3.037  11.644  23.851  0.00  0.00    +0.000 OA
ATOM     20  H   UNL     1      -3.011  13.394  21.205  0.00  0.00    +0.000 HD
ATOM     21  H   UNL     1      -4.277  13.053  22.338  0.00  0.00    +0.000 HD
ENDBRANCH  11  17
ENDBRANCH   4   7
BRANCH   1  22
ATOM     22  S   UNL     1       2.404   3.072  18.410  0.00  0.00    +0.000 S 
ATOM     23  O   UNL     1       2.263   3.121  16.971  0.00  0.00    +0.000 OA
ATOM     24  O   UNL     1       1.578   2.215  19.228  0.00  0.00    +0.000 OA
BRANCH  22  25
ATOM     25  N   UNL     1       4.022   2.687  18.684  0.00  0.00    +0.000 NA
ATOM     26  H   UNL     1       4.104   1.734  19.035  0.00  0.00    +0.000 HD
BRANCH  25  27
ATOM     27  C   UNL     1       4.845   3.687  19.377  0.00  0.00    +0.000 C 
BRANCH  27  33
ATOM     28  C   UNL     1       6.544   4.933  14.763  0.00  0.00    +0.000 C 
ATOM     29  C   UNL     1       6.522   5.154  16.247  0.00  0.00    +0.000 A 
ATOM     30  C   UNL     1       7.284   6.176  16.824  0.00  0.00    +0.000 A 
ATOM     31  C   UNL     1       7.254   6.379  18.203  0.00  0.00    +0.000 A 
ATOM     32  C   UNL     1       6.477   5.560  19.013  0.00  0.00    +0.000 A 
ATOM     33  C   UNL     1       5.721   4.512  18.463  0.00  0.00    +0.000 A 
ATOM     34  C   UNL     1       5.736   4.334  17.071  0.00  0.00    +0.000 A 
ENDBRANCH  27  33
ENDBRANCH  25  27
ENDBRANCH  22  25
ENDBRANCH   1  22
TORSDOF 6
ENDMDL
MODEL 5
REMARK VINA RESULT:      -8.7      3.241      9.329
REMARK  Name = 
REMARK  7 active torsions:
REMARK  status: ('A' for Active; 'I' for Inactive)
REMARK    1  A    between atoms: C_1  and  C_2
REMARK    2  A    between atoms: C_6  and  C_7
REMARK    3  A    between atoms: C_7  and  N_8
REMARK    4  A    between atoms: N_8  and  S_9
REMARK    5  A    between atoms: S_9  and  C_12
REMARK    6  A    between atoms: C_15  and  C_16
REMARK    7  A    between atoms: C_20  and  C_21
REMARK                            x       y       z     vdW  Elec       q    Type
REMARK                         _______ _______ _______ _____ _____    ______ ____
ROOT
ATOM      1  C   UNL     1       4.378   5.934  18.152  0.00  0.00    +0.000 A 
ATOM      2  C   UNL     1       3.593   5.940  19.314  0.00  0.00    +0.000 A 
ATOM      3  C   UNL     1       2.638   6.955  19.507  0.00  0.00    +0.000 A 
ATOM      4  C   UNL     1       2.466   7.946  18.533  0.00  0.00    +0.000 A 
ATOM      5  C   UNL     1       3.240   7.896  17.365  0.00  0.00    +0.000 A 
ATOM      6  C   UNL     1       4.206   6.919  17.186  0.00  0.00    +0.000 A 
ENDROOT
BRANCH   4   7
ATOM      7  C   UNL     1       1.671   9.154  18.707  0.00  0.00    +0.000 A 
ATOM      8  N   UNL     1       0.578   9.159  19.444  0.00  0.00    +0.000 NA
ATOM      9  C   UNL     1       0.009  10.374  19.265  0.00  0.00    +0.000 A 
ATOM     10  C   UNL     1      -1.281  10.777  19.596  0.00  0.00    +0.000 A 
ATOM     11  C   UNL     1      -1.693  12.039  19.159  0.00  0.00    +0.000 A 
ATOM     12  C   UNL     1      -0.750  12.963  18.676  0.00  0.00    +0.000 A 
ATOM     13  C   UNL     1       0.567  12.574  18.378  0.00  0.00    +0.000 A 
ATOM     14  C   UNL     1       0.862  11.226  18.579  0.00  0.00    +0.000 A 
ATOM     15  N   UNL     1       1.872  10.394  18.146  0.00  0.00    +0.000 N 
ATOM     16  H   UNL     1       2.565  10.621  17.448  0.00  0.00    +0.000 HD
BRANCH  11  17
ATOM     17  C   UNL     1      -3.164  12.221  19.028  0.00  0.00    +0.000 C 
ATOM     18  N   UNL     1      -3.742  12.059  17.804  0.00  0.00    +0.000 N 
ATOM     19  O   UNL     1      -3.874  12.416  20.010  0.00  0.00    +0.000 OA
ATOM     20  H   UNL     1      -3.253  11.844  16.952  0.00  0.00    +0.000 HD
ATOM     21  H   UNL     1      -4.754  12.023  17.800  0.00  0.00    +0.000 HD
ENDBRANCH  11  17
ENDBRANCH   4   7
BRANCH   1  22
ATOM     22  S   UNL     1       5.689   4.757  17.932  0.00  0.00    +0.000 S 
ATOM     23  O   UNL     1       5.960   4.157  19.221  0.00  0.00    +0.000 OA
ATOM     24  O   UNL     1       6.728   5.385  17.151  0.00  0.00    +0.000 OA
BRANCH  22  25
ATOM     25  N   UNL     1       4.986   3.531  17.013  0.00  0.00    +0.000 NA
ATOM     26  H   UNL     1       4.373   3.930  16.303  0.00  0.00    +0.000 HD
BRANCH  25  27
ATOM     27  C   UNL     1       4.443   2.373  17.737  0.00  0.00    +0.000 C 
BRANCH  27  33
ATOM     28  C   UNL     1       1.571   2.492  21.915  0.00  0.00    +0.000 C 
ATOM     29  C   UNL     1       1.744   2.741  20.447  0.00  0.00    +0.000 A 
ATOM     30  C   UNL     1       0.697   3.281  19.689  0.00  0.00    +0.000 A 
ATOM     31  C   UNL     1       0.869   3.515  18.326  0.00  0.00    +0.000 A 
ATOM     32  C   UNL     1       2.074   3.203  17.708  0.00  0.00    +0.000 A 
ATOM     33  C   UNL     1       3.132   2.639  18.439  0.00  0.00    +0.000 A 
ATOM     34  C   UNL     1       2.959   2.434  19.817  0.00  0.00    +0.000 A 
ENDBRANCH  27  33
ENDBRANCH  25  27
ENDBRANCH  22  25
ENDBRANCH   1  22
TORSDOF 6
ENDMDL
MODEL 6
REMARK VINA RESULT:      -8.6      6.084      9.213
REMARK  Name = 
REMARK  7 active torsions:
REMARK  status: ('A' for Active; 'I' for Inactive)
REMARK    1  A    between atoms: C_1  and  C_2
REMARK    2  A    between atoms: C_6  and  C_7
REMARK    3  A    between atoms: C_7  and  N_8
REMARK    4  A    between atoms: N_8  and  S_9
REMARK    5  A    between atoms: S_9  and  C_12
REMARK    6  A    between atoms: C_15  and  C_16
REMARK    7  A    between atoms: C_20  and  C_21
REMARK                            x       y       z     vdW  Elec       q    Type
REMARK                         _______ _______ _______ _____ _____    ______ ____
ROOT
ATOM      1  C   UNL     1       6.390   5.871  17.453  0.00  0.00    +0.000 A 
ATOM      2  C   UNL     1       6.001   7.047  16.795  0.00  0.00    +0.000 A 
ATOM      3  C   UNL     1       6.720   8.237  17.007  0.00  0.00    +0.000 A 
ATOM      4  C   UNL     1       7.827   8.241  17.865  0.00  0.00    +0.000 A 
ATOM      5  C   UNL     1       8.215   7.044  18.483  0.00  0.00    +0.000 A 
ATOM      6  C   UNL     1       7.489   5.877  18.305  0.00  0.00    +0.000 A 
ENDROOT
BRANCH   4   7
ATOM      7  C   UNL     1       8.517   9.438  18.327  0.00  0.00    +0.000 A 
ATOM      8  N   UNL     1       8.450  10.573  17.659  0.00  0.00    +0.000 NA
ATOM      9  C   UNL     1       9.316  11.418  18.266  0.00  0.00    +0.000 A 
ATOM     10  C   UNL     1       9.816  12.625  17.790  0.00  0.00    +0.000 A 
ATOM     11  C   UNL     1      10.830  13.239  18.530  0.00  0.00    +0.000 A 
ATOM     12  C   UNL     1      11.113  12.807  19.838  0.00  0.00    +0.000 A 
ATOM     13  C   UNL     1      10.579  11.609  20.341  0.00  0.00    +0.000 A 
ATOM     14  C   UNL     1       9.775  10.884  19.461  0.00  0.00    +0.000 A 
ATOM     15  N   UNL     1       9.331   9.580  19.426  0.00  0.00    +0.000 N 
ATOM     16  H   UNL     1       9.642   8.834  20.031  0.00  0.00    +0.000 HD
BRANCH  11  17
ATOM     17  C   UNL     1      11.702  14.174  17.767  0.00  0.00    +0.000 C 
ATOM     18  N   UNL     1      12.333  13.721  16.647  0.00  0.00    +0.000 N 
ATOM     19  O   UNL     1      11.785  15.360  18.069  0.00  0.00    +0.000 OA
ATOM     20  H   UNL     1      12.282  12.783  16.287  0.00  0.00    +0.000 HD
ATOM     21  H   UNL     1      12.769  14.432  16.073  0.00  0.00    +0.000 HD
ENDBRANCH  11  17
ENDBRANCH   4   7
BRANCH   1  22
ATOM     22  S   UNL     1       5.430   4.383  17.324  0.00  0.00    +0.000 S 
ATOM     23  O   UNL     1       6.149   3.471  16.461  0.00  0.00    +0.000 OA
ATOM     24  O   UNL     1       4.059   4.755  17.066  0.00  0.00    +0.000 OA
BRANCH  22  25
ATOM     25  N   UNL     1       5.527   3.703  18.864  0.00  0.00    +0.000 NA
ATOM     26  H   UNL     1       6.491   3.452  19.080  0.00  0.00    +0.000 HD
BRANCH  25  27
ATOM     27  C   UNL     1       4.519   2.695  19.220  0.00  0.00    +0.000 C 
BRANCH  27  33
ATOM     28  C   UNL     1       1.678   6.578  20.823  0.00  0.00    +0.000 C 
ATOM     29  C   UNL     1       1.812   5.136  20.434  0.00  0.00    +0.000 A 
ATOM     30  C   UNL     1       0.698   4.288  20.456  0.00  0.00    +0.000 A 
ATOM     31  C   UNL     1       0.830   2.950  20.087  0.00  0.00    +0.000 A 
ATOM     32  C   UNL     1       2.068   2.448  19.706  0.00  0.00    +0.000 A 
ATOM     33  C   UNL     1       3.207   3.271  19.698  0.00  0.00    +0.000 A 
ATOM     34  C   UNL     1       3.058   4.623  20.044  0.00  0.00    +0.000 A 
ENDBRANCH  27  33
ENDBRANCH  25  27
ENDBRANCH  22  25
ENDBRANCH   1  22
TORSDOF 6
ENDMDL
MODEL 7
REMARK VINA RESULT:      -8.6      3.926     10.108
REMARK  Name = 
REMARK  7 active torsions:
REMARK  status: ('A' for Active; 'I' for Inactive)
REMARK    1  A    between atoms: C_1  and  C_2
REMARK    2  A    between atoms: C_6  and  C_7
REMARK    3  A    between atoms: C_7  and  N_8
REMARK    4  A    between atoms: N_8  and  S_9
REMARK    5  A    between atoms: S_9  and  C_12
REMARK    6  A    between atoms: C_15  and  C_16
REMARK    7  A    between atoms: C_20  and  C_21
REMARK                            x       y       z     vdW  Elec       q    Type
REMARK                         _______ _______ _______ _____ _____    ______ ____
ROOT
ATOM      1  C   UNL     1       2.331   4.611  19.115  0.00  0.00    +0.000 A 
ATOM      2  C   UNL     1       2.592   5.693  18.262  0.00  0.00    +0.000 A 
ATOM      3  C   UNL     1       2.343   7.006  18.703  0.00  0.00    +0.000 A 
ATOM      4  C   UNL     1       1.846   7.227  19.993  0.00  0.00    +0.000 A 
ATOM      5  C   UNL     1       1.627   6.128  20.837  0.00  0.00    +0.000 A 
ATOM      6  C   UNL     1       1.838   4.832  20.396  0.00  0.00    +0.000 A 
ENDROOT
BRANCH   4   7
ATOM      7  C   UNL     1       1.354   8.505  20.487  0.00  0.00    +0.000 A 
ATOM      8  N   UNL     1       0.696   8.596  21.626  0.00  0.00    +0.000 NA
ATOM      9  C   UNL     1       0.254   9.874  21.704  0.00  0.00    +0.000 A 
ATOM     10  C   UNL     1      -0.707  10.400  22.560  0.00  0.00    +0.000 A 
ATOM     11  C   UNL     1      -1.114  11.718  22.337  0.00  0.00    +0.000 A 
ATOM     12  C   UNL     1      -0.371  12.555  21.486  0.00  0.00    +0.000 A 
ATOM     13  C   UNL     1       0.631  12.037  20.648  0.00  0.00    +0.000 A 
ATOM     14  C   UNL     1       0.822  10.657  20.710  0.00  0.00    +0.000 A 
ATOM     15  N   UNL     1       1.438   9.739  19.886  0.00  0.00    +0.000 N 
ATOM     16  H   UNL     1       1.783   9.920  18.956  0.00  0.00    +0.000 HD
BRANCH  11  17
ATOM     17  C   UNL     1      -2.465  12.067  22.858  0.00  0.00    +0.000 C 
ATOM     18  N   UNL     1      -3.193  13.022  22.213  0.00  0.00    +0.000 N 
ATOM     19  O   UNL     1      -2.970  11.449  23.789  0.00  0.00    +0.000 OA
ATOM     20  H   UNL     1      -2.888  13.545  21.410  0.00  0.00    +0.000 HD
ATOM     21  H   UNL     1      -4.161  13.100  22.497  0.00  0.00    +0.000 HD
ENDBRANCH  11  17
ENDBRANCH   4   7
BRANCH   1  22
ATOM     22  S   UNL     1       2.498   2.934  18.553  0.00  0.00    +0.000 S 
ATOM     23  O   UNL     1       2.086   2.894  17.166  0.00  0.00    +0.000 OA
ATOM     24  O   UNL     1       1.910   2.068  19.548  0.00  0.00    +0.000 OA
BRANCH  22  25
ATOM     25  N   UNL     1       4.164   2.678  18.527  0.00  0.00    +0.000 NA
ATOM     26  H   UNL     1       4.374   1.701  18.734  0.00  0.00    +0.000 HD
BRANCH  25  27
ATOM     27  C   UNL     1       5.009   3.664  19.215  0.00  0.00    +0.000 C 
BRANCH  27  33
ATOM     28  C   UNL     1       8.170   7.542  18.389  0.00  0.00    +0.000 C 
ATOM     29  C   UNL     1       7.351   6.397  17.873  0.00  0.00    +0.000 A 
ATOM     30  C   UNL     1       7.336   6.094  16.506  0.00  0.00    +0.000 A 
ATOM     31  C   UNL     1       6.577   5.024  16.035  0.00  0.00    +0.000 A 
ATOM     32  C   UNL     1       5.821   4.261  16.916  0.00  0.00    +0.000 A 
ATOM     33  C   UNL     1       5.798   4.558  18.288  0.00  0.00    +0.000 A 
ATOM     34  C   UNL     1       6.589   5.619  18.757  0.00  0.00    +0.000 A 
ENDBRANCH  27  33
ENDBRANCH  25  27
ENDBRANCH  22  25
ENDBRANCH   1  22
TORSDOF 6
ENDMDL
MODEL 8
REMARK VINA RESULT:      -8.5      3.239      9.559
REMARK  Name = 
REMARK  7 active torsions:
REMARK  status: ('A' for Active; 'I' for Inactive)
REMARK    1  A    between atoms: C_1  and  C_2
REMARK    2  A    between atoms: C_6  and  C_7
REMARK    3  A    between atoms: C_7  and  N_8
REMARK    4  A    between atoms: N_8  and  S_9
REMARK    5  A    between atoms: S_9  and  C_12
REMARK    6  A    between atoms: C_15  and  C_16
REMARK    7  A    between atoms: C_20  and  C_21
REMARK                            x       y       z     vdW  Elec       q    Type
REMARK                         _______ _______ _______ _____ _____    ______ ____
ROOT
ATOM      1  C   UNL     1       3.704   6.770  18.026  0.00  0.00    +0.000 A 
ATOM      2  C   UNL     1       3.322   6.291  19.287  0.00  0.00    +0.000 A 
ATOM      3  C   UNL     1       2.325   6.963  20.017  0.00  0.00    +0.000 A 
ATOM      4  C   UNL     1       1.711   8.100  19.478  0.00  0.00    +0.000 A 
ATOM      5  C   UNL     1       2.088   8.537  18.200  0.00  0.00    +0.000 A 
ATOM      6  C   UNL     1       3.093   7.899  17.492  0.00  0.00    +0.000 A 
ENDROOT
BRANCH   4   7
ATOM      7  C   UNL     1       0.828   8.995  20.213  0.00  0.00    +0.000 A 
ATOM      8  N   UNL     1       0.061   9.869  19.591  0.00  0.00    +0.000 NA
ATOM      9  C   UNL     1      -0.499  10.633  20.559  0.00  0.00    +0.000 A 
ATOM     10  C   UNL     1      -1.158  11.849  20.420  0.00  0.00    +0.000 A 
ATOM     11  C   UNL     1      -1.505  12.531  21.589  0.00  0.00    +0.000 A 
ATOM     12  C   UNL     1      -1.457  11.875  22.832  0.00  0.00    +0.000 A 
ATOM     13  C   UNL     1      -0.830  10.625  22.973  0.00  0.00    +0.000 A 
ATOM     14  C   UNL     1      -0.255  10.100  21.816  0.00  0.00    +0.000 A 
ATOM     15  N   UNL     1       0.679   9.115  21.575  0.00  0.00    +0.000 N 
ATOM     16  H   UNL     1       1.238   8.649  22.273  0.00  0.00    +0.000 HD
BRANCH  11  17
ATOM     17  C   UNL     1      -1.684  14.002  21.444  0.00  0.00    +0.000 C 
ATOM     18  N   UNL     1      -2.149  14.495  20.261  0.00  0.00    +0.000 N 
ATOM     19  O   UNL     1      -1.516  14.763  22.391  0.00  0.00    +0.000 OA
ATOM     20  H   UNL     1      -2.368  13.947  19.446  0.00  0.00    +0.000 HD
ATOM     21  H   UNL     1      -2.416  15.471  20.269  0.00  0.00    +0.000 HD
ENDBRANCH  11  17
ENDBRANCH   4   7
BRANCH   1  22
ATOM     22  S   UNL     1       5.052   6.038  17.131  0.00  0.00    +0.000 S 
ATOM     23  O   UNL     1       6.035   5.603  18.100  0.00  0.00    +0.000 OA
ATOM     24  O   UNL     1       5.396   6.919  16.040  0.00  0.00    +0.000 OA
BRANCH  22  25
ATOM     25  N   UNL     1       4.398   4.620  16.497  0.00  0.00    +0.000 NA
ATOM     26  H   UNL     1       3.492   4.810  16.069  0.00  0.00    +0.000 HD
BRANCH  25  27
ATOM     27  C   UNL     1       4.458   3.415  17.336  0.00  0.00    +0.000 C 
BRANCH  27  33
ATOM     28  C   UNL     1       2.319   2.563  21.856  0.00  0.00    +0.000 C 
ATOM     29  C   UNL     1       2.194   2.838  20.387  0.00  0.00    +0.000 A 
ATOM     30  C   UNL     1       0.933   2.961  19.792  0.00  0.00    +0.000 A 
ATOM     31  C   UNL     1       0.825   3.222  18.427  0.00  0.00    +0.000 A 
ATOM     32  C   UNL     1       1.968   3.351  17.647  0.00  0.00    +0.000 A 
ATOM     33  C   UNL     1       3.245   3.208  18.213  0.00  0.00    +0.000 A 
ATOM     34  C   UNL     1       3.343   2.973  19.594  0.00  0.00    +0.000 A 
ENDBRANCH  27  33
ENDBRANCH  25  27
ENDBRANCH  22  25
ENDBRANCH   1  22
TORSDOF 6
ENDMDL
MODEL 9
REMARK VINA RESULT:      -8.5      3.542      9.271
REMARK  Name = 
REMARK  7 active torsions:
REMARK  status: ('A' for Active; 'I' for Inactive)
REMARK    1  A    between atoms: C_1  and  C_2
REMARK    2  A    between atoms: C_6  and  C_7
REMARK    3  A    between atoms: C_7  and  N_8
REMARK    4  A    between atoms: N_8  and  S_9
REMARK    5  A    between atoms: S_9  and  C_12
REMARK    6  A    between atoms: C_15  and  C_16
REMARK    7  A    between atoms: C_20  and  C_21
REMARK                            x       y       z     vdW  Elec       q    Type
REMARK                         _______ _______ _______ _____ _____    ______ ____
ROOT
ATOM      1  C   UNL     1       4.272   5.972  18.270  0.00  0.00    +0.000 A 
ATOM      2  C   UNL     1       3.541   5.855  19.460  0.00  0.00    +0.000 A 
ATOM      3  C   UNL     1       2.542   6.799  19.762  0.00  0.00    +0.000 A 
ATOM      4  C   UNL     1       2.275   7.843  18.869  0.00  0.00    +0.000 A 
ATOM      5  C   UNL     1       2.997   7.916  17.669  0.00  0.00    +0.000 A 
ATOM      6  C   UNL     1       4.005   7.009  17.383  0.00  0.00    +0.000 A 
ENDROOT
BRANCH   4   7
ATOM      7  C   UNL     1       1.424   8.989  19.160  0.00  0.00    +0.000 A 
ATOM      8  N   UNL     1       1.307   9.993  18.313  0.00  0.00    +0.000 NA
ATOM      9  C   UNL     1       0.582  10.941  18.951  0.00  0.00    +0.000 A 
ATOM     10  C   UNL     1       0.419  12.278  18.604  0.00  0.00    +0.000 A 
ATOM     11  C   UNL     1      -0.244  13.104  19.514  0.00  0.00    +0.000 A 
ATOM     12  C   UNL     1      -0.968  12.543  20.582  0.00  0.00    +0.000 A 
ATOM     13  C   UNL     1      -0.840  11.184  20.915  0.00  0.00    +0.000 A 
ATOM     14  C   UNL     1       0.050  10.448  20.133  0.00  0.00    +0.000 A 
ATOM     15  N   UNL     1       0.686   9.235  20.294  0.00  0.00    +0.000 N 
ATOM     16  H   UNL     1       0.701   8.685  21.139  0.00  0.00    +0.000 HD
BRANCH  11  17
ATOM     17  C   UNL     1       0.066  14.556  19.406  0.00  0.00    +0.000 C 
ATOM     18  N   UNL     1      -0.703  15.447  20.092  0.00  0.00    +0.000 N 
ATOM     19  O   UNL     1       1.052  14.954  18.794  0.00  0.00    +0.000 OA
ATOM     20  H   UNL     1      -1.497  15.214  20.664  0.00  0.00    +0.000 HD
ATOM     21  H   UNL     1      -0.350  16.395  20.124  0.00  0.00    +0.000 HD
ENDBRANCH  11  17
ENDBRANCH   4   7
BRANCH   1  22
ATOM     22  S   UNL     1       5.633   4.888  17.914  0.00  0.00    +0.000 S 
ATOM     23  O   UNL     1       6.031   4.263  19.157  0.00  0.00    +0.000 OA
ATOM     24  O   UNL     1       6.573   5.607  17.087  0.00  0.00    +0.000 OA
BRANCH  22  25
ATOM     25  N   UNL     1       4.941   3.653  16.999  0.00  0.00    +0.000 NA
ATOM     26  H   UNL     1       4.283   4.040  16.323  0.00  0.00    +0.000 HD
BRANCH  25  27
ATOM     27  C   UNL     1       4.476   2.460  17.720  0.00  0.00    +0.000 C 
BRANCH  27  33
ATOM     28  C   UNL     1       1.696   2.526  21.961  0.00  0.00    +0.000 C 
ATOM     29  C   UNL     1       1.815   2.721  20.479  0.00  0.00    +0.000 A 
ATOM     30  C   UNL     1       0.709   3.132  19.725  0.00  0.00    +0.000 A 
ATOM     31  C   UNL     1       0.829   3.316  18.349  0.00  0.00    +0.000 A 
ATOM     32  C   UNL     1       2.043   3.081  17.715  0.00  0.00    +0.000 A 
ATOM     33  C   UNL     1       3.162   2.645  18.443  0.00  0.00    +0.000 A 
ATOM     34  C   UNL     1       3.038   2.490  19.833  0.00  0.00    +0.000 A 
ENDBRANCH  27  33
ENDBRANCH  25  27
ENDBRANCH  22  25
ENDBRANCH   1  22
TORSDOF 6
ENDMDL
