MODEL 1
REMARK VINA RESULT:      -7.2      0.000      0.000
REMARK  Name = 
REMARK  11 active torsions:
REMARK  status: ('A' for Active; 'I' for Inactive)
REMARK    1  A    between atoms: C_1  and  C_2
REMARK    2  A    between atoms: C_2  and  N_3
REMARK    3  A    between atoms: C_5  and  C_6
REMARK    4  A    between atoms: N_8  and  C_9
REMARK    5  A    between atoms: N_8  and  C_10
REMARK    6  A    between atoms: C_12  and  C_13
REMARK    7  A    between atoms: C_16  and  C_17
REMARK    8  A    between atoms: C_20  and  O_21
REMARK    9  A    between atoms: O_21  and  C_22
REMARK   10  A    between atoms: C_23  and  O_24
REMARK   11  A    between atoms: O_24  and  C_25
REMARK                            x       y       z     vdW  Elec       q    Type
REMARK                         _______ _______ _______ _____ _____    ______ ____
ROOT
ATOM      1  N   UNL     1       1.913   3.913  19.632  0.00  0.00    +0.000 N 
ATOM      2  C   UNL     1       1.709   5.241  19.957  0.00  0.00    +0.000 A 
ATOM      3  C   UNL     1       2.509   6.245  19.560  0.00  0.00    +0.000 A 
ATOM      4  C   UNL     1       3.620   5.884  18.619  0.00  0.00    +0.000 A 
ATOM      5  C   UNL     1       4.516   6.827  18.077  0.00  0.00    +0.000 A 
ATOM      6  C   UNL     1       5.585   6.465  17.228  0.00  0.00    +0.000 A 
ATOM      7  C   UNL     1       5.761   5.115  16.890  0.00  0.00    +0.000 A 
ATOM      8  C   UNL     1       4.851   4.173  17.379  0.00  0.00    +0.000 A 
ATOM      9  C   UNL     1       3.805   4.550  18.234  0.00  0.00    +0.000 A 
ATOM     10  C   UNL     1       2.897   3.493  18.741  0.00  0.00    +0.000 A 
ATOM     11  O   UNL     1       3.031   2.331  18.367  0.00  0.00    +0.000 OA
ENDROOT
BRANCH   3  12
ATOM     12  C   UNL     1       2.168   7.692  19.891  0.00  0.00    +0.000 C 
ATOM     13  O   UNL     1       2.414   8.055  21.046  0.00  0.00    +0.000 OA
ATOM     14  N   UNL     1       1.511   8.531  18.972  0.00  0.00    +0.000 N 
ATOM     15  C   UNL     1       1.327   8.302  17.536  0.00  0.00    +0.000 C 
BRANCH  14  16
ATOM     16  C   UNL     1       0.966   9.780  19.451  0.00  0.00    +0.000 A 
ATOM     17  C   UNL     1       1.439  10.986  18.902  0.00  0.00    +0.000 A 
ATOM     18  C   UNL     1       0.950  12.229  19.331  0.00  0.00    +0.000 A 
ATOM     19  C   UNL     1       1.516  13.507  18.791  0.00  0.00    +0.000 C 
ATOM     20  C   UNL     1      -0.042  12.264  20.310  0.00  0.00    +0.000 A 
ATOM     21  C   UNL     1      -0.528  11.079  20.863  0.00  0.00    +0.000 A 
ATOM     22  C   UNL     1      -0.021   9.829  20.464  0.00  0.00    +0.000 A 
ATOM     23  C   UNL     1      -0.518   8.610  21.192  0.00  0.00    +0.000 C 
ENDBRANCH  14  16
ENDBRANCH   3  12
BRANCH   1  25
ATOM     24  C   UNL     1       1.324   2.565  21.619  0.00  0.00    +0.000 C 
ATOM     25  C   UNL     1       0.999   2.902  20.181  0.00  0.00    +0.000 C 
ENDBRANCH   1  25
BRANCH   6  26
ATOM     26  O   UNL     1       6.469   7.376  16.715  0.00  0.00    +0.000 OA
ATOM     27  C   UNL     1       7.603   7.742  17.490  0.00  0.00    +0.000 C 
ENDBRANCH   6  26
BRANCH   7  28
ATOM     28  O   UNL     1       6.736   4.538  16.119  0.00  0.00    +0.000 OA
ATOM     29  C   UNL     1       6.521   4.396  14.723  0.00  0.00    +0.000 C 
ENDBRANCH   7  28
TORSDOF 5
ENDMDL
MODEL 2
REMARK VINA RESULT:      -7.1      3.773      8.393
REMARK  Name = 
REMARK  11 active torsions:
REMARK  status: ('A' for Active; 'I' for Inactive)
REMARK    1  A    between atoms: C_1  and  C_2
REMARK    2  A    between atoms: C_2  and  N_3
REMARK    3  A    between atoms: C_5  and  C_6
REMARK    4  A    between atoms: N_8  and  C_9
REMARK    5  A    between atoms: N_8  and  C_10
REMARK    6  A    between atoms: C_12  and  C_13
REMARK    7  A    between atoms: C_16  and  C_17
REMARK    8  A    between atoms: C_20  and  O_21
REMARK    9  A    between atoms: O_21  and  C_22
REMARK   10  A    between atoms: C_23  and  O_24
REMARK   11  A    between atoms: O_24  and  C_25
REMARK                            x       y       z     vdW  Elec       q    Type
REMARK                         _______ _______ _______ _____ _____    ______ ____
ROOT
ATOM      1  N   UNL     1      -0.538  11.989  20.688  0.00  0.00    +0.000 N 
ATOM      2  C   UNL     1       0.345  11.022  20.242  0.00  0.00    +0.000 A 
ATOM      3  C   UNL     1       0.122  10.230  19.181  0.00  0.00    +0.000 A 
ATOM      4  C   UNL     1      -1.119  10.509  18.386  0.00  0.00    +0.000 A 
ATOM      5  C   UNL     1      -1.471   9.798  17.221  0.00  0.00    +0.000 A 
ATOM      6  C   UNL     1      -2.667  10.041  16.509  0.00  0.00    +0.000 A 
ATOM      7  C   UNL     1      -3.539  11.042  16.963  0.00  0.00    +0.000 A 
ATOM      8  C   UNL     1      -3.180  11.791  18.088  0.00  0.00    +0.000 A 
ATOM      9  C   UNL     1      -1.996  11.523  18.791  0.00  0.00    +0.000 A 
ATOM     10  C   UNL     1      -1.695  12.335  19.994  0.00  0.00    +0.000 A 
ATOM     11  O   UNL     1      -2.440  13.254  20.322  0.00  0.00    +0.000 OA
ENDROOT
BRANCH   3  12
ATOM     12  C   UNL     1       1.183   9.247  18.704  0.00  0.00    +0.000 C 
ATOM     13  O   UNL     1       1.502   9.330  17.513  0.00  0.00    +0.000 OA
ATOM     14  N   UNL     1       1.686   8.232  19.538  0.00  0.00    +0.000 N 
ATOM     15  C   UNL     1       1.541   8.127  20.994  0.00  0.00    +0.000 C 
BRANCH  14  16
ATOM     16  C   UNL     1       2.461   7.171  18.939  0.00  0.00    +0.000 A 
ATOM     17  C   UNL     1       3.360   7.483  17.903  0.00  0.00    +0.000 A 
ATOM     18  C   UNL     1       4.135   6.494  17.281  0.00  0.00    +0.000 A 
ATOM     19  C   UNL     1       5.033   6.830  16.129  0.00  0.00    +0.000 C 
ATOM     20  C   UNL     1       4.022   5.173  17.715  0.00  0.00    +0.000 A 
ATOM     21  C   UNL     1       3.140   4.844  18.744  0.00  0.00    +0.000 A 
ATOM     22  C   UNL     1       2.334   5.823  19.353  0.00  0.00    +0.000 A 
ATOM     23  C   UNL     1       1.329   5.364  20.373  0.00  0.00    +0.000 C 
ENDBRANCH  14  16
ENDBRANCH   3  12
BRANCH   1  25
ATOM     24  C   UNL     1      -1.116  12.402  23.055  0.00  0.00    +0.000 C 
ATOM     25  C   UNL     1      -0.204  12.748  21.900  0.00  0.00    +0.000 C 
ENDBRANCH   1  25
BRANCH   6  26
ATOM     26  O   UNL     1      -3.022   9.340  15.389  0.00  0.00    +0.000 OA
ATOM     27  C   UNL     1      -2.968   9.991  14.127  0.00  0.00    +0.000 C 
ENDBRANCH   6  26
BRANCH   7  28
ATOM     28  O   UNL     1      -4.753  11.425  16.456  0.00  0.00    +0.000 OA
ATOM     29  C   UNL     1      -5.695  12.053  17.312  0.00  0.00    +0.000 C 
ENDBRANCH   7  28
TORSDOF 5
ENDMDL
MODEL 3
REMARK VINA RESULT:      -7.0      0.913      1.864
REMARK  Name = 
REMARK  11 active torsions:
REMARK  status: ('A' for Active; 'I' for Inactive)
REMARK    1  A    between atoms: C_1  and  C_2
REMARK    2  A    between atoms: C_2  and  N_3
REMARK    3  A    between atoms: C_5  and  C_6
REMARK    4  A    between atoms: N_8  and  C_9
REMARK    5  A    between atoms: N_8  and  C_10
REMARK    6  A    between atoms: C_12  and  C_13
REMARK    7  A    between atoms: C_16  and  C_17
REMARK    8  A    between atoms: C_20  and  O_21
REMARK    9  A    between atoms: O_21  and  C_22
REMARK   10  A    between atoms: C_23  and  O_24
REMARK   11  A    between atoms: O_24  and  C_25
REMARK                            x       y       z     vdW  Elec       q    Type
REMARK                         _______ _______ _______ _____ _____    ______ ____
ROOT
ATOM      1  N   UNL     1       1.807   3.895  18.492  0.00  0.00    +0.000 N 
ATOM      2  C   UNL     1       1.661   5.111  19.133  0.00  0.00    +0.000 A 
ATOM      3  C   UNL     1       2.532   6.128  19.025  0.00  0.00    +0.000 A 
ATOM      4  C   UNL     1       3.662   5.942  18.057  0.00  0.00    +0.000 A 
ATOM      5  C   UNL     1       4.632   6.931  17.796  0.00  0.00    +0.000 A 
ATOM      6  C   UNL     1       5.717   6.724  16.916  0.00  0.00    +0.000 A 
ATOM      7  C   UNL     1       5.834   5.492  16.256  0.00  0.00    +0.000 A 
ATOM      8  C   UNL     1       4.853   4.519  16.465  0.00  0.00    +0.000 A 
ATOM      9  C   UNL     1       3.791   4.737  17.356  0.00  0.00    +0.000 A 
ATOM     10  C   UNL     1       2.805   3.648  17.553  0.00  0.00    +0.000 A 
ATOM     11  O   UNL     1       2.893   2.610  16.904  0.00  0.00    +0.000 OA
ENDROOT
BRANCH   3  12
ATOM     12  C   UNL     1       2.256   7.467  19.698  0.00  0.00    +0.000 C 
ATOM     13  O   UNL     1       2.513   7.528  20.905  0.00  0.00    +0.000 OA
ATOM     14  N   UNL     1       1.641   8.531  19.014  0.00  0.00    +0.000 N 
ATOM     15  C   UNL     1       1.452   8.665  17.567  0.00  0.00    +0.000 C 
BRANCH  14  16
ATOM     16  C   UNL     1       1.152   9.651  19.785  0.00  0.00    +0.000 A 
ATOM     17  C   UNL     1       0.416   9.403  20.958  0.00  0.00    +0.000 A 
ATOM     18  C   UNL     1      -0.088  10.449  21.743  0.00  0.00    +0.000 A 
ATOM     19  C   UNL     1      -0.934  10.170  22.949  0.00  0.00    +0.000 C 
ATOM     20  C   UNL     1       0.165  11.766  21.359  0.00  0.00    +0.000 A 
ATOM     21  C   UNL     1       0.897  12.032  20.202  0.00  0.00    +0.000 A 
ATOM     22  C   UNL     1       1.379  10.990  19.389  0.00  0.00    +0.000 A 
ATOM     23  C   UNL     1       2.058  11.367  18.102  0.00  0.00    +0.000 C 
ENDBRANCH  14  16
ENDBRANCH   3  12
BRANCH   1  25
ATOM     24  C   UNL     1       0.926   2.278  20.141  0.00  0.00    +0.000 C 
ATOM     25  C   UNL     1       0.815   2.840  18.741  0.00  0.00    +0.000 C 
ENDBRANCH   1  25
BRANCH   6  26
ATOM     26  O   UNL     1       6.672   7.675  16.675  0.00  0.00    +0.000 OA
ATOM     27  C   UNL     1       7.716   7.853  17.622  0.00  0.00    +0.000 C 
ENDBRANCH   6  26
BRANCH   7  28
ATOM     28  O   UNL     1       6.809   5.064  15.393  0.00  0.00    +0.000 OA
ATOM     29  C   UNL     1       6.433   4.431  14.180  0.00  0.00    +0.000 C 
ENDBRANCH   7  28
TORSDOF 5
ENDMDL
MODEL 4
REMARK VINA RESULT:      -7.0      5.094      8.530
REMARK  Name = 
REMARK  11 active torsions:
REMARK  status: ('A' for Active; 'I' for Inactive)
REMARK    1  A    between atoms: C_1  and  C_2
REMARK    2  A    between atoms: C_2  and  N_3
REMARK    3  A    between atoms: C_5  and  C_6
REMARK    4  A    between atoms: N_8  and  C_9
REMARK    5  A    between atoms: N_8  and  C_10
REMARK    6  A    between atoms: C_12  and  C_13
REMARK    7  A    between atoms: C_16  and  C_17
REMARK    8  A    between atoms: C_20  and  O_21
REMARK    9  A    between atoms: O_21  and  C_22
REMARK   10  A    between atoms: C_23  and  O_24
REMARK   11  A    between atoms: O_24  and  C_25
REMARK                            x       y       z     vdW  Elec       q    Type
REMARK                         _______ _______ _______ _____ _____    ______ ____
ROOT
ATOM      1  N   UNL     1      -3.772  11.658  17.916  0.00  0.00    +0.000 N 
ATOM      2  C   UNL     1      -3.991  12.291  19.126  0.00  0.00    +0.000 A 
ATOM      3  C   UNL     1      -3.165  12.206  20.182  0.00  0.00    +0.000 A 
ATOM      4  C   UNL     1      -1.880  11.462  19.968  0.00  0.00    +0.000 A 
ATOM      5  C   UNL     1      -0.890  11.324  20.961  0.00  0.00    +0.000 A 
ATOM      6  C   UNL     1       0.296  10.582  20.759  0.00  0.00    +0.000 A 
ATOM      7  C   UNL     1       0.513   9.968  19.517  0.00  0.00    +0.000 A 
ATOM      8  C   UNL     1      -0.437  10.138  18.505  0.00  0.00    +0.000 A 
ATOM      9  C   UNL     1      -1.616  10.865  18.730  0.00  0.00    +0.000 A 
ATOM     10  C   UNL     1      -2.593  10.977  17.622  0.00  0.00    +0.000 A 
ATOM     11  O   UNL     1      -2.341  10.492  16.522  0.00  0.00    +0.000 OA
ENDROOT
BRANCH   3  12
ATOM     12  C   UNL     1      -3.437  13.001  21.452  0.00  0.00    +0.000 C 
ATOM     13  O   UNL     1      -4.104  12.424  22.319  0.00  0.00    +0.000 OA
ATOM     14  N   UNL     1      -3.052  14.347  21.585  0.00  0.00    +0.000 N 
ATOM     15  C   UNL     1      -2.117  15.091  20.735  0.00  0.00    +0.000 C 
BRANCH  14  16
ATOM     16  C   UNL     1      -3.594  15.112  22.684  0.00  0.00    +0.000 A 
ATOM     17  C   UNL     1      -4.801  15.811  22.500  0.00  0.00    +0.000 A 
ATOM     18  C   UNL     1      -5.372  16.573  23.529  0.00  0.00    +0.000 A 
ATOM     19  C   UNL     1      -6.618  17.374  23.295  0.00  0.00    +0.000 C 
ATOM     20  C   UNL     1      -4.736  16.620  24.769  0.00  0.00    +0.000 A 
ATOM     21  C   UNL     1      -3.542  15.929  24.974  0.00  0.00    +0.000 A 
ATOM     22  C   UNL     1      -2.943  15.189  23.938  0.00  0.00    +0.000 A 
ATOM     23  C   UNL     1      -1.600  14.570  24.210  0.00  0.00    +0.000 C 
ENDBRANCH  14  16
ENDBRANCH   3  12
BRANCH   1  25
ATOM     24  C   UNL     1      -6.071  12.385  17.375  0.00  0.00    +0.000 C 
ATOM     25  C   UNL     1      -4.784  11.780  16.859  0.00  0.00    +0.000 C 
ENDBRANCH   1  25
BRANCH   6  26
ATOM     26  O   UNL     1       1.251  10.428  21.727  0.00  0.00    +0.000 OA
ATOM     27  C   UNL     1       1.194   9.286  22.571  0.00  0.00    +0.000 C 
ENDBRANCH   6  26
BRANCH   7  28
ATOM     28  O   UNL     1       1.561   9.183  19.113  0.00  0.00    +0.000 OA
ATOM     29  C   UNL     1       1.971   9.220  17.754  0.00  0.00    +0.000 C 
ENDBRANCH   7  28
TORSDOF 5
ENDMDL
MODEL 5
REMARK VINA RESULT:      -7.0      1.478      1.797
REMARK  Name = 
REMARK  11 active torsions:
REMARK  status: ('A' for Active; 'I' for Inactive)
REMARK    1  A    between atoms: C_1  and  C_2
REMARK    2  A    between atoms: C_2  and  N_3
REMARK    3  A    between atoms: C_5  and  C_6
REMARK    4  A    between atoms: N_8  and  C_9
REMARK    5  A    between atoms: N_8  and  C_10
REMARK    6  A    between atoms: C_12  and  C_13
REMARK    7  A    between atoms: C_16  and  C_17
REMARK    8  A    between atoms: C_20  and  O_21
REMARK    9  A    between atoms: O_21  and  C_22
REMARK   10  A    between atoms: C_23  and  O_24
REMARK   11  A    between atoms: O_24  and  C_25
REMARK                            x       y       z     vdW  Elec       q    Type
REMARK                         _______ _______ _______ _____ _____    ______ ____
ROOT
ATOM      1  N   UNL     1       2.021   4.516  18.888  0.00  0.00    +0.000 N 
ATOM      2  C   UNL     1       1.590   5.821  18.739  0.00  0.00    +0.000 A 
ATOM      3  C   UNL     1       2.383   6.838  18.364  0.00  0.00    +0.000 A 
ATOM      4  C   UNL     1       3.791   6.485  17.986  0.00  0.00    +0.000 A 
ATOM      5  C   UNL     1       4.732   7.430  17.529  0.00  0.00    +0.000 A 
ATOM      6  C   UNL     1       6.068   7.090  17.220  0.00  0.00    +0.000 A 
ATOM      7  C   UNL     1       6.480   5.756  17.354  0.00  0.00    +0.000 A 
ATOM      8  C   UNL     1       5.545   4.798  17.758  0.00  0.00    +0.000 A 
ATOM      9  C   UNL     1       4.228   5.158  18.076  0.00  0.00    +0.000 A 
ATOM     10  C   UNL     1       3.299   4.095  18.529  0.00  0.00    +0.000 A 
ATOM     11  O   UNL     1       3.669   2.925  18.564  0.00  0.00    +0.000 OA
ENDROOT
BRANCH   3  12
ATOM     12  C   UNL     1       1.812   8.233  18.142  0.00  0.00    +0.000 C 
ATOM     13  O   UNL     1       1.815   8.640  16.975  0.00  0.00    +0.000 OA
ATOM     14  N   UNL     1       1.410   9.052  19.213  0.00  0.00    +0.000 N 
ATOM     15  C   UNL     1       1.181   8.646  20.603  0.00  0.00    +0.000 C 
BRANCH  14  16
ATOM     16  C   UNL     1       1.157  10.450  18.951  0.00  0.00    +0.000 A 
ATOM     17  C   UNL     1       2.244  11.342  18.901  0.00  0.00    +0.000 A 
ATOM     18  C   UNL     1       2.059  12.710  18.655  0.00  0.00    +0.000 A 
ATOM     19  C   UNL     1       3.218  13.661  18.679  0.00  0.00    +0.000 C 
ATOM     20  C   UNL     1       0.768  13.190  18.437  0.00  0.00    +0.000 A 
ATOM     21  C   UNL     1      -0.322  12.320  18.478  0.00  0.00    +0.000 A 
ATOM     22  C   UNL     1      -0.151  10.952  18.756  0.00  0.00    +0.000 A 
ATOM     23  C   UNL     1      -1.389  10.109  18.894  0.00  0.00    +0.000 C 
ENDBRANCH  14  16
ENDBRANCH   3  12
BRANCH   1  25
ATOM     24  C   UNL     1       1.133   3.326  20.864  0.00  0.00    +0.000 C 
ATOM     25  C   UNL     1       1.068   3.505  19.364  0.00  0.00    +0.000 C 
ENDBRANCH   1  25
BRANCH   6  26
ATOM     26  O   UNL     1       6.990   8.008  16.795  0.00  0.00    +0.000 OA
ATOM     27  C   UNL     1       7.898   8.556  17.741  0.00  0.00    +0.000 C 
ENDBRANCH   6  26
BRANCH   7  28
ATOM     28  O   UNL     1       7.720   5.210  17.144  0.00  0.00    +0.000 OA
ATOM     29  C   UNL     1       8.302   4.402  18.156  0.00  0.00    +0.000 C 
ENDBRANCH   7  28
TORSDOF 5
ENDMDL
MODEL 6
REMARK VINA RESULT:      -6.9      4.476      9.335
REMARK  Name = 
REMARK  11 active torsions:
REMARK  status: ('A' for Active; 'I' for Inactive)
REMARK    1  A    between atoms: C_1  and  C_2
REMARK    2  A    between atoms: C_2  and  N_3
REMARK    3  A    between atoms: C_5  and  C_6
REMARK    4  A    between atoms: N_8  and  C_9
REMARK    5  A    between atoms: N_8  and  C_10
REMARK    6  A    between atoms: C_12  and  C_13
REMARK    7  A    between atoms: C_16  and  C_17
REMARK    8  A    between atoms: C_20  and  O_21
REMARK    9  A    between atoms: O_21  and  C_22
REMARK   10  A    between atoms: C_23  and  O_24
REMARK   11  A    between atoms: O_24  and  C_25
REMARK                            x       y       z     vdW  Elec       q    Type
REMARK                         _______ _______ _______ _____ _____    ______ ____
ROOT
ATOM      1  N   UNL     1      -1.798  15.189  21.330  0.00  0.00    +0.000 N 
ATOM      2  C   UNL     1      -1.278  13.908  21.348  0.00  0.00    +0.000 A 
ATOM      3  C   UNL     1      -0.223  13.512  20.617  0.00  0.00    +0.000 A 
ATOM      4  C   UNL     1       0.479  14.575  19.825  0.00  0.00    +0.000 A 
ATOM      5  C   UNL     1       1.626  14.330  19.044  0.00  0.00    +0.000 A 
ATOM      6  C   UNL     1       2.250  15.332  18.268  0.00  0.00    +0.000 A 
ATOM      7  C   UNL     1       1.723  16.632  18.281  0.00  0.00    +0.000 A 
ATOM      8  C   UNL     1       0.615  16.903  19.090  0.00  0.00    +0.000 A 
ATOM      9  C   UNL     1      -0.000  15.891  19.841  0.00  0.00    +0.000 A 
ATOM     10  C   UNL     1      -1.190  16.243  20.651  0.00  0.00    +0.000 A 
ATOM     11  O   UNL     1      -1.583  17.405  20.701  0.00  0.00    +0.000 OA
ENDROOT
BRANCH   3  12
ATOM     12  C   UNL     1       0.339  12.104  20.757  0.00  0.00    +0.000 C 
ATOM     13  O   UNL     1       1.351  11.992  21.458  0.00  0.00    +0.000 OA
ATOM     14  N   UNL     1      -0.192  11.015  20.041  0.00  0.00    +0.000 N 
ATOM     15  C   UNL     1      -1.473  10.960  19.332  0.00  0.00    +0.000 C 
BRANCH  14  16
ATOM     16  C   UNL     1       0.566   9.786  19.999  0.00  0.00    +0.000 A 
ATOM     17  C   UNL     1       1.350   9.506  18.865  0.00  0.00    +0.000 A 
ATOM     18  C   UNL     1       2.102   8.327  18.766  0.00  0.00    +0.000 A 
ATOM     19  C   UNL     1       2.873   8.007  17.521  0.00  0.00    +0.000 C 
ATOM     20  C   UNL     1       2.085   7.422  19.827  0.00  0.00    +0.000 A 
ATOM     21  C   UNL     1       1.318   7.684  20.962  0.00  0.00    +0.000 A 
ATOM     22  C   UNL     1       0.534   8.848  21.058  0.00  0.00    +0.000 A 
ATOM     23  C   UNL     1      -0.351   8.995  22.265  0.00  0.00    +0.000 C 
ENDBRANCH  14  16
ENDBRANCH   3  12
BRANCH   1  25
ATOM     24  C   UNL     1      -2.994  14.727  23.443  0.00  0.00    +0.000 C 
ATOM     25  C   UNL     1      -2.994  15.480  22.131  0.00  0.00    +0.000 C 
ENDBRANCH   1  25
BRANCH   6  26
ATOM     26  O   UNL     1       3.353  15.094  17.493  0.00  0.00    +0.000 OA
ATOM     27  C   UNL     1       4.640  15.160  18.093  0.00  0.00    +0.000 C 
ENDBRANCH   6  26
BRANCH   7  28
ATOM     28  O   UNL     1       2.139  17.740  17.590  0.00  0.00    +0.000 OA
ATOM     29  C   UNL     1       1.220  18.416  16.746  0.00  0.00    +0.000 C 
ENDBRANCH   7  28
TORSDOF 5
ENDMDL
MODEL 7
REMARK VINA RESULT:      -6.9      4.603     10.630
REMARK  Name = 
REMARK  11 active torsions:
REMARK  status: ('A' for Active; 'I' for Inactive)
REMARK    1  A    between atoms: C_1  and  C_2
REMARK    2  A    between atoms: C_2  and  N_3
REMARK    3  A    between atoms: C_5  and  C_6
REMARK    4  A    between atoms: N_8  and  C_9
REMARK    5  A    between atoms: N_8  and  C_10
REMARK    6  A    between atoms: C_12  and  C_13
REMARK    7  A    between atoms: C_16  and  C_17
REMARK    8  A    between atoms: C_20  and  O_21
REMARK    9  A    between atoms: O_21  and  C_22
REMARK   10  A    between atoms: C_23  and  O_24
REMARK   11  A    between atoms: O_24  and  C_25
REMARK                            x       y       z     vdW  Elec       q    Type
REMARK                         _______ _______ _______ _____ _____    ______ ____
ROOT
ATOM      1  N   UNL     1      -0.473  15.578  19.647  0.00  0.00    +0.000 N 
ATOM      2  C   UNL     1       0.056  14.323  19.884  0.00  0.00    +0.000 A 
ATOM      3  C   UNL     1      -0.520  13.399  20.672  0.00  0.00    +0.000 A 
ATOM      4  C   UNL     1      -1.871  13.740  21.227  0.00  0.00    +0.000 A 
ATOM      5  C   UNL     1      -2.624  12.862  22.031  0.00  0.00    +0.000 A 
ATOM      6  C   UNL     1      -3.876  13.215  22.584  0.00  0.00    +0.000 A 
ATOM      7  C   UNL     1      -4.407  14.484  22.312  0.00  0.00    +0.000 A 
ATOM      8  C   UNL     1      -3.696  15.348  21.474  0.00  0.00    +0.000 A 
ATOM      9  C   UNL     1      -2.447  14.986  20.949  0.00  0.00    +0.000 A 
ATOM     10  C   UNL     1      -1.734  15.965  20.094  0.00  0.00    +0.000 A 
ATOM     11  O   UNL     1      -2.259  17.039  19.813  0.00  0.00    +0.000 OA
ENDROOT
BRANCH   3  12
ATOM     12  C   UNL     1       0.085  12.009  20.815  0.00  0.00    +0.000 C 
ATOM     13  O   UNL     1       1.029  11.908  21.607  0.00  0.00    +0.000 OA
ATOM     14  N   UNL     1      -0.329  10.930  20.012  0.00  0.00    +0.000 N 
ATOM     15  C   UNL     1      -1.533  10.855  19.179  0.00  0.00    +0.000 C 
BRANCH  14  16
ATOM     16  C   UNL     1       0.480   9.733  20.000  0.00  0.00    +0.000 A 
ATOM     17  C   UNL     1       1.299   9.474  18.885  0.00  0.00    +0.000 A 
ATOM     18  C   UNL     1       2.101   8.327  18.815  0.00  0.00    +0.000 A 
ATOM     19  C   UNL     1       2.911   8.026  17.590  0.00  0.00    +0.000 C 
ATOM     20  C   UNL     1       2.099   7.433  19.886  0.00  0.00    +0.000 A 
ATOM     21  C   UNL     1       1.298   7.675  21.002  0.00  0.00    +0.000 A 
ATOM     22  C   UNL     1       0.465   8.806  21.069  0.00  0.00    +0.000 A 
ATOM     23  C   UNL     1      -0.450   8.930  22.256  0.00  0.00    +0.000 C 
ENDBRANCH  14  16
ENDBRANCH   3  12
BRANCH   1  25
ATOM     24  C   UNL     1       1.724  16.088  18.636  0.00  0.00    +0.000 C 
ATOM     25  C   UNL     1       0.285  16.520  18.814  0.00  0.00    +0.000 C 
ENDBRANCH   1  25
BRANCH   6  26
ATOM     26  O   UNL     1      -4.601  12.372  23.382  0.00  0.00    +0.000 OA
ATOM     27  C   UNL     1      -4.396  12.414  24.787  0.00  0.00    +0.000 C 
ENDBRANCH   6  26
BRANCH   7  28
ATOM     28  O   UNL     1      -5.574  15.046  22.761  0.00  0.00    +0.000 OA
ATOM     29  C   UNL     1      -6.599  15.353  21.829  0.00  0.00    +0.000 C 
ENDBRANCH   7  28
TORSDOF 5
ENDMDL
MODEL 8
REMARK VINA RESULT:      -6.8      5.794      9.326
REMARK  Name = 
REMARK  11 active torsions:
REMARK  status: ('A' for Active; 'I' for Inactive)
REMARK    1  A    between atoms: C_1  and  C_2
REMARK    2  A    between atoms: C_2  and  N_3
REMARK    3  A    between atoms: C_5  and  C_6
REMARK    4  A    between atoms: N_8  and  C_9
REMARK    5  A    between atoms: N_8  and  C_10
REMARK    6  A    between atoms: C_12  and  C_13
REMARK    7  A    between atoms: C_16  and  C_17
REMARK    8  A    between atoms: C_20  and  O_21
REMARK    9  A    between atoms: O_21  and  C_22
REMARK   10  A    between atoms: C_23  and  O_24
REMARK   11  A    between atoms: O_24  and  C_25
REMARK                            x       y       z     vdW  Elec       q    Type
REMARK                         _______ _______ _______ _____ _____    ______ ____
ROOT
ATOM      1  N   UNL     1      -0.348  10.936  20.059  0.00  0.00    +0.000 N 
ATOM      2  C   UNL     1      -1.132  11.704  20.901  0.00  0.00    +0.000 A 
ATOM      3  C   UNL     1      -2.331  12.206  20.564  0.00  0.00    +0.000 A 
ATOM      4  C   UNL     1      -2.875  11.800  19.226  0.00  0.00    +0.000 A 
ATOM      5  C   UNL     1      -4.137  12.204  18.746  0.00  0.00    +0.000 A 
ATOM      6  C   UNL     1      -4.616  11.851  17.465  0.00  0.00    +0.000 A 
ATOM      7  C   UNL     1      -3.817  11.051  16.635  0.00  0.00    +0.000 A 
ATOM      8  C   UNL     1      -2.584  10.600  17.116  0.00  0.00    +0.000 A 
ATOM      9  C   UNL     1      -2.118  10.975  18.385  0.00  0.00    +0.000 A 
ATOM     10  C   UNL     1      -0.787  10.486  18.817  0.00  0.00    +0.000 A 
ATOM     11  O   UNL     1      -0.145   9.726  18.098  0.00  0.00    +0.000 OA
ENDROOT
BRANCH   3  12
ATOM     12  C   UNL     1      -3.169  12.973  21.578  0.00  0.00    +0.000 C 
ATOM     13  O   UNL     1      -3.840  12.285  22.357  0.00  0.00    +0.000 OA
ATOM     14  N   UNL     1      -3.262  14.376  21.558  0.00  0.00    +0.000 N 
ATOM     15  C   UNL     1      -2.401  15.312  20.829  0.00  0.00    +0.000 C 
BRANCH  14  16
ATOM     16  C   UNL     1      -4.290  15.008  22.352  0.00  0.00    +0.000 A 
ATOM     17  C   UNL     1      -5.559  15.220  21.782  0.00  0.00    +0.000 A 
ATOM     18  C   UNL     1      -6.594  15.833  22.503  0.00  0.00    +0.000 A 
ATOM     19  C   UNL     1      -7.917  16.120  21.858  0.00  0.00    +0.000 C 
ATOM     20  C   UNL     1      -6.362  16.221  23.822  0.00  0.00    +0.000 A 
ATOM     21  C   UNL     1      -5.113  16.014  24.407  0.00  0.00    +0.000 A 
ATOM     22  C   UNL     1      -4.058  15.431  23.682  0.00  0.00    +0.000 A 
ATOM     23  C   UNL     1      -2.713  15.351  24.351  0.00  0.00    +0.000 C 
ENDBRANCH  14  16
ENDBRANCH   3  12
BRANCH   1  25
ATOM     24  C   UNL     1       0.877   9.589  21.731  0.00  0.00    +0.000 C 
ATOM     25  C   UNL     1       0.974  10.498  20.526  0.00  0.00    +0.000 C 
ENDBRANCH   1  25
BRANCH   6  26
ATOM     26  O   UNL     1      -5.833  12.258  16.988  0.00  0.00    +0.000 OA
ATOM     27  C   UNL     1      -6.984  12.078  17.802  0.00  0.00    +0.000 C 
ENDBRANCH   6  26
BRANCH   7  28
ATOM     28  O   UNL     1      -4.062  10.618  15.358  0.00  0.00    +0.000 OA
ATOM     29  C   UNL     1      -2.994  10.085  14.590  0.00  0.00    +0.000 C 
ENDBRANCH   7  28
TORSDOF 5
ENDMDL
MODEL 9
REMARK VINA RESULT:      -6.8      5.309      9.570
REMARK  Name = 
REMARK  11 active torsions:
REMARK  status: ('A' for Active; 'I' for Inactive)
REMARK    1  A    between atoms: C_1  and  C_2
REMARK    2  A    between atoms: C_2  and  N_3
REMARK    3  A    between atoms: C_5  and  C_6
REMARK    4  A    between atoms: N_8  and  C_9
REMARK    5  A    between atoms: N_8  and  C_10
REMARK    6  A    between atoms: C_12  and  C_13
REMARK    7  A    between atoms: C_16  and  C_17
REMARK    8  A    between atoms: C_20  and  O_21
REMARK    9  A    between atoms: O_21  and  C_22
REMARK   10  A    between atoms: C_23  and  O_24
REMARK   11  A    between atoms: O_24  and  C_25
REMARK                            x       y       z     vdW  Elec       q    Type
REMARK                         _______ _______ _______ _____ _____    ______ ____
ROOT
ATOM      1  N   UNL     1       0.299  10.376  21.296  0.00  0.00    +0.000 N 
ATOM      2  C   UNL     1       0.532  11.406  20.403  0.00  0.00    +0.000 A 
ATOM      3  C   UNL     1      -0.157  12.558  20.385  0.00  0.00    +0.000 A 
ATOM      4  C   UNL     1      -1.161  12.755  21.482  0.00  0.00    +0.000 A 
ATOM      5  C   UNL     1      -1.931  13.926  21.629  0.00  0.00    +0.000 A 
ATOM      6  C   UNL     1      -2.905  14.078  22.642  0.00  0.00    +0.000 A 
ATOM      7  C   UNL     1      -3.110  13.032  23.553  0.00  0.00    +0.000 A 
ATOM      8  C   UNL     1      -2.319  11.883  23.452  0.00  0.00    +0.000 A 
ATOM      9  C   UNL     1      -1.368  11.744  22.430  0.00  0.00    +0.000 A 
ATOM     10  C   UNL     1      -0.588  10.486  22.363  0.00  0.00    +0.000 A 
ATOM     11  O   UNL     1      -0.737   9.620  23.221  0.00  0.00    +0.000 OA
ENDROOT
BRANCH   3  12
ATOM     12  C   UNL     1       0.216  13.678  19.422  0.00  0.00    +0.000 C 
ATOM     13  O   UNL     1      -0.228  13.574  18.273  0.00  0.00    +0.000 OA
ATOM     14  N   UNL     1       1.105  14.706  19.785  0.00  0.00    +0.000 N 
ATOM     15  C   UNL     1       1.556  15.054  21.136  0.00  0.00    +0.000 C 
BRANCH  14  16
ATOM     16  C   UNL     1       1.634  15.556  18.743  0.00  0.00    +0.000 A 
ATOM     17  C   UNL     1       0.872  16.654  18.304  0.00  0.00    +0.000 A 
ATOM     18  C   UNL     1       1.332  17.510  17.294  0.00  0.00    +0.000 A 
ATOM     19  C   UNL     1       0.477  18.631  16.785  0.00  0.00    +0.000 C 
ATOM     20  C   UNL     1       2.585  17.275  16.727  0.00  0.00    +0.000 A 
ATOM     21  C   UNL     1       3.358  16.195  17.152  0.00  0.00    +0.000 A 
ATOM     22  C   UNL     1       2.891  15.311  18.142  0.00  0.00    +0.000 A 
ATOM     23  C   UNL     1       3.738  14.108  18.458  0.00  0.00    +0.000 C 
ENDBRANCH  14  16
ENDBRANCH   3  12
BRANCH   1  25
ATOM     24  C   UNL     1       1.371   8.795  19.727  0.00  0.00    +0.000 C 
ATOM     25  C   UNL     1       1.083   9.140  21.171  0.00  0.00    +0.000 C 
ENDBRANCH   1  25
BRANCH   6  26
ATOM     26  O   UNL     1      -3.669  15.206  22.776  0.00  0.00    +0.000 OA
ATOM     27  C   UNL     1      -4.760  15.405  21.887  0.00  0.00    +0.000 C 
ENDBRANCH   6  26
BRANCH   7  28
ATOM     28  O   UNL     1      -4.011  12.947  24.582  0.00  0.00    +0.000 OA
ATOM     29  C   UNL     1      -5.356  12.591  24.299  0.00  0.00    +0.000 C 
ENDBRANCH   7  28
TORSDOF 5
ENDMDL
