MODEL 1
REMARK VINA RESULT:      -7.2      0.000      0.000
REMARK  Name = 
REMARK  2 active torsions:
REMARK  status: ('A' for Active; 'I' for Inactive)
REMARK    1  A    between atoms: N_12  and  C_13
REMARK    2  A    between atoms: C_13  and  C_14
REMARK                            x       y       z     vdW  Elec       q    Type
REMARK                         _______ _______ _______ _____ _____    ______ ____
ROOT
ATOM      1  S   UNL     1       7.752   6.790  18.200  0.00  0.00    +0.000 S 
ATOM      2  C   UNL     1       6.866   5.876  17.109  0.00  0.00    +0.000 A 
ATOM      3  O   UNL     1       7.443   5.855  15.854  0.00  0.00    +0.000 OA
ATOM      4  C   UNL     1       6.908   5.081  14.826  0.00  0.00    +0.000 A 
ATOM      5  C   UNL     1       7.574   5.159  13.600  0.00  0.00    +0.000 A 
ATOM      6  C   UNL     1       7.143   4.381  12.531  0.00  0.00    +0.000 A 
ATOM      7  C   UNL     1       6.057   3.526  12.700  0.00  0.00    +0.000 A 
ATOM      8  C   UNL     1       5.392   3.471  13.930  0.00  0.00    +0.000 A 
ATOM      9  C   UNL     1       5.805   4.266  15.015  0.00  0.00    +0.000 A 
ATOM     10  C   UNL     1       5.106   4.304  16.337  0.00  0.00    +0.000 A 
ATOM     11  S   UNL     1       3.718   3.360  16.608  0.00  0.00    +0.000 S 
ATOM     12  N   UNL     1       5.673   5.167  17.315  0.00  0.00    +0.000 N 
ENDROOT
BRANCH  12  13
ATOM     13  C   UNL     1       4.960   5.386  18.597  0.00  0.00    +0.000 C 
BRANCH  13  14
ATOM     14  C   UNL     1       3.871   6.445  18.583  0.00  0.00    +0.000 A 
ATOM     15  C   UNL     1       3.680   7.349  17.532  0.00  0.00    +0.000 A 
ATOM     16  C   UNL     1       2.697   8.338  17.614  0.00  0.00    +0.000 A 
ATOM     17  C   UNL     1       1.876   8.431  18.741  0.00  0.00    +0.000 A 
ATOM     18 CL   UNL     1       0.719   9.713  18.791  0.00  0.00    +0.000 Cl
ATOM     19  C   UNL     1       2.024   7.510  19.781  0.00  0.00    +0.000 A 
ATOM     20 CL   UNL     1       1.037   7.542  21.196  0.00  0.00    +0.000 Cl
ATOM     21  C   UNL     1       3.010   6.523  19.695  0.00  0.00    +0.000 A 
ENDBRANCH  13  14
ENDBRANCH  12  13
TORSDOF 2
ENDMDL
MODEL 2
REMARK VINA RESULT:      -6.3      4.108      6.733
REMARK  Name = 
REMARK  2 active torsions:
REMARK  status: ('A' for Active; 'I' for Inactive)
REMARK    1  A    between atoms: N_12  and  C_13
REMARK    2  A    between atoms: C_13  and  C_14
REMARK                            x       y       z     vdW  Elec       q    Type
REMARK                         _______ _______ _______ _____ _____    ______ ____
ROOT
ATOM      1  S   UNL     1       7.419   4.423  18.214  0.00  0.00    +0.000 S 
ATOM      2  C   UNL     1       5.776   4.594  18.503  0.00  0.00    +0.000 A 
ATOM      3  O   UNL     1       5.311   3.686  19.433  0.00  0.00    +0.000 OA
ATOM      4  C   UNL     1       3.990   3.718  19.875  0.00  0.00    +0.000 A 
ATOM      5  C   UNL     1       3.638   2.735  20.806  0.00  0.00    +0.000 A 
ATOM      6  C   UNL     1       2.356   2.722  21.343  0.00  0.00    +0.000 A 
ATOM      7  C   UNL     1       1.440   3.696  20.954  0.00  0.00    +0.000 A 
ATOM      8  C   UNL     1       1.803   4.665  20.011  0.00  0.00    +0.000 A 
ATOM      9  C   UNL     1       3.091   4.679  19.444  0.00  0.00    +0.000 A 
ATOM     10  C   UNL     1       3.529   5.644  18.389  0.00  0.00    +0.000 A 
ATOM     11  S   UNL     1       2.452   6.814  17.788  0.00  0.00    +0.000 S 
ATOM     12  N   UNL     1       4.872   5.507  17.940  0.00  0.00    +0.000 N 
ENDROOT
BRANCH  12  13
ATOM     13  C   UNL     1       5.343   6.316  16.789  0.00  0.00    +0.000 C 
BRANCH  13  14
ATOM     14  C   UNL     1       5.679   5.546  15.524  0.00  0.00    +0.000 A 
ATOM     15  C   UNL     1       4.896   4.502  15.019  0.00  0.00    +0.000 A 
ATOM     16  C   UNL     1       5.299   3.795  13.883  0.00  0.00    +0.000 A 
ATOM     17  C   UNL     1       6.483   4.131  13.222  0.00  0.00    +0.000 A 
ATOM     18 CL   UNL     1       6.941   3.178  11.856  0.00  0.00    +0.000 Cl
ATOM     19  C   UNL     1       7.255   5.199  13.687  0.00  0.00    +0.000 A 
ATOM     20 CL   UNL     1       8.719   5.691  12.915  0.00  0.00    +0.000 Cl
ATOM     21  C   UNL     1       6.849   5.902  14.825  0.00  0.00    +0.000 A 
ENDBRANCH  13  14
ENDBRANCH  12  13
TORSDOF 2
ENDMDL
MODEL 3
REMARK VINA RESULT:      -6.3      4.931      7.030
REMARK  Name = 
REMARK  2 active torsions:
REMARK  status: ('A' for Active; 'I' for Inactive)
REMARK    1  A    between atoms: N_12  and  C_13
REMARK    2  A    between atoms: C_13  and  C_14
REMARK                            x       y       z     vdW  Elec       q    Type
REMARK                         _______ _______ _______ _____ _____    ______ ____
ROOT
ATOM      1  S   UNL     1      -0.392   9.042  22.374  0.00  0.00    +0.000 S 
ATOM      2  C   UNL     1       0.640   8.475  21.181  0.00  0.00    +0.000 A 
ATOM      3  O   UNL     1       1.044   7.175  21.412  0.00  0.00    +0.000 OA
ATOM      4  C   UNL     1       1.836   6.491  20.492  0.00  0.00    +0.000 A 
ATOM      5  C   UNL     1       2.191   5.186  20.850  0.00  0.00    +0.000 A 
ATOM      6  C   UNL     1       2.935   4.409  19.970  0.00  0.00    +0.000 A 
ATOM      7  C   UNL     1       3.310   4.937  18.738  0.00  0.00    +0.000 A 
ATOM      8  C   UNL     1       2.959   6.249  18.400  0.00  0.00    +0.000 A 
ATOM      9  C   UNL     1       2.222   7.054  19.288  0.00  0.00    +0.000 A 
ATOM     10  C   UNL     1       1.864   8.482  19.021  0.00  0.00    +0.000 A 
ATOM     11  S   UNL     1       2.354   9.240  17.579  0.00  0.00    +0.000 S 
ATOM     12  N   UNL     1       1.111   9.135  20.035  0.00  0.00    +0.000 N 
ENDROOT
BRANCH  12  13
ATOM     13  C   UNL     1       0.846  10.590  19.926  0.00  0.00    +0.000 C 
BRANCH  13  14
ATOM     14  C   UNL     1      -0.532  10.982  19.422  0.00  0.00    +0.000 A 
ATOM     15  C   UNL     1      -1.344  11.938  20.042  0.00  0.00    +0.000 A 
ATOM     16  C   UNL     1      -2.628  12.203  19.559  0.00  0.00    +0.000 A 
ATOM     17  C   UNL     1      -3.116  11.530  18.436  0.00  0.00    +0.000 A 
ATOM     18 CL   UNL     1      -4.731  11.875  17.930  0.00  0.00    +0.000 Cl
ATOM     19  C   UNL     1      -2.303  10.604  17.778  0.00  0.00    +0.000 A 
ATOM     20 CL   UNL     1      -2.823   9.747  16.373  0.00  0.00    +0.000 Cl
ATOM     21  C   UNL     1      -1.020  10.341  18.266  0.00  0.00    +0.000 A 
ENDBRANCH  13  14
ENDBRANCH  12  13
TORSDOF 2
ENDMDL
MODEL 4
REMARK VINA RESULT:      -6.3      6.325      8.561
REMARK  Name = 
REMARK  2 active torsions:
REMARK  status: ('A' for Active; 'I' for Inactive)
REMARK    1  A    between atoms: N_12  and  C_13
REMARK    2  A    between atoms: C_13  and  C_14
REMARK                            x       y       z     vdW  Elec       q    Type
REMARK                         _______ _______ _______ _____ _____    ______ ____
ROOT
ATOM      1  S   UNL     1      -0.278   9.490  23.394  0.00  0.00    +0.000 S 
ATOM      2  C   UNL     1       0.358   9.728  21.861  0.00  0.00    +0.000 A 
ATOM      3  O   UNL     1       0.985   8.599  21.374  0.00  0.00    +0.000 OA
ATOM      4  C   UNL     1       1.506   8.563  20.082  0.00  0.00    +0.000 A 
ATOM      5  C   UNL     1       2.132   7.368  19.714  0.00  0.00    +0.000 A 
ATOM      6  C   UNL     1       2.634   7.222  18.425  0.00  0.00    +0.000 A 
ATOM      7  C   UNL     1       2.498   8.266  17.514  0.00  0.00    +0.000 A 
ATOM      8  C   UNL     1       1.881   9.461  17.903  0.00  0.00    +0.000 A 
ATOM      9  C   UNL     1       1.386   9.631  19.208  0.00  0.00    +0.000 A 
ATOM     10  C   UNL     1       0.771  10.899  19.711  0.00  0.00    +0.000 A 
ATOM     11  S   UNL     1       0.641  12.257  18.696  0.00  0.00    +0.000 S 
ATOM     12  N   UNL     1       0.323  10.880  21.061  0.00  0.00    +0.000 N 
ENDROOT
BRANCH  12  13
ATOM     13  C   UNL     1      -0.155  12.136  21.688  0.00  0.00    +0.000 C 
BRANCH  13  14
ATOM     14  C   UNL     1      -1.662  12.326  21.737  0.00  0.00    +0.000 A 
ATOM     15  C   UNL     1      -2.453  12.559  20.607  0.00  0.00    +0.000 A 
ATOM     16  C   UNL     1      -3.825  12.787  20.733  0.00  0.00    +0.000 A 
ATOM     17  C   UNL     1      -4.435  12.769  21.990  0.00  0.00    +0.000 A 
ATOM     18 CL   UNL     1      -6.126  13.110  22.070  0.00  0.00    +0.000 Cl
ATOM     19  C   UNL     1      -3.668  12.494  23.126  0.00  0.00    +0.000 A 
ATOM     20 CL   UNL     1      -4.347  12.432  24.711  0.00  0.00    +0.000 Cl
ATOM     21  C   UNL     1      -2.295  12.268  22.995  0.00  0.00    +0.000 A 
ENDBRANCH  13  14
ENDBRANCH  12  13
TORSDOF 2
ENDMDL
MODEL 5
REMARK VINA RESULT:      -6.1      4.316      7.779
REMARK  Name = 
REMARK  2 active torsions:
REMARK  status: ('A' for Active; 'I' for Inactive)
REMARK    1  A    between atoms: N_12  and  C_13
REMARK    2  A    between atoms: C_13  and  C_14
REMARK                            x       y       z     vdW  Elec       q    Type
REMARK                         _______ _______ _______ _____ _____    ______ ____
ROOT
ATOM      1  S   UNL     1       1.799   4.509  20.984  0.00  0.00    +0.000 S 
ATOM      2  C   UNL     1       1.595   6.100  20.497  0.00  0.00    +0.000 A 
ATOM      3  O   UNL     1       1.015   6.878  21.479  0.00  0.00    +0.000 OA
ATOM      4  C   UNL     1       0.838   8.249  21.303  0.00  0.00    +0.000 A 
ATOM      5  C   UNL     1       0.224   8.922  22.364  0.00  0.00    +0.000 A 
ATOM      6  C   UNL     1       0.054  10.300  22.299  0.00  0.00    +0.000 A 
ATOM      7  C   UNL     1       0.507  10.995  21.181  0.00  0.00    +0.000 A 
ATOM      8  C   UNL     1       1.107  10.305  20.121  0.00  0.00    +0.000 A 
ATOM      9  C   UNL     1       1.268   8.908  20.164  0.00  0.00    +0.000 A 
ATOM     10  C   UNL     1       1.844   8.099  19.045  0.00  0.00    +0.000 A 
ATOM     11  S   UNL     1       2.344   8.851  17.604  0.00  0.00    +0.000 S 
ATOM     12  N   UNL     1       1.932   6.698  19.273  0.00  0.00    +0.000 N 
ENDROOT
BRANCH  12  13
ATOM     13  C   UNL     1       2.344   5.803  18.164  0.00  0.00    +0.000 C 
BRANCH  13  14
ATOM     14  C   UNL     1       3.809   5.403  18.138  0.00  0.00    +0.000 A 
ATOM     15  C   UNL     1       4.693   5.622  19.200  0.00  0.00    +0.000 A 
ATOM     16  C   UNL     1       6.044   5.285  19.082  0.00  0.00    +0.000 A 
ATOM     17  C   UNL     1       6.531   4.705  17.908  0.00  0.00    +0.000 A 
ATOM     18 CL   UNL     1       8.222   4.364  17.820  0.00  0.00    +0.000 Cl
ATOM     19  C   UNL     1       5.654   4.439  16.854  0.00  0.00    +0.000 A 
ATOM     20 CL   UNL     1       6.171   3.706  15.380  0.00  0.00    +0.000 Cl
ATOM     21  C   UNL     1       4.303   4.780  16.975  0.00  0.00    +0.000 A 
ENDBRANCH  13  14
ENDBRANCH  12  13
TORSDOF 2
ENDMDL
MODEL 6
REMARK VINA RESULT:      -6.1      4.907      6.815
REMARK  Name = 
REMARK  2 active torsions:
REMARK  status: ('A' for Active; 'I' for Inactive)
REMARK    1  A    between atoms: N_12  and  C_13
REMARK    2  A    between atoms: C_13  and  C_14
REMARK                            x       y       z     vdW  Elec       q    Type
REMARK                         _______ _______ _______ _____ _____    ______ ____
ROOT
ATOM      1  S   UNL     1      -0.405   8.724  22.177  0.00  0.00    +0.000 S 
ATOM      2  C   UNL     1       0.696   8.167  21.042  0.00  0.00    +0.000 A 
ATOM      3  O   UNL     1       1.133   6.887  21.320  0.00  0.00    +0.000 OA
ATOM      4  C   UNL     1       1.987   6.211  20.451  0.00  0.00    +0.000 A 
ATOM      5  C   UNL     1       2.371   4.929  20.855  0.00  0.00    +0.000 A 
ATOM      6  C   UNL     1       3.179   4.158  20.026  0.00  0.00    +0.000 A 
ATOM      7  C   UNL     1       3.588   4.671  18.799  0.00  0.00    +0.000 A 
ATOM      8  C   UNL     1       3.206   5.963  18.415  0.00  0.00    +0.000 A 
ATOM      9  C   UNL     1       2.405   6.761  19.252  0.00  0.00    +0.000 A 
ATOM     10  C   UNL     1       2.010   8.169  18.935  0.00  0.00    +0.000 A 
ATOM     11  S   UNL     1       2.535   8.910  17.498  0.00  0.00    +0.000 S 
ATOM     12  N   UNL     1       1.192   8.817  19.901  0.00  0.00    +0.000 N 
ENDROOT
BRANCH  12  13
ATOM     13  C   UNL     1       0.882  10.259  19.746  0.00  0.00    +0.000 C 
BRANCH  13  14
ATOM     14  C   UNL     1      -0.467  10.589  19.131  0.00  0.00    +0.000 A 
ATOM     15  C   UNL     1      -0.917  10.063  17.915  0.00  0.00    +0.000 A 
ATOM     16  C   UNL     1      -2.144  10.460  17.378  0.00  0.00    +0.000 A 
ATOM     17  C   UNL     1      -2.953  11.376  18.057  0.00  0.00    +0.000 A 
ATOM     18 CL   UNL     1      -4.432  11.856  17.305  0.00  0.00    +0.000 Cl
ATOM     19  C   UNL     1      -2.540  11.878  19.293  0.00  0.00    +0.000 A 
ATOM     20 CL   UNL     1      -3.488  12.995  20.205  0.00  0.00    +0.000 Cl
ATOM     21  C   UNL     1      -1.310  11.479  19.826  0.00  0.00    +0.000 A 
ENDBRANCH  13  14
ENDBRANCH  12  13
TORSDOF 2
ENDMDL
MODEL 7
REMARK VINA RESULT:      -6.0      1.632      2.804
REMARK  Name = 
REMARK  2 active torsions:
REMARK  status: ('A' for Active; 'I' for Inactive)
REMARK    1  A    between atoms: N_12  and  C_13
REMARK    2  A    between atoms: C_13  and  C_14
REMARK                            x       y       z     vdW  Elec       q    Type
REMARK                         _______ _______ _______ _____ _____    ______ ____
ROOT
ATOM      1  S   UNL     1       1.732   3.990  17.893  0.00  0.00    +0.000 S 
ATOM      2  C   UNL     1       3.229   4.545  17.383  0.00  0.00    +0.000 A 
ATOM      3  O   UNL     1       3.691   3.862  16.275  0.00  0.00    +0.000 OA
ATOM      4  C   UNL     1       4.879   4.227  15.645  0.00  0.00    +0.000 A 
ATOM      5  C   UNL     1       5.247   3.446  14.545  0.00  0.00    +0.000 A 
ATOM      6  C   UNL     1       6.389   3.769  13.821  0.00  0.00    +0.000 A 
ATOM      7  C   UNL     1       7.148   4.874  14.196  0.00  0.00    +0.000 A 
ATOM      8  C   UNL     1       6.774   5.638  15.309  0.00  0.00    +0.000 A 
ATOM      9  C   UNL     1       5.632   5.312  16.062  0.00  0.00    +0.000 A 
ATOM     10  C   UNL     1       5.207   6.044  17.295  0.00  0.00    +0.000 A 
ATOM     11  S   UNL     1       6.120   7.354  17.880  0.00  0.00    +0.000 S 
ATOM     12  N   UNL     1       4.020   5.571  17.921  0.00  0.00    +0.000 N 
ENDROOT
BRANCH  12  13
ATOM     13  C   UNL     1       3.611   6.135  19.231  0.00  0.00    +0.000 C 
BRANCH  13  14
ATOM     14  C   UNL     1       2.633   7.297  19.181  0.00  0.00    +0.000 A 
ATOM     15  C   UNL     1       2.389   8.059  18.033  0.00  0.00    +0.000 A 
ATOM     16  C   UNL     1       1.522   9.153  18.076  0.00  0.00    +0.000 A 
ATOM     17  C   UNL     1       0.869   9.495  19.263  0.00  0.00    +0.000 A 
ATOM     18 CL   UNL     1      -0.147  10.891  19.250  0.00  0.00    +0.000 Cl
ATOM     19  C   UNL     1       1.067   8.719  20.408  0.00  0.00    +0.000 A 
ATOM     20 CL   UNL     1       0.283   9.060  21.907  0.00  0.00    +0.000 Cl
ATOM     21  C   UNL     1       1.937   7.625  20.361  0.00  0.00    +0.000 A 
ENDBRANCH  13  14
ENDBRANCH  12  13
TORSDOF 2
ENDMDL
MODEL 8
REMARK VINA RESULT:      -5.9      7.451     10.821
REMARK  Name = 
REMARK  2 active torsions:
REMARK  status: ('A' for Active; 'I' for Inactive)
REMARK    1  A    between atoms: N_12  and  C_13
REMARK    2  A    between atoms: C_13  and  C_14
REMARK                            x       y       z     vdW  Elec       q    Type
REMARK                         _______ _______ _______ _____ _____    ______ ____
ROOT
ATOM      1  S   UNL     1      -1.597  14.171  21.056  0.00  0.00    +0.000 S 
ATOM      2  C   UNL     1      -2.517  13.152  20.094  0.00  0.00    +0.000 A 
ATOM      3  O   UNL     1      -3.839  13.110  20.490  0.00  0.00    +0.000 OA
ATOM      4  C   UNL     1      -4.787  12.388  19.768  0.00  0.00    +0.000 A 
ATOM      5  C   UNL     1      -6.087  12.411  20.282  0.00  0.00    +0.000 A 
ATOM      6  C   UNL     1      -7.110  11.763  19.599  0.00  0.00    +0.000 A 
ATOM      7  C   UNL     1      -6.827  11.106  18.405  0.00  0.00    +0.000 A 
ATOM      8  C   UNL     1      -5.518  11.080  17.910  0.00  0.00    +0.000 A 
ATOM      9  C   UNL     1      -4.469  11.715  18.601  0.00  0.00    +0.000 A 
ATOM     10  C   UNL     1      -3.038  11.678  18.165  0.00  0.00    +0.000 A 
ATOM     11  S   UNL     1      -2.584  10.826  16.765  0.00  0.00    +0.000 S 
ATOM     12  N   UNL     1      -2.119  12.383  18.990  0.00  0.00    +0.000 N 
ENDROOT
BRANCH  12  13
ATOM     13  C   UNL     1      -0.664  12.271  18.722  0.00  0.00    +0.000 C 
BRANCH  13  14
ATOM     14  C   UNL     1       0.015  11.016  19.242  0.00  0.00    +0.000 A 
ATOM     15  C   UNL     1       0.878  10.225  18.474  0.00  0.00    +0.000 A 
ATOM     16  C   UNL     1       1.418   9.048  18.998  0.00  0.00    +0.000 A 
ATOM     17  C   UNL     1       1.122   8.650  20.304  0.00  0.00    +0.000 A 
ATOM     18 CL   UNL     1       1.788   7.157  20.862  0.00  0.00    +0.000 Cl
ATOM     19  C   UNL     1       0.298   9.451  21.100  0.00  0.00    +0.000 A 
ATOM     20 CL   UNL     1      -0.099   9.043  22.729  0.00  0.00    +0.000 Cl
ATOM     21  C   UNL     1      -0.243  10.627  20.571  0.00  0.00    +0.000 A 
ENDBRANCH  13  14
ENDBRANCH  12  13
TORSDOF 2
ENDMDL
MODEL 9
REMARK VINA RESULT:      -5.9      5.988      9.543
REMARK  Name = 
REMARK  2 active torsions:
REMARK  status: ('A' for Active; 'I' for Inactive)
REMARK    1  A    between atoms: N_12  and  C_13
REMARK    2  A    between atoms: C_13  and  C_14
REMARK                            x       y       z     vdW  Elec       q    Type
REMARK                         _______ _______ _______ _____ _____    ______ ____
ROOT
ATOM      1  S   UNL     1       1.825  12.766  20.448  0.00  0.00    +0.000 S 
ATOM      2  C   UNL     1       0.332  12.242  19.895  0.00  0.00    +0.000 A 
ATOM      3  O   UNL     1      -0.715  12.838  20.571  0.00  0.00    +0.000 OA
ATOM      4  C   UNL     1      -2.039  12.601  20.204  0.00  0.00    +0.000 A 
ATOM      5  C   UNL     1      -3.007  13.249  20.978  0.00  0.00    +0.000 A 
ATOM      6  C   UNL     1      -4.352  13.115  20.652  0.00  0.00    +0.000 A 
ATOM      7  C   UNL     1      -4.717  12.343  19.554  0.00  0.00    +0.000 A 
ATOM      8  C   UNL     1      -3.737  11.689  18.797  0.00  0.00    +0.000 A 
ATOM      9  C   UNL     1      -2.374  11.800  19.126  0.00  0.00    +0.000 A 
ATOM     10  C   UNL     1      -1.278  11.082  18.402  0.00  0.00    +0.000 A 
ATOM     11  S   UNL     1      -1.637  10.048  17.101  0.00  0.00    +0.000 S 
ATOM     12  N   UNL     1       0.041  11.322  18.876  0.00  0.00    +0.000 N 
ENDROOT
BRANCH  12  13
ATOM     13  C   UNL     1       1.170  10.536  18.321  0.00  0.00    +0.000 C 
BRANCH  13  14
ATOM     14  C   UNL     1       1.425   9.186  18.969  0.00  0.00    +0.000 A 
ATOM     15  C   UNL     1       1.029   8.861  20.272  0.00  0.00    +0.000 A 
ATOM     16  C   UNL     1       1.352   7.620  20.825  0.00  0.00    +0.000 A 
ATOM     17  C   UNL     1       2.061   6.674  20.081  0.00  0.00    +0.000 A 
ATOM     18 CL   UNL     1       2.468   5.183  20.853  0.00  0.00    +0.000 Cl
ATOM     19  C   UNL     1       2.426   6.964  18.764  0.00  0.00    +0.000 A 
ATOM     20 CL   UNL     1       3.284   5.843  17.771  0.00  0.00    +0.000 Cl
ATOM     21  C   UNL     1       2.102   8.208  18.215  0.00  0.00    +0.000 A 
ENDBRANCH  13  14
ENDBRANCH  12  13
TORSDOF 2
ENDMDL
