MODEL 1
REMARK VINA RESULT:      -7.3      0.000      0.000
REMARK  Name = 
REMARK  4 active torsions:
REMARK  status: ('A' for Active; 'I' for Inactive)
REMARK    1  A    between atoms: C_1  and  C_2
REMARK    2  A    between atoms: C_2  and  C_3
REMARK    3  A    between atoms: C_2  and  C_4
REMARK    4  A    between atoms: C_12  and  N_13
REMARK                            x       y       z     vdW  Elec       q    Type
REMARK                         _______ _______ _______ _____ _____    ______ ____
ROOT
ATOM      1  C   UNL     1       3.931   4.354  19.359  0.00  0.00    +0.000 C 
ATOM      2  C   UNL     1       2.554   5.035  19.090  0.00  0.00    +0.000 C 
ATOM      3  C   UNL     1       1.782   4.356  17.950  0.00  0.00    +0.000 C 
ATOM      4  C   UNL     1       1.558   2.866  18.259  0.00  0.00    +0.000 C 
ATOM      5  C   UNL     1       0.696   2.762  19.522  0.00  0.00    +0.000 C 
ATOM      6  C   UNL     1       1.418   3.438  20.699  0.00  0.00    +0.000 C 
ATOM      7  C   UNL     1       1.683   4.917  20.365  0.00  0.00    +0.000 C 
ATOM      8  C   UNL     1       2.768   2.739  20.934  0.00  0.00    +0.000 C 
ATOM      9  C   UNL     1       3.668   2.836  19.668  0.00  0.00    +0.000 C 
ATOM     10  C   UNL     1       2.895   2.151  18.518  0.00  0.00    +0.000 C 
ENDROOT
BRANCH   1  12
ATOM     11  C   UNL     1       4.786   5.532  17.107  0.00  0.00    +0.000 C 
ATOM     12  C   UNL     1       5.091   4.701  18.353  0.00  0.00    +0.000 C 
ATOM     13  C   UNL     1       6.279   5.356  19.077  0.00  0.00    +0.000 C 
ENDBRANCH   1  12
BRANCH   9  14
ATOM     14  N   UNL     1       4.899   2.107  19.967  0.00  0.00    +0.000 NA
ATOM     15  H   UNL     1       5.703   2.615  19.605  0.00  0.00    +0.000 HD
ATOM     16  H   UNL     1       4.894   1.202  19.498  0.00  0.00    +0.000 HD
ENDBRANCH   9  14
TORSDOF 2
ENDMDL
MODEL 2
REMARK VINA RESULT:      -6.9      1.107      1.338
REMARK  Name = 
REMARK  4 active torsions:
REMARK  status: ('A' for Active; 'I' for Inactive)
REMARK    1  A    between atoms: C_1  and  C_2
REMARK    2  A    between atoms: C_2  and  C_3
REMARK    3  A    between atoms: C_2  and  C_4
REMARK    4  A    between atoms: C_12  and  N_13
REMARK                            x       y       z     vdW  Elec       q    Type
REMARK                         _______ _______ _______ _____ _____    ______ ____
ROOT
ATOM      1  C   UNL     1       3.573   5.024  18.981  0.00  0.00    +0.000 C 
ATOM      2  C   UNL     1       2.017   5.004  18.866  0.00  0.00    +0.000 C 
ATOM      3  C   UNL     1       1.532   4.157  17.682  0.00  0.00    +0.000 C 
ATOM      4  C   UNL     1       2.050   2.713  17.799  0.00  0.00    +0.000 C 
ATOM      5  C   UNL     1       1.464   2.096  19.074  0.00  0.00    +0.000 C 
ATOM      6  C   UNL     1       1.911   2.914  20.297  0.00  0.00    +0.000 C 
ATOM      7  C   UNL     1       1.432   4.369  20.152  0.00  0.00    +0.000 C 
ATOM      8  C   UNL     1       3.447   2.908  20.376  0.00  0.00    +0.000 C 
ATOM      9  C   UNL     1       4.068   3.538  19.097  0.00  0.00    +0.000 C 
ATOM     10  C   UNL     1       3.584   2.686  17.900  0.00  0.00    +0.000 C 
ENDROOT
BRANCH   1  12
ATOM     11  C   UNL     1       4.761   5.434  16.612  0.00  0.00    +0.000 C 
ATOM     12  C   UNL     1       4.335   5.969  17.979  0.00  0.00    +0.000 C 
ATOM     13  C   UNL     1       3.564   7.280  17.752  0.00  0.00    +0.000 C 
ENDBRANCH   1  12
BRANCH   9  14
ATOM     14  N   UNL     1       5.520   3.444  19.241  0.00  0.00    +0.000 NA
ATOM     15  H   UNL     1       5.766   2.602  19.757  0.00  0.00    +0.000 HD
ATOM     16  H   UNL     1       5.870   4.230  19.787  0.00  0.00    +0.000 HD
ENDBRANCH   9  14
TORSDOF 2
ENDMDL
MODEL 3
REMARK VINA RESULT:      -6.5      0.539      1.038
REMARK  Name = 
REMARK  4 active torsions:
REMARK  status: ('A' for Active; 'I' for Inactive)
REMARK    1  A    between atoms: C_1  and  C_2
REMARK    2  A    between atoms: C_2  and  C_3
REMARK    3  A    between atoms: C_2  and  C_4
REMARK    4  A    between atoms: C_12  and  N_13
REMARK                            x       y       z     vdW  Elec       q    Type
REMARK                         _______ _______ _______ _____ _____    ______ ____
ROOT
ATOM      1  C   UNL     1       3.855   4.466  19.150  0.00  0.00    +0.000 C 
ATOM      2  C   UNL     1       2.442   5.101  18.968  0.00  0.00    +0.000 C 
ATOM      3  C   UNL     1       1.595   4.352  17.929  0.00  0.00    +0.000 C 
ATOM      4  C   UNL     1       1.439   2.873  18.321  0.00  0.00    +0.000 C 
ATOM      5  C   UNL     1       0.688   2.808  19.656  0.00  0.00    +0.000 C 
ATOM      6  C   UNL     1       1.488   3.555  20.737  0.00  0.00    +0.000 C 
ATOM      7  C   UNL     1       1.683   5.022  20.316  0.00  0.00    +0.000 C 
ATOM      8  C   UNL     1       2.871   2.899  20.887  0.00  0.00    +0.000 C 
ATOM      9  C   UNL     1       3.659   2.959  19.547  0.00  0.00    +0.000 C 
ATOM     10  C   UNL     1       2.812   2.202  18.498  0.00  0.00    +0.000 C 
ENDROOT
BRANCH   1  12
ATOM     11  C   UNL     1       6.405   4.771  18.382  0.00  0.00    +0.000 C 
ATOM     12  C   UNL     1       4.916   4.793  18.035  0.00  0.00    +0.000 C 
ATOM     13  C   UNL     1       4.711   3.910  16.793  0.00  0.00    +0.000 C 
ENDBRANCH   1  12
BRANCH   9  14
ATOM     14  N   UNL     1       4.931   2.273  19.773  0.00  0.00    +0.000 NA
ATOM     15  H   UNL     1       5.250   2.435  20.726  0.00  0.00    +0.000 HD
ATOM     16  H   UNL     1       5.650   2.654  19.160  0.00  0.00    +0.000 HD
ENDBRANCH   9  14
TORSDOF 2
ENDMDL
MODEL 4
REMARK VINA RESULT:      -6.5      1.498      2.259
REMARK  Name = 
REMARK  4 active torsions:
REMARK  status: ('A' for Active; 'I' for Inactive)
REMARK    1  A    between atoms: C_1  and  C_2
REMARK    2  A    between atoms: C_2  and  C_3
REMARK    3  A    between atoms: C_2  and  C_4
REMARK    4  A    between atoms: C_12  and  N_13
REMARK                            x       y       z     vdW  Elec       q    Type
REMARK                         _______ _______ _______ _____ _____    ______ ____
ROOT
ATOM      1  C   UNL     1       3.620   4.748  17.708  0.00  0.00    +0.000 C 
ATOM      2  C   UNL     1       2.618   3.656  17.220  0.00  0.00    +0.000 C 
ATOM      3  C   UNL     1       3.080   2.238  17.584  0.00  0.00    +0.000 C 
ATOM      4  C   UNL     1       3.275   2.104  19.104  0.00  0.00    +0.000 C 
ATOM      5  C   UNL     1       1.920   2.332  19.783  0.00  0.00    +0.000 C 
ATOM      6  C   UNL     1       1.401   3.740  19.443  0.00  0.00    +0.000 C 
ATOM      7  C   UNL     1       1.254   3.884  17.918  0.00  0.00    +0.000 C 
ATOM      8  C   UNL     1       2.413   4.785  19.941  0.00  0.00    +0.000 C 
ATOM      9  C   UNL     1       3.797   4.582  19.260  0.00  0.00    +0.000 C 
ATOM     10  C   UNL     1       4.269   3.156  19.626  0.00  0.00    +0.000 C 
ENDROOT
BRANCH   1  12
ATOM     11  C   UNL     1       5.187   4.004  15.663  0.00  0.00    +0.000 C 
ATOM     12  C   UNL     1       4.920   4.939  16.843  0.00  0.00    +0.000 C 
ATOM     13  C   UNL     1       5.044   6.385  16.335  0.00  0.00    +0.000 C 
ENDBRANCH   1  12
BRANCH   9  14
ATOM     14  N   UNL     1       4.699   5.583  19.828  0.00  0.00    +0.000 NA
ATOM     15  H   UNL     1       5.484   5.742  19.199  0.00  0.00    +0.000 HD
ATOM     16  H   UNL     1       5.095   5.243  20.703  0.00  0.00    +0.000 HD
ENDBRANCH   9  14
TORSDOF 2
ENDMDL
MODEL 5
REMARK VINA RESULT:      -6.4      1.564      2.613
REMARK  Name = 
REMARK  4 active torsions:
REMARK  status: ('A' for Active; 'I' for Inactive)
REMARK    1  A    between atoms: C_1  and  C_2
REMARK    2  A    between atoms: C_2  and  C_3
REMARK    3  A    between atoms: C_2  and  C_4
REMARK    4  A    between atoms: C_12  and  N_13
REMARK                            x       y       z     vdW  Elec       q    Type
REMARK                         _______ _______ _______ _____ _____    ______ ____
ROOT
ATOM      1  C   UNL     1       2.900   5.173  19.686  0.00  0.00    +0.000 C 
ATOM      2  C   UNL     1       1.636   4.320  19.360  0.00  0.00    +0.000 C 
ATOM      3  C   UNL     1       1.430   4.137  17.849  0.00  0.00    +0.000 C 
ATOM      4  C   UNL     1       2.664   3.478  17.210  0.00  0.00    +0.000 C 
ATOM      5  C   UNL     1       2.833   2.083  17.822  0.00  0.00    +0.000 C 
ATOM      6  C   UNL     1       3.033   2.205  19.342  0.00  0.00    +0.000 C 
ATOM      7  C   UNL     1       1.817   2.908  19.970  0.00  0.00    +0.000 C 
ATOM      8  C   UNL     1       4.288   3.049  19.621  0.00  0.00    +0.000 C 
ATOM      9  C   UNL     1       4.139   4.475  19.018  0.00  0.00    +0.000 C 
ATOM     10  C   UNL     1       3.935   4.296  17.496  0.00  0.00    +0.000 C 
ENDROOT
BRANCH   1  12
ATOM     11  C   UNL     1       2.477   7.307  18.119  0.00  0.00    +0.000 C 
ATOM     12  C   UNL     1       2.758   6.730  19.506  0.00  0.00    +0.000 C 
ATOM     13  C   UNL     1       1.717   7.311  20.477  0.00  0.00    +0.000 C 
ENDBRANCH   1  12
BRANCH   9  14
ATOM     14  N   UNL     1       5.390   5.182  19.290  0.00  0.00    +0.000 NA
ATOM     15  H   UNL     1       5.285   6.172  19.078  0.00  0.00    +0.000 HD
ATOM     16  H   UNL     1       6.130   4.834  18.681  0.00  0.00    +0.000 HD
ENDBRANCH   9  14
TORSDOF 2
ENDMDL
MODEL 6
REMARK VINA RESULT:      -6.4      1.133      1.520
REMARK  Name = 
REMARK  4 active torsions:
REMARK  status: ('A' for Active; 'I' for Inactive)
REMARK    1  A    between atoms: C_1  and  C_2
REMARK    2  A    between atoms: C_2  and  C_3
REMARK    3  A    between atoms: C_2  and  C_4
REMARK    4  A    between atoms: C_12  and  N_13
REMARK                            x       y       z     vdW  Elec       q    Type
REMARK                         _______ _______ _______ _____ _____    ______ ____
ROOT
ATOM      1  C   UNL     1       5.071   4.630  19.239  0.00  0.00    +0.000 C 
ATOM      2  C   UNL     1       4.088   5.715  18.702  0.00  0.00    +0.000 C 
ATOM      3  C   UNL     1       3.490   5.337  17.339  0.00  0.00    +0.000 C 
ATOM      4  C   UNL     1       2.757   3.988  17.425  0.00  0.00    +0.000 C 
ATOM      5  C   UNL     1       1.592   4.137  18.410  0.00  0.00    +0.000 C 
ATOM      6  C   UNL     1       2.133   4.528  19.796  0.00  0.00    +0.000 C 
ATOM      7  C   UNL     1       2.908   5.854  19.695  0.00  0.00    +0.000 C 
ATOM      8  C   UNL     1       3.094   3.434  20.291  0.00  0.00    +0.000 C 
ATOM      9  C   UNL     1       4.292   3.267  19.312  0.00  0.00    +0.000 C 
ATOM     10  C   UNL     1       3.695   2.882  17.939  0.00  0.00    +0.000 C 
ENDROOT
BRANCH   1  12
ATOM     11  C   UNL     1       6.661   4.628  17.081  0.00  0.00    +0.000 C 
ATOM     12  C   UNL     1       6.509   4.612  18.602  0.00  0.00    +0.000 C 
ATOM     13  C   UNL     1       7.387   5.737  19.174  0.00  0.00    +0.000 C 
ENDBRANCH   1  12
BRANCH   9  14
ATOM     14  N   UNL     1       5.118   2.181  19.837  0.00  0.00    +0.000 NA
ATOM     15  H   UNL     1       6.104   2.400  19.710  0.00  0.00    +0.000 HD
ATOM     16  H   UNL     1       4.943   1.323  19.315  0.00  0.00    +0.000 HD
ENDBRANCH   9  14
TORSDOF 2
ENDMDL
MODEL 7
REMARK VINA RESULT:      -6.3      1.986      2.894
REMARK  Name = 
REMARK  4 active torsions:
REMARK  status: ('A' for Active; 'I' for Inactive)
REMARK    1  A    between atoms: C_1  and  C_2
REMARK    2  A    between atoms: C_2  and  C_3
REMARK    3  A    between atoms: C_2  and  C_4
REMARK    4  A    between atoms: C_12  and  N_13
REMARK                            x       y       z     vdW  Elec       q    Type
REMARK                         _______ _______ _______ _____ _____    ______ ____
ROOT
ATOM      1  C   UNL     1       2.327   5.726  18.503  0.00  0.00    +0.000 C 
ATOM      2  C   UNL     1       2.498   4.452  17.619  0.00  0.00    +0.000 C 
ATOM      3  C   UNL     1       3.728   3.626  18.021  0.00  0.00    +0.000 C 
ATOM      4  C   UNL     1       3.642   3.209  19.498  0.00  0.00    +0.000 C 
ATOM      5  C   UNL     1       2.411   2.312  19.673  0.00  0.00    +0.000 C 
ATOM      6  C   UNL     1       1.145   3.088  19.273  0.00  0.00    +0.000 C 
ATOM      7  C   UNL     1       1.257   3.545  17.808  0.00  0.00    +0.000 C 
ATOM      8  C   UNL     1       1.011   4.332  20.167  0.00  0.00    +0.000 C 
ATOM      9  C   UNL     1       2.245   5.265  20.003  0.00  0.00    +0.000 C 
ATOM     10  C   UNL     1       3.486   4.438  20.409  0.00  0.00    +0.000 C 
ENDROOT
BRANCH   1  12
ATOM     11  C   UNL     1       4.347   6.787  17.095  0.00  0.00    +0.000 C 
ATOM     12  C   UNL     1       3.267   6.942  18.166  0.00  0.00    +0.000 C 
ATOM     13  C   UNL     1       2.451   8.202  17.832  0.00  0.00    +0.000 C 
ENDBRANCH   1  12
BRANCH   9  14
ATOM     14  N   UNL     1       2.052   6.388  20.920  0.00  0.00    +0.000 NA
ATOM     15  H   UNL     1       2.950   6.802  21.159  0.00  0.00    +0.000 HD
ATOM     16  H   UNL     1       1.644   6.060  21.795  0.00  0.00    +0.000 HD
ENDBRANCH   9  14
TORSDOF 2
ENDMDL
MODEL 8
REMARK VINA RESULT:      -6.3      1.662      2.909
REMARK  Name = 
REMARK  4 active torsions:
REMARK  status: ('A' for Active; 'I' for Inactive)
REMARK    1  A    between atoms: C_1  and  C_2
REMARK    2  A    between atoms: C_2  and  C_3
REMARK    3  A    between atoms: C_2  and  C_4
REMARK    4  A    between atoms: C_12  and  N_13
REMARK                            x       y       z     vdW  Elec       q    Type
REMARK                         _______ _______ _______ _____ _____    ______ ____
ROOT
ATOM      1  C   UNL     1       3.923   4.313  17.824  0.00  0.00    +0.000 C 
ATOM      2  C   UNL     1       3.945   2.823  18.286  0.00  0.00    +0.000 C 
ATOM      3  C   UNL     1       3.977   2.688  19.815  0.00  0.00    +0.000 C 
ATOM      4  C   UNL     1       2.766   3.397  20.446  0.00  0.00    +0.000 C 
ATOM      5  C   UNL     1       1.493   2.702  19.952  0.00  0.00    +0.000 C 
ATOM      6  C   UNL     1       1.414   2.797  18.419  0.00  0.00    +0.000 C 
ATOM      7  C   UNL     1       2.651   2.130  17.793  0.00  0.00    +0.000 C 
ATOM      8  C   UNL     1       1.392   4.278  18.004  0.00  0.00    +0.000 C 
ATOM      9  C   UNL     1       2.679   5.006  18.487  0.00  0.00    +0.000 C 
ATOM     10  C   UNL     1       2.714   4.876  20.027  0.00  0.00    +0.000 C 
ENDROOT
BRANCH   1  12
ATOM     11  C   UNL     1       6.013   5.258  19.211  0.00  0.00    +0.000 C 
ATOM     12  C   UNL     1       5.296   5.080  17.873  0.00  0.00    +0.000 C 
ATOM     13  C   UNL     1       6.304   4.486  16.875  0.00  0.00    +0.000 C 
ENDBRANCH   1  12
BRANCH   9  14
ATOM     14  N   UNL     1       2.546   6.407  18.092  0.00  0.00    +0.000 NA
ATOM     15  H   UNL     1       3.267   6.967  18.542  0.00  0.00    +0.000 HD
ATOM     16  H   UNL     1       1.652   6.779  18.411  0.00  0.00    +0.000 HD
ENDBRANCH   9  14
TORSDOF 2
ENDMDL
MODEL 9
REMARK VINA RESULT:      -6.2      2.612      3.876
REMARK  Name = 
REMARK  4 active torsions:
REMARK  status: ('A' for Active; 'I' for Inactive)
REMARK    1  A    between atoms: C_1  and  C_2
REMARK    2  A    between atoms: C_2  and  C_3
REMARK    3  A    between atoms: C_2  and  C_4
REMARK    4  A    between atoms: C_12  and  N_13
REMARK                            x       y       z     vdW  Elec       q    Type
REMARK                         _______ _______ _______ _____ _____    ______ ____
ROOT
ATOM      1  C   UNL     1       6.328   4.925  17.777  0.00  0.00    +0.000 C 
ATOM      2  C   UNL     1       5.400   4.604  18.989  0.00  0.00    +0.000 C 
ATOM      3  C   UNL     1       4.460   5.770  19.328  0.00  0.00    +0.000 C 
ATOM      4  C   UNL     1       3.595   6.140  18.112  0.00  0.00    +0.000 C 
ATOM      5  C   UNL     1       2.718   4.932  17.762  0.00  0.00    +0.000 C 
ATOM      6  C   UNL     1       3.610   3.726  17.423  0.00  0.00    +0.000 C 
ATOM      7  C   UNL     1       4.509   3.390  18.626  0.00  0.00    +0.000 C 
ATOM      8  C   UNL     1       4.506   4.081  16.224  0.00  0.00    +0.000 C 
ATOM      9  C   UNL     1       5.414   5.300  16.556  0.00  0.00    +0.000 C 
ATOM     10  C   UNL     1       4.472   6.478  16.895  0.00  0.00    +0.000 C 
ENDROOT
BRANCH   1  12
ATOM     11  C   UNL     1       7.491   7.340  17.734  0.00  0.00    +0.000 C 
ATOM     12  C   UNL     1       7.566   5.851  18.071  0.00  0.00    +0.000 C 
ATOM     13  C   UNL     1       8.025   5.722  19.533  0.00  0.00    +0.000 C 
ENDBRANCH   1  12
BRANCH   9  14
ATOM     14  N   UNL     1       6.188   5.591  15.350  0.00  0.00    +0.000 NA
ATOM     15  H   UNL     1       5.702   5.236  14.529  0.00  0.00    +0.000 HD
ATOM     16  H   UNL     1       7.086   5.111  15.384  0.00  0.00    +0.000 HD
ENDBRANCH   9  14
TORSDOF 2
ENDMDL
