MODEL 1
REMARK VINA RESULT:      -6.2      0.000      0.000
REMARK  Name = 
REMARK  3 active torsions:
REMARK  status: ('A' for Active; 'I' for Inactive)
REMARK    1  A    between atoms: C_2  and  C_12
REMARK    2  A    between atoms: N_3  and  N_4
REMARK    3  A    between atoms: C_5  and  C_6
REMARK                            x       y       z     vdW  Elec       q    Type
REMARK                         _______ _______ _______ _____ _____    ______ ____
ROOT
ATOM      1  O   UNL     1       6.988   4.306  16.578  0.00  0.00    +0.000 OA
ATOM      2  C   UNL     1       6.264   4.384  15.585  0.00  0.00    +0.000 C 
ATOM      3  N   UNL     1       4.876   4.303  15.645  0.00  0.00    +0.000 N 
ATOM      4  H   UNL     1       4.334   4.356  14.790  0.00  0.00    +0.000 HD
ENDROOT
BRANCH   2   5
ATOM      5  C   UNL     1       6.810   4.561  14.254  0.00  0.00    +0.000 A 
ATOM      6  C   UNL     1       6.505   3.896  13.081  0.00  0.00    +0.000 A 
ATOM      7  C   UNL     1       7.333   4.441  12.074  0.00  0.00    +0.000 A 
ATOM      8  C   UNL     1       8.096   5.404  12.691  0.00  0.00    +0.000 A 
ATOM      9  O   UNL     1       7.785   5.493  14.014  0.00  0.00    +0.000 OA
ENDBRANCH   2   5
BRANCH   3  10
ATOM     10  N   UNL     1       4.281   4.119  16.861  0.00  0.00    +0.000 NA
ATOM     11  C   UNL     1       3.696   5.134  17.409  0.00  0.00    +0.000 C 
BRANCH  11  12
ATOM     12  C   UNL     1       3.053   4.964  18.693  0.00  0.00    +0.000 A 
ATOM     13  C   UNL     1       2.775   3.787  19.368  0.00  0.00    +0.000 A 
ATOM     14  C   UNL     1       2.127   4.033  20.601  0.00  0.00    +0.000 A 
ATOM     15 BR   UNL     1       1.611   2.632  21.754  0.00  0.00    +0.000 Br
ATOM     16  C   UNL     1       1.922   5.366  20.850  0.00  0.00    +0.000 A 
ATOM     17  S   UNL     1       2.527   6.336  19.571  0.00  0.00    +0.000 S 
ENDBRANCH  11  12
ENDBRANCH   3  10
TORSDOF 3
ENDMDL
MODEL 2
REMARK VINA RESULT:      -6.1      7.256      7.921
REMARK  Name = 
REMARK  3 active torsions:
REMARK  status: ('A' for Active; 'I' for Inactive)
REMARK    1  A    between atoms: C_2  and  C_12
REMARK    2  A    between atoms: N_3  and  N_4
REMARK    3  A    between atoms: C_5  and  C_6
REMARK                            x       y       z     vdW  Elec       q    Type
REMARK                         _______ _______ _______ _____ _____    ______ ____
ROOT
ATOM      1  O   UNL     1       7.961   6.502  18.845  0.00  0.00    +0.000 OA
ATOM      2  C   UNL     1       7.586   6.978  17.772  0.00  0.00    +0.000 C 
ATOM      3  N   UNL     1       7.799   8.305  17.410  0.00  0.00    +0.000 N 
ATOM      4  H   UNL     1       7.450   8.643  16.521  0.00  0.00    +0.000 HD
ENDROOT
BRANCH   2   5
ATOM      5  C   UNL     1       6.876   6.182  16.792  0.00  0.00    +0.000 A 
ATOM      6  C   UNL     1       5.539   5.831  16.742  0.00  0.00    +0.000 A 
ATOM      7  C   UNL     1       5.366   5.034  15.589  0.00  0.00    +0.000 A 
ATOM      8  C   UNL     1       6.606   4.944  15.002  0.00  0.00    +0.000 A 
ATOM      9  O   UNL     1       7.532   5.641  15.718  0.00  0.00    +0.000 OA
ENDBRANCH   2   5
BRANCH   3  10
ATOM     10  N   UNL     1       8.448   9.128  18.286  0.00  0.00    +0.000 NA
ATOM     11  C   UNL     1       8.779  10.309  17.876  0.00  0.00    +0.000 C 
BRANCH  11  12
ATOM     12  C   UNL     1       9.461  11.202  18.786  0.00  0.00    +0.000 A 
ATOM     13  C   UNL     1      10.211  12.326  18.489  0.00  0.00    +0.000 A 
ATOM     14  C   UNL     1      10.726  12.936  19.658  0.00  0.00    +0.000 A 
ATOM     15 BR   UNL     1      11.794  14.488  19.587  0.00  0.00    +0.000 Br
ATOM     16  C   UNL     1      10.370  12.283  20.811  0.00  0.00    +0.000 A 
ATOM     17  S   UNL     1       9.395  10.913  20.472  0.00  0.00    +0.000 S 
ENDBRANCH  11  12
ENDBRANCH   3  10
TORSDOF 3
ENDMDL
MODEL 3
REMARK VINA RESULT:      -5.8      7.252      7.867
REMARK  Name = 
REMARK  3 active torsions:
REMARK  status: ('A' for Active; 'I' for Inactive)
REMARK    1  A    between atoms: C_2  and  C_12
REMARK    2  A    between atoms: N_3  and  N_4
REMARK    3  A    between atoms: C_5  and  C_6
REMARK                            x       y       z     vdW  Elec       q    Type
REMARK                         _______ _______ _______ _____ _____    ______ ____
ROOT
ATOM      1  O   UNL     1       8.023   6.717  18.855  0.00  0.00    +0.000 OA
ATOM      2  C   UNL     1       7.643   7.187  17.781  0.00  0.00    +0.000 C 
ATOM      3  N   UNL     1       7.816   8.522  17.430  0.00  0.00    +0.000 N 
ATOM      4  H   UNL     1       7.465   8.855  16.539  0.00  0.00    +0.000 HD
ENDROOT
BRANCH   2   5
ATOM      5  C   UNL     1       6.967   6.376  16.790  0.00  0.00    +0.000 A 
ATOM      6  C   UNL     1       5.617   6.119  16.631  0.00  0.00    +0.000 A 
ATOM      7  C   UNL     1       5.492   5.255  15.521  0.00  0.00    +0.000 A 
ATOM      8  C   UNL     1       6.771   5.032  15.067  0.00  0.00    +0.000 A 
ATOM      9  O   UNL     1       7.677   5.711  15.824  0.00  0.00    +0.000 OA
ENDBRANCH   2   5
BRANCH   3  10
ATOM     10  N   UNL     1       8.431   9.361  18.317  0.00  0.00    +0.000 NA
ATOM     11  C   UNL     1       9.025  10.409  17.848  0.00  0.00    +0.000 C 
BRANCH  11  12
ATOM     12  C   UNL     1       9.676  11.316  18.767  0.00  0.00    +0.000 A 
ATOM     13  C   UNL     1       9.112  12.055  19.792  0.00  0.00    +0.000 A 
ATOM     14  C   UNL     1      10.081  12.835  20.468  0.00  0.00    +0.000 A 
ATOM     15 BR   UNL     1       9.627  13.957  21.914  0.00  0.00    +0.000 Br
ATOM     16  C   UNL     1      11.347  12.685  19.963  0.00  0.00    +0.000 A 
ATOM     17  S   UNL     1      11.363  11.579  18.650  0.00  0.00    +0.000 S 
ENDBRANCH  11  12
ENDBRANCH   3  10
TORSDOF 3
ENDMDL
MODEL 4
REMARK VINA RESULT:      -5.7      6.888      7.938
REMARK  Name = 
REMARK  3 active torsions:
REMARK  status: ('A' for Active; 'I' for Inactive)
REMARK    1  A    between atoms: C_2  and  C_12
REMARK    2  A    between atoms: N_3  and  N_4
REMARK    3  A    between atoms: C_5  and  C_6
REMARK                            x       y       z     vdW  Elec       q    Type
REMARK                         _______ _______ _______ _____ _____    ______ ____
ROOT
ATOM      1  O   UNL     1       8.018   6.256  18.956  0.00  0.00    +0.000 OA
ATOM      2  C   UNL     1       7.319   6.608  18.004  0.00  0.00    +0.000 C 
ATOM      3  N   UNL     1       7.507   7.806  17.322  0.00  0.00    +0.000 N 
ATOM      4  H   UNL     1       6.886   8.050  16.558  0.00  0.00    +0.000 HD
ENDROOT
BRANCH   2   5
ATOM      5  C   UNL     1       6.223   5.793  17.520  0.00  0.00    +0.000 A 
ATOM      6  C   UNL     1       4.859   5.997  17.624  0.00  0.00    +0.000 A 
ATOM      7  C   UNL     1       4.231   4.897  16.998  0.00  0.00    +0.000 A 
ATOM      8  C   UNL     1       5.247   4.085  16.551  0.00  0.00    +0.000 A 
ATOM      9  O   UNL     1       6.462   4.619  16.855  0.00  0.00    +0.000 OA
ENDBRANCH   2   5
BRANCH   3  10
ATOM     10  N   UNL     1       8.509   8.642  17.726  0.00  0.00    +0.000 NA
ATOM     11  C   UNL     1       8.181   9.808  18.178  0.00  0.00    +0.000 C 
BRANCH  11  12
ATOM     12  C   UNL     1       9.224  10.709  18.618  0.00  0.00    +0.000 A 
ATOM     13  C   UNL     1      10.115  11.436  17.848  0.00  0.00    +0.000 A 
ATOM     14  C   UNL     1      10.994  12.202  18.650  0.00  0.00    +0.000 A 
ATOM     15 BR   UNL     1      12.330  13.299  17.897  0.00  0.00    +0.000 Br
ATOM     16  C   UNL     1      10.769  12.054  19.995  0.00  0.00    +0.000 A 
ATOM     17  S   UNL     1       9.470  10.973  20.291  0.00  0.00    +0.000 S 
ENDBRANCH  11  12
ENDBRANCH   3  10
TORSDOF 3
ENDMDL
MODEL 5
REMARK VINA RESULT:      -5.7      5.252      8.518
REMARK  Name = 
REMARK  3 active torsions:
REMARK  status: ('A' for Active; 'I' for Inactive)
REMARK    1  A    between atoms: C_2  and  C_12
REMARK    2  A    between atoms: N_3  and  N_4
REMARK    3  A    between atoms: C_5  and  C_6
REMARK                            x       y       z     vdW  Elec       q    Type
REMARK                         _______ _______ _______ _____ _____    ______ ____
ROOT
ATOM      1  O   UNL     1       1.177   9.286  19.143  0.00  0.00    +0.000 OA
ATOM      2  C   UNL     1       1.108   8.875  20.302  0.00  0.00    +0.000 C 
ATOM      3  N   UNL     1       1.707   7.694  20.729  0.00  0.00    +0.000 N 
ATOM      4  H   UNL     1       1.599   7.398  21.693  0.00  0.00    +0.000 HD
ENDROOT
BRANCH   2   5
ATOM      5  C   UNL     1       0.379   9.597  21.325  0.00  0.00    +0.000 A 
ATOM      6  C   UNL     1      -0.052   9.170  22.568  0.00  0.00    +0.000 A 
ATOM      7  C   UNL     1      -0.728  10.258  23.164  0.00  0.00    +0.000 A 
ATOM      8  C   UNL     1      -0.672  11.285  22.251  0.00  0.00    +0.000 A 
ATOM      9  O   UNL     1       0.003  10.900  21.132  0.00  0.00    +0.000 OA
ENDBRANCH   2   5
BRANCH   3  10
ATOM     10  N   UNL     1       2.401   6.944  19.822  0.00  0.00    +0.000 NA
ATOM     11  C   UNL     1       2.258   5.659  19.862  0.00  0.00    +0.000 C 
BRANCH  11  12
ATOM     12  C   UNL     1       2.976   4.844  18.908  0.00  0.00    +0.000 A 
ATOM     13  C   UNL     1       3.778   5.253  17.857  0.00  0.00    +0.000 A 
ATOM     14  C   UNL     1       4.304   4.152  17.141  0.00  0.00    +0.000 A 
ATOM     15 BR   UNL     1       5.432   4.379  15.647  0.00  0.00    +0.000 Br
ATOM     16  C   UNL     1       3.907   2.939  17.644  0.00  0.00    +0.000 A 
ATOM     17  S   UNL     1       2.883   3.138  19.006  0.00  0.00    +0.000 S 
ENDBRANCH  11  12
ENDBRANCH   3  10
TORSDOF 3
ENDMDL
MODEL 6
REMARK VINA RESULT:      -5.6      6.335      7.113
REMARK  Name = 
REMARK  3 active torsions:
REMARK  status: ('A' for Active; 'I' for Inactive)
REMARK    1  A    between atoms: C_2  and  C_12
REMARK    2  A    between atoms: N_3  and  N_4
REMARK    3  A    between atoms: C_5  and  C_6
REMARK                            x       y       z     vdW  Elec       q    Type
REMARK                         _______ _______ _______ _____ _____    ______ ____
ROOT
ATOM      1  O   UNL     1       7.944  10.324  17.564  0.00  0.00    +0.000 OA
ATOM      2  C   UNL     1       8.669   9.844  18.438  0.00  0.00    +0.000 C 
ATOM      3  N   UNL     1       8.688   8.489  18.753  0.00  0.00    +0.000 N 
ATOM      4  H   UNL     1       9.293   8.157  19.496  0.00  0.00    +0.000 HD
ENDROOT
BRANCH   2   5
ATOM      5  C   UNL     1       9.564  10.669  19.224  0.00  0.00    +0.000 A 
ATOM      6  C   UNL     1      10.795  11.203  18.887  0.00  0.00    +0.000 A 
ATOM      7  C   UNL     1      11.256  11.915  20.017  0.00  0.00    +0.000 A 
ATOM      8  C   UNL     1      10.282  11.773  20.978  0.00  0.00    +0.000 A 
ATOM      9  O   UNL     1       9.246  11.024  20.508  0.00  0.00    +0.000 OA
ENDBRANCH   2   5
BRANCH   3  10
ATOM     10  N   UNL     1       7.860   7.644  18.069  0.00  0.00    +0.000 NA
ATOM     11  C   UNL     1       7.701   6.447  18.531  0.00  0.00    +0.000 C 
BRANCH  11  12
ATOM     12  C   UNL     1       6.825   5.535  17.829  0.00  0.00    +0.000 A 
ATOM     13  C   UNL     1       5.588   5.056  18.223  0.00  0.00    +0.000 A 
ATOM     14  C   UNL     1       5.040   4.172  17.262  0.00  0.00    +0.000 A 
ATOM     15 BR   UNL     1       3.363   3.346  17.508  0.00  0.00    +0.000 Br
ATOM     16  C   UNL     1       5.848   3.991  16.169  0.00  0.00    +0.000 A 
ATOM     17  S   UNL     1       7.291   4.909  16.306  0.00  0.00    +0.000 S 
ENDBRANCH  11  12
ENDBRANCH   3  10
TORSDOF 3
ENDMDL
MODEL 7
REMARK VINA RESULT:      -5.6      6.804      7.348
REMARK  Name = 
REMARK  3 active torsions:
REMARK  status: ('A' for Active; 'I' for Inactive)
REMARK    1  A    between atoms: C_2  and  C_12
REMARK    2  A    between atoms: N_3  and  N_4
REMARK    3  A    between atoms: C_5  and  C_6
REMARK                            x       y       z     vdW  Elec       q    Type
REMARK                         _______ _______ _______ _____ _____    ______ ____
ROOT
ATOM      1  O   UNL     1       9.372  10.419  20.023  0.00  0.00    +0.000 OA
ATOM      2  C   UNL     1       9.419  10.677  18.819  0.00  0.00    +0.000 C 
ATOM      3  N   UNL     1       8.832   9.877  17.845  0.00  0.00    +0.000 N 
ATOM      4  H   UNL     1       8.920  10.132  16.867  0.00  0.00    +0.000 HD
ENDROOT
BRANCH   2   5
ATOM      5  C   UNL     1      10.109  11.848  18.317  0.00  0.00    +0.000 A 
ATOM      6  C   UNL     1      11.376  11.959  17.774  0.00  0.00    +0.000 A 
ATOM      7  C   UNL     1      11.568  13.323  17.458  0.00  0.00    +0.000 A 
ATOM      8  C   UNL     1      10.410  13.964  17.827  0.00  0.00    +0.000 A 
ATOM      9  O   UNL     1       9.512  13.080  18.345  0.00  0.00    +0.000 OA
ENDBRANCH   2   5
BRANCH   3  10
ATOM     10  N   UNL     1       8.175   8.743  18.233  0.00  0.00    +0.000 NA
ATOM     11  C   UNL     1       7.607   8.028  17.318  0.00  0.00    +0.000 C 
BRANCH  11  12
ATOM     12  C   UNL     1       6.911   6.820  17.703  0.00  0.00    +0.000 A 
ATOM     13  C   UNL     1       5.728   6.311  17.199  0.00  0.00    +0.000 A 
ATOM     14  C   UNL     1       5.362   5.104  17.841  0.00  0.00    +0.000 A 
ATOM     15 BR   UNL     1       3.794   4.164  17.381  0.00  0.00    +0.000 Br
ATOM     16  C   UNL     1       6.253   4.713  18.808  0.00  0.00    +0.000 A 
ATOM     17  S   UNL     1       7.554   5.824  18.938  0.00  0.00    +0.000 S 
ENDBRANCH  11  12
ENDBRANCH   3  10
TORSDOF 3
ENDMDL
MODEL 8
REMARK VINA RESULT:      -5.5      3.677      4.511
REMARK  Name = 
REMARK  3 active torsions:
REMARK  status: ('A' for Active; 'I' for Inactive)
REMARK    1  A    between atoms: C_2  and  C_12
REMARK    2  A    between atoms: N_3  and  N_4
REMARK    3  A    between atoms: C_5  and  C_6
REMARK                            x       y       z     vdW  Elec       q    Type
REMARK                         _______ _______ _______ _____ _____    ______ ____
ROOT
ATOM      1  O   UNL     1       4.623   5.572  19.477  0.00  0.00    +0.000 OA
ATOM      2  C   UNL     1       4.414   5.695  18.269  0.00  0.00    +0.000 C 
ATOM      3  N   UNL     1       3.365   6.447  17.750  0.00  0.00    +0.000 N 
ATOM      4  H   UNL     1       3.233   6.496  16.746  0.00  0.00    +0.000 HD
ENDROOT
BRANCH   2   5
ATOM      5  C   UNL     1       5.253   5.050  17.280  0.00  0.00    +0.000 A 
ATOM      6  C   UNL     1       4.896   4.268  16.196  0.00  0.00    +0.000 A 
ATOM      7  C   UNL     1       6.096   3.874  15.563  0.00  0.00    +0.000 A 
ATOM      8  C   UNL     1       7.114   4.435  16.296  0.00  0.00    +0.000 A 
ATOM      9  O   UNL     1       6.618   5.157  17.339  0.00  0.00    +0.000 OA
ENDBRANCH   2   5
BRANCH   3  10
ATOM     10  N   UNL     1       2.515   7.076  18.616  0.00  0.00    +0.000 NA
ATOM     11  C   UNL     1       2.244   8.322  18.402  0.00  0.00    +0.000 C 
BRANCH  11  12
ATOM     12  C   UNL     1       1.342   9.008  19.301  0.00  0.00    +0.000 A 
ATOM     13  C   UNL     1       1.157   8.802  20.656  0.00  0.00    +0.000 A 
ATOM     14  C   UNL     1       0.174   9.672  21.188  0.00  0.00    +0.000 A 
ATOM     15 BR   UNL     1      -0.311   9.635  23.009  0.00  0.00    +0.000 Br
ATOM     16  C   UNL     1      -0.367  10.515  20.250  0.00  0.00    +0.000 A 
ATOM     17  S   UNL     1       0.328  10.251  18.704  0.00  0.00    +0.000 S 
ENDBRANCH  11  12
ENDBRANCH   3  10
TORSDOF 3
ENDMDL
MODEL 9
REMARK VINA RESULT:      -5.5      1.797      1.971
REMARK  Name = 
REMARK  3 active torsions:
REMARK  status: ('A' for Active; 'I' for Inactive)
REMARK    1  A    between atoms: C_2  and  C_12
REMARK    2  A    between atoms: N_3  and  N_4
REMARK    3  A    between atoms: C_5  and  C_6
REMARK                            x       y       z     vdW  Elec       q    Type
REMARK                         _______ _______ _______ _____ _____    ______ ____
ROOT
ATOM      1  O   UNL     1       5.954   6.410  15.762  0.00  0.00    +0.000 OA
ATOM      2  C   UNL     1       5.803   5.244  15.395  0.00  0.00    +0.000 C 
ATOM      3  N   UNL     1       5.123   4.291  16.147  0.00  0.00    +0.000 N 
ATOM      4  H   UNL     1       5.047   3.341  15.800  0.00  0.00    +0.000 HD
ENDROOT
BRANCH   2   5
ATOM      5  C   UNL     1       6.339   4.764  14.138  0.00  0.00    +0.000 A 
ATOM      6  C   UNL     1       5.919   3.713  13.343  0.00  0.00    +0.000 A 
ATOM      7  C   UNL     1       6.793   3.661  12.235  0.00  0.00    +0.000 A 
ATOM      8  C   UNL     1       7.697   4.680  12.418  0.00  0.00    +0.000 A 
ATOM      9  O   UNL     1       7.431   5.363  13.566  0.00  0.00    +0.000 OA
ENDBRANCH   2   5
BRANCH   3  10
ATOM     10  N   UNL     1       4.599   4.657  17.354  0.00  0.00    +0.000 NA
ATOM     11  C   UNL     1       3.353   4.998  17.397  0.00  0.00    +0.000 C 
BRANCH  11  12
ATOM     12  C   UNL     1       2.774   5.383  18.665  0.00  0.00    +0.000 A 
ATOM     13  C   UNL     1       2.376   6.641  19.082  0.00  0.00    +0.000 A 
ATOM     14  C   UNL     1       1.860   6.616  20.400  0.00  0.00    +0.000 A 
ATOM     15 BR   UNL     1       1.237   8.174  21.258  0.00  0.00    +0.000 Br
ATOM     16  C   UNL     1       1.870   5.364  20.962  0.00  0.00    +0.000 A 
ATOM     17  S   UNL     1       2.510   4.202  19.874  0.00  0.00    +0.000 S 
ENDBRANCH  11  12
ENDBRANCH   3  10
TORSDOF 3
ENDMDL
