MODEL 1
REMARK VINA RESULT:      -8.5      0.000      0.000
REMARK  Name = 
REMARK  8 active torsions:
REMARK  status: ('A' for Active; 'I' for Inactive)
REMARK    1  A    between atoms: C_1  and  O_2
REMARK    2  A    between atoms: O_2  and  C_3
REMARK    3  A    between atoms: C_8  and  O_9
REMARK    4  A    between atoms: O_9  and  C_10
REMARK    5  A    between atoms: C_10  and  C_11
REMARK    6  A    between atoms: C_11  and  N_12
REMARK    7  A    between atoms: C_13  and  C_15
REMARK    8  A    between atoms: C_15  and  N_16
REMARK                            x       y       z     vdW  Elec       q    Type
REMARK                         _______ _______ _______ _____ _____    ______ ____
ROOT
ATOM      1  N   UNL     1       8.076   7.681  18.039  0.00  0.00    +0.000 N 
ATOM      2  C   UNL     1       7.244   6.843  17.333  0.00  0.00    +0.000 C 
ATOM      3  O   UNL     1       6.394   7.249  16.545  0.00  0.00    +0.000 OA
ATOM      4  H   UNL     1       8.718   7.278  18.716  0.00  0.00    +0.000 HD
ENDROOT
BRANCH   1   5
ATOM      5  C   UNL     1       8.062   9.131  17.876  0.00  0.00    +0.000 C 
BRANCH   5   6
ATOM      6  C   UNL     1       8.955   9.789  18.927  0.00  0.00    +0.000 C 
BRANCH   6   7
ATOM      7  O   UNL     1       9.779  10.803  18.364  0.00  0.00    +0.000 OA
BRANCH   7  13
ATOM      8  C   UNL     1      10.521  13.169  18.756  0.00  0.00    +0.000 A 
ATOM      9  C   UNL     1      10.637  14.196  19.707  0.00  0.00    +0.000 A 
ATOM     10  C   UNL     1      10.362  13.959  21.051  0.00  0.00    +0.000 A 
ATOM     11  C   UNL     1       9.924  12.703  21.452  0.00  0.00    +0.000 A 
ATOM     12  C   UNL     1       9.737  11.694  20.504  0.00  0.00    +0.000 A 
ATOM     13  C   UNL     1      10.023  11.911  19.147  0.00  0.00    +0.000 A 
BRANCH   8  15
ATOM     14  C   UNL     1      12.231  13.367  17.132  0.00  0.00    +0.000 C 
ATOM     15  O   UNL     1      10.840  13.414  17.447  0.00  0.00    +0.000 OA
ENDBRANCH   8  15
ENDBRANCH   7  13
ENDBRANCH   6   7
ENDBRANCH   5   6
ENDBRANCH   1   5
BRANCH   2  16
ATOM     16  C   UNL     1       7.412   5.365  17.671  0.00  0.00    +0.000 C 
BRANCH  16  17
ATOM     17  N   UNL     1       6.128   4.696  17.628  0.00  0.00    +0.000 N 
ATOM     18  C   UNL     1       5.666   4.014  16.553  0.00  0.00    +0.000 C 
ATOM     19  O   UNL     1       6.265   3.785  15.517  0.00  0.00    +0.000 OA
ATOM     20  N   UNL     1       4.378   3.602  16.819  0.00  0.00    +0.000 N 
ATOM     21  C   UNL     1       3.946   3.962  18.154  0.00  0.00    +0.000 C 
ATOM     22  C   UNL     1       2.756   4.930  18.142  0.00  0.00    +0.000 C 
ATOM     23  C   UNL     1       1.457   4.246  17.721  0.00  0.00    +0.000 C 
ATOM     24  C   UNL     1       1.176   2.997  18.552  0.00  0.00    +0.000 C 
ATOM     25  C   UNL     1       2.360   2.031  18.559  0.00  0.00    +0.000 C 
ATOM     26  C   UNL     1       3.656   2.718  18.997  0.00  0.00    +0.000 C 
ATOM     27  C   UNL     1       5.207   4.707  18.636  0.00  0.00    +0.000 C 
ATOM     28  O   UNL     1       5.326   5.249  19.726  0.00  0.00    +0.000 OA
ATOM     29  H   UNL     1       3.852   3.063  16.145  0.00  0.00    +0.000 HD
ENDBRANCH  16  17
ENDBRANCH   2  16
TORSDOF 7
ENDMDL
MODEL 2
REMARK VINA RESULT:      -8.3      1.885      2.950
REMARK  Name = 
REMARK  8 active torsions:
REMARK  status: ('A' for Active; 'I' for Inactive)
REMARK    1  A    between atoms: C_1  and  O_2
REMARK    2  A    between atoms: O_2  and  C_3
REMARK    3  A    between atoms: C_8  and  O_9
REMARK    4  A    between atoms: O_9  and  C_10
REMARK    5  A    between atoms: C_10  and  C_11
REMARK    6  A    between atoms: C_11  and  N_12
REMARK    7  A    between atoms: C_13  and  C_15
REMARK    8  A    between atoms: C_15  and  N_16
REMARK                            x       y       z     vdW  Elec       q    Type
REMARK                         _______ _______ _______ _____ _____    ______ ____
ROOT
ATOM      1  N   UNL     1       6.692   7.508  17.312  0.00  0.00    +0.000 N 
ATOM      2  C   UNL     1       6.562   6.289  16.688  0.00  0.00    +0.000 C 
ATOM      3  O   UNL     1       7.481   5.481  16.596  0.00  0.00    +0.000 OA
ATOM      4  H   UNL     1       5.904   8.151  17.301  0.00  0.00    +0.000 HD
ENDROOT
BRANCH   1   5
ATOM      5  C   UNL     1       7.922   7.931  17.972  0.00  0.00    +0.000 C 
BRANCH   5   6
ATOM      6  C   UNL     1       8.298   9.345  17.532  0.00  0.00    +0.000 C 
BRANCH   6   7
ATOM      7  O   UNL     1       8.245  10.271  18.611  0.00  0.00    +0.000 OA
BRANCH   7  13
ATOM      8  C   UNL     1       9.887  11.235  20.247  0.00  0.00    +0.000 A 
ATOM      9  C   UNL     1      11.163  11.802  20.398  0.00  0.00    +0.000 A 
ATOM     10  C   UNL     1      11.941  12.114  19.286  0.00  0.00    +0.000 A 
ATOM     11  C   UNL     1      11.469  11.822  18.012  0.00  0.00    +0.000 A 
ATOM     12  C   UNL     1      10.232  11.194  17.854  0.00  0.00    +0.000 A 
ATOM     13  C   UNL     1       9.428  10.885  18.962  0.00  0.00    +0.000 A 
BRANCH   8  15
ATOM     14  C   UNL     1       8.528  12.118  21.972  0.00  0.00    +0.000 C 
ATOM     15  O   UNL     1       9.121  10.978  21.352  0.00  0.00    +0.000 OA
ENDBRANCH   8  15
ENDBRANCH   7  13
ENDBRANCH   6   7
ENDBRANCH   5   6
ENDBRANCH   1   5
BRANCH   2  16
ATOM     16  C   UNL     1       5.197   6.058  16.046  0.00  0.00    +0.000 C 
BRANCH  16  17
ATOM     17  N   UNL     1       4.251   5.596  17.041  0.00  0.00    +0.000 N 
ATOM     18  C   UNL     1       3.501   6.418  17.812  0.00  0.00    +0.000 C 
ATOM     19  O   UNL     1       3.434   7.633  17.738  0.00  0.00    +0.000 OA
ATOM     20  N   UNL     1       2.799   5.650  18.715  0.00  0.00    +0.000 N 
ATOM     21  C   UNL     1       3.026   4.231  18.530  0.00  0.00    +0.000 C 
ATOM     22  C   UNL     1       3.695   3.583  19.749  0.00  0.00    +0.000 C 
ATOM     23  C   UNL     1       2.739   3.449  20.931  0.00  0.00    +0.000 C 
ATOM     24  C   UNL     1       1.444   2.742  20.539  0.00  0.00    +0.000 C 
ATOM     25  C   UNL     1       0.776   3.392  19.329  0.00  0.00    +0.000 C 
ATOM     26  C   UNL     1       1.734   3.509  18.141  0.00  0.00    +0.000 C 
ATOM     27  C   UNL     1       4.033   4.286  17.363  0.00  0.00    +0.000 C 
ATOM     28  O   UNL     1       4.568   3.312  16.853  0.00  0.00    +0.000 OA
ATOM     29  H   UNL     1       2.166   6.072  19.380  0.00  0.00    +0.000 HD
ENDBRANCH  16  17
ENDBRANCH   2  16
TORSDOF 7
ENDMDL
MODEL 3
REMARK VINA RESULT:      -8.2      1.779      2.516
REMARK  Name = 
REMARK  8 active torsions:
REMARK  status: ('A' for Active; 'I' for Inactive)
REMARK    1  A    between atoms: C_1  and  O_2
REMARK    2  A    between atoms: O_2  and  C_3
REMARK    3  A    between atoms: C_8  and  O_9
REMARK    4  A    between atoms: O_9  and  C_10
REMARK    5  A    between atoms: C_10  and  C_11
REMARK    6  A    between atoms: C_11  and  N_12
REMARK    7  A    between atoms: C_13  and  C_15
REMARK    8  A    between atoms: C_15  and  N_16
REMARK                            x       y       z     vdW  Elec       q    Type
REMARK                         _______ _______ _______ _____ _____    ______ ____
ROOT
ATOM      1  N   UNL     1       6.696   7.253  17.628  0.00  0.00    +0.000 N 
ATOM      2  C   UNL     1       6.604   6.475  16.497  0.00  0.00    +0.000 C 
ATOM      3  O   UNL     1       7.585   6.047  15.895  0.00  0.00    +0.000 OA
ATOM      4  H   UNL     1       5.842   7.619  18.041  0.00  0.00    +0.000 HD
ENDROOT
BRANCH   1   5
ATOM      5  C   UNL     1       7.969   7.598  18.249  0.00  0.00    +0.000 C 
BRANCH   5   6
ATOM      6  C   UNL     1       8.455   8.955  17.740  0.00  0.00    +0.000 C 
BRANCH   6   7
ATOM      7  O   UNL     1       8.264   9.984  18.705  0.00  0.00    +0.000 OA
BRANCH   7  13
ATOM      8  C   UNL     1       9.708  11.292  20.288  0.00  0.00    +0.000 A 
ATOM      9  C   UNL     1      10.925  11.976  20.438  0.00  0.00    +0.000 A 
ATOM     10  C   UNL     1      11.757  12.199  19.343  0.00  0.00    +0.000 A 
ATOM     11  C   UNL     1      11.402  11.701  18.096  0.00  0.00    +0.000 A 
ATOM     12  C   UNL     1      10.229  10.957  17.951  0.00  0.00    +0.000 A 
ATOM     13  C   UNL     1       9.370  10.735  19.038  0.00  0.00    +0.000 A 
BRANCH   8  15
ATOM     14  C   UNL     1       8.854  12.207  22.297  0.00  0.00    +0.000 C 
ATOM     15  O   UNL     1       8.884  11.123  21.369  0.00  0.00    +0.000 OA
ENDBRANCH   8  15
ENDBRANCH   7  13
ENDBRANCH   6   7
ENDBRANCH   5   6
ENDBRANCH   1   5
BRANCH   2  16
ATOM     16  C   UNL     1       5.177   6.252  16.005  0.00  0.00    +0.000 C 
BRANCH  16  17
ATOM     17  N   UNL     1       4.491   5.318  16.874  0.00  0.00    +0.000 N 
ATOM     18  C   UNL     1       4.718   3.983  16.877  0.00  0.00    +0.000 C 
ATOM     19  O   UNL     1       5.564   3.381  16.240  0.00  0.00    +0.000 OA
ATOM     20  N   UNL     1       3.823   3.391  17.742  0.00  0.00    +0.000 N 
ATOM     21  C   UNL     1       2.976   4.358  18.410  0.00  0.00    +0.000 C 
ATOM     22  C   UNL     1       1.494   4.177  18.060  0.00  0.00    +0.000 C 
ATOM     23  C   UNL     1       0.890   2.939  18.718  0.00  0.00    +0.000 C 
ATOM     24  C   UNL     1       1.133   2.919  20.224  0.00  0.00    +0.000 C 
ATOM     25  C   UNL     1       2.610   3.093  20.572  0.00  0.00    +0.000 C 
ATOM     26  C   UNL     1       3.206   4.345  19.923  0.00  0.00    +0.000 C 
ATOM     27  C   UNL     1       3.503   5.651  17.756  0.00  0.00    +0.000 C 
ATOM     28  O   UNL     1       3.067   6.773  17.971  0.00  0.00    +0.000 OA
ATOM     29  H   UNL     1       3.831   2.393  17.901  0.00  0.00    +0.000 HD
ENDBRANCH  16  17
ENDBRANCH   2  16
TORSDOF 7
ENDMDL
MODEL 4
REMARK VINA RESULT:      -8.1      1.741      2.131
REMARK  Name = 
REMARK  8 active torsions:
REMARK  status: ('A' for Active; 'I' for Inactive)
REMARK    1  A    between atoms: C_1  and  O_2
REMARK    2  A    between atoms: O_2  and  C_3
REMARK    3  A    between atoms: C_8  and  O_9
REMARK    4  A    between atoms: O_9  and  C_10
REMARK    5  A    between atoms: C_10  and  C_11
REMARK    6  A    between atoms: C_11  and  N_12
REMARK    7  A    between atoms: C_13  and  C_15
REMARK    8  A    between atoms: C_15  and  N_16
REMARK                            x       y       z     vdW  Elec       q    Type
REMARK                         _______ _______ _______ _____ _____    ______ ____
ROOT
ATOM      1  N   UNL     1       6.757   7.635  17.271  0.00  0.00    +0.000 N 
ATOM      2  C   UNL     1       6.701   6.496  16.500  0.00  0.00    +0.000 C 
ATOM      3  O   UNL     1       7.686   5.812  16.241  0.00  0.00    +0.000 OA
ATOM      4  H   UNL     1       5.910   8.184  17.398  0.00  0.00    +0.000 HD
ENDROOT
BRANCH   1   5
ATOM      5  C   UNL     1       7.987   8.105  17.899  0.00  0.00    +0.000 C 
BRANCH   5   6
ATOM      6  C   UNL     1       8.088   9.626  17.791  0.00  0.00    +0.000 C 
BRANCH   6   7
ATOM      7  O   UNL     1       8.873  10.182  18.839  0.00  0.00    +0.000 OA
BRANCH   7  13
ATOM      8  C   UNL     1       9.294  12.432  17.807  0.00  0.00    +0.000 A 
ATOM      9  C   UNL     1      10.230  13.465  17.640  0.00  0.00    +0.000 A 
ATOM     10  C   UNL     1      11.543  13.316  18.081  0.00  0.00    +0.000 A 
ATOM     11  C   UNL     1      11.921  12.149  18.734  0.00  0.00    +0.000 A 
ATOM     12  C   UNL     1      10.978  11.145  18.968  0.00  0.00    +0.000 A 
ATOM     13  C   UNL     1       9.655  11.271  18.518  0.00  0.00    +0.000 A 
BRANCH   8  15
ATOM     14  C   UNL     1       7.391  13.828  17.623  0.00  0.00    +0.000 C 
ATOM     15  O   UNL     1       8.021  12.583  17.325  0.00  0.00    +0.000 OA
ENDBRANCH   8  15
ENDBRANCH   7  13
ENDBRANCH   6   7
ENDBRANCH   5   6
ENDBRANCH   1   5
BRANCH   2  16
ATOM     16  C   UNL     1       5.319   6.199  15.925  0.00  0.00    +0.000 C 
BRANCH  16  17
ATOM     17  N   UNL     1       4.619   5.258  16.775  0.00  0.00    +0.000 N 
ATOM     18  C   UNL     1       4.781   3.915  16.711  0.00  0.00    +0.000 C 
ATOM     19  O   UNL     1       5.577   3.305  16.019  0.00  0.00    +0.000 OA
ATOM     20  N   UNL     1       3.889   3.326  17.580  0.00  0.00    +0.000 N 
ATOM     21  C   UNL     1       3.112   4.299  18.320  0.00  0.00    +0.000 C 
ATOM     22  C   UNL     1       1.612   4.204  18.014  0.00  0.00    +0.000 C 
ATOM     23  C   UNL     1       0.971   2.966  18.637  0.00  0.00    +0.000 C 
ATOM     24  C   UNL     1       1.262   2.865  20.132  0.00  0.00    +0.000 C 
ATOM     25  C   UNL     1       2.757   2.955  20.435  0.00  0.00    +0.000 C 
ATOM     26  C   UNL     1       3.390   4.206  19.822  0.00  0.00    +0.000 C 
ATOM     27  C   UNL     1       3.678   5.595  17.705  0.00  0.00    +0.000 C 
ATOM     28  O   UNL     1       3.303   6.725  17.985  0.00  0.00    +0.000 OA
ATOM     29  H   UNL     1       3.854   2.322  17.694  0.00  0.00    +0.000 HD
ENDBRANCH  16  17
ENDBRANCH   2  16
TORSDOF 7
ENDMDL
MODEL 5
REMARK VINA RESULT:      -8.1      1.270      2.525
REMARK  Name = 
REMARK  8 active torsions:
REMARK  status: ('A' for Active; 'I' for Inactive)
REMARK    1  A    between atoms: C_1  and  O_2
REMARK    2  A    between atoms: O_2  and  C_3
REMARK    3  A    between atoms: C_8  and  O_9
REMARK    4  A    between atoms: O_9  and  C_10
REMARK    5  A    between atoms: C_10  and  C_11
REMARK    6  A    between atoms: C_11  and  N_12
REMARK    7  A    between atoms: C_13  and  C_15
REMARK    8  A    between atoms: C_15  and  N_16
REMARK                            x       y       z     vdW  Elec       q    Type
REMARK                         _______ _______ _______ _____ _____    ______ ____
ROOT
ATOM      1  N   UNL     1       7.933   7.472  17.834  0.00  0.00    +0.000 N 
ATOM      2  C   UNL     1       7.038   6.781  17.050  0.00  0.00    +0.000 C 
ATOM      3  O   UNL     1       6.208   7.333  16.333  0.00  0.00    +0.000 OA
ATOM      4  H   UNL     1       8.554   6.948  18.446  0.00  0.00    +0.000 HD
ENDROOT
BRANCH   1   5
ATOM      5  C   UNL     1       8.017   8.928  17.843  0.00  0.00    +0.000 C 
BRANCH   5   6
ATOM      6  C   UNL     1       9.008   9.393  18.909  0.00  0.00    +0.000 C 
BRANCH   6   7
ATOM      7  O   UNL     1       8.694  10.693  19.396  0.00  0.00    +0.000 OA
BRANCH   7  13
ATOM      8  C   UNL     1       9.835  12.739  20.297  0.00  0.00    +0.000 A 
ATOM      9  C   UNL     1      11.021  13.491  20.296  0.00  0.00    +0.000 A 
ATOM     10  C   UNL     1      12.066  13.173  19.431  0.00  0.00    +0.000 A 
ATOM     11  C   UNL     1      11.953  12.072  18.591  0.00  0.00    +0.000 A 
ATOM     12  C   UNL     1      10.806  11.275  18.637  0.00  0.00    +0.000 A 
ATOM     13  C   UNL     1       9.737  11.589  19.490  0.00  0.00    +0.000 A 
BRANCH   8  15
ATOM     14  C   UNL     1       8.812  12.498  22.418  0.00  0.00    +0.000 C 
ATOM     15  O   UNL     1       8.804  13.098  21.124  0.00  0.00    +0.000 OA
ENDBRANCH   8  15
ENDBRANCH   7  13
ENDBRANCH   6   7
ENDBRANCH   5   6
ENDBRANCH   1   5
BRANCH   2  16
ATOM     16  C   UNL     1       7.108   5.265  17.209  0.00  0.00    +0.000 C 
BRANCH  16  17
ATOM     17  N   UNL     1       5.875   4.767  17.783  0.00  0.00    +0.000 N 
ATOM     18  C   UNL     1       5.624   4.723  19.113  0.00  0.00    +0.000 C 
ATOM     19  O   UNL     1       6.328   5.159  20.007  0.00  0.00    +0.000 OA
ATOM     20  N   UNL     1       4.412   4.097  19.307  0.00  0.00    +0.000 N 
ATOM     21  C   UNL     1       3.766   3.741  18.060  0.00  0.00    +0.000 C 
ATOM     22  C   UNL     1       3.591   2.226  17.905  0.00  0.00    +0.000 C 
ATOM     23  C   UNL     1       2.505   1.670  18.823  0.00  0.00    +0.000 C 
ATOM     24  C   UNL     1       1.186   2.422  18.665  0.00  0.00    +0.000 C 
ATOM     25  C   UNL     1       1.361   3.931  18.826  0.00  0.00    +0.000 C 
ATOM     26  C   UNL     1       2.439   4.485  17.891  0.00  0.00    +0.000 C 
ATOM     27  C   UNL     1       4.838   4.237  17.069  0.00  0.00    +0.000 C 
ATOM     28  O   UNL     1       4.773   4.126  15.853  0.00  0.00    +0.000 OA
ATOM     29  H   UNL     1       4.030   3.972  20.235  0.00  0.00    +0.000 HD
ENDBRANCH  16  17
ENDBRANCH   2  16
TORSDOF 7
ENDMDL
MODEL 6
REMARK VINA RESULT:      -8.1      1.239      1.376
REMARK  Name = 
REMARK  8 active torsions:
REMARK  status: ('A' for Active; 'I' for Inactive)
REMARK    1  A    between atoms: C_1  and  O_2
REMARK    2  A    between atoms: O_2  and  C_3
REMARK    3  A    between atoms: C_8  and  O_9
REMARK    4  A    between atoms: O_9  and  C_10
REMARK    5  A    between atoms: C_10  and  C_11
REMARK    6  A    between atoms: C_11  and  N_12
REMARK    7  A    between atoms: C_13  and  C_15
REMARK    8  A    between atoms: C_15  and  N_16
REMARK                            x       y       z     vdW  Elec       q    Type
REMARK                         _______ _______ _______ _____ _____    ______ ____
ROOT
ATOM      1  N   UNL     1       7.064   7.855  17.283  0.00  0.00    +0.000 N 
ATOM      2  C   UNL     1       6.834   6.528  17.003  0.00  0.00    +0.000 C 
ATOM      3  O   UNL     1       7.638   5.638  17.261  0.00  0.00    +0.000 OA
ATOM      4  H   UNL     1       6.377   8.545  16.990  0.00  0.00    +0.000 HD
ENDROOT
BRANCH   1   5
ATOM      5  C   UNL     1       8.266   8.322  17.965  0.00  0.00    +0.000 C 
BRANCH   5   6
ATOM      6  C   UNL     1       8.263   9.848  18.054  0.00  0.00    +0.000 C 
BRANCH   6   7
ATOM      7  O   UNL     1       9.578  10.388  17.970  0.00  0.00    +0.000 OA
BRANCH   7  13
ATOM      8  C   UNL     1      10.855  12.365  18.842  0.00  0.00    +0.000 A 
ATOM      9  C   UNL     1      11.032  13.231  19.932  0.00  0.00    +0.000 A 
ATOM     10  C   UNL     1      10.386  12.995  21.143  0.00  0.00    +0.000 A 
ATOM     11  C   UNL     1       9.521  11.914  21.262  0.00  0.00    +0.000 A 
ATOM     12  C   UNL     1       9.283  11.088  20.161  0.00  0.00    +0.000 A 
ATOM     13  C   UNL     1       9.936  11.302  18.938  0.00  0.00    +0.000 A 
BRANCH   8  15
ATOM     14  C   UNL     1      11.166  13.773  16.964  0.00  0.00    +0.000 C 
ATOM     15  O   UNL     1      11.535  12.592  17.675  0.00  0.00    +0.000 OA
ENDBRANCH   8  15
ENDBRANCH   7  13
ENDBRANCH   6   7
ENDBRANCH   5   6
ENDBRANCH   1   5
BRANCH   2  16
ATOM     16  C   UNL     1       5.523   6.263  16.268  0.00  0.00    +0.000 C 
BRANCH  16  17
ATOM     17  N   UNL     1       4.742   5.277  16.985  0.00  0.00    +0.000 N 
ATOM     18  C   UNL     1       4.819   3.943  16.763  0.00  0.00    +0.000 C 
ATOM     19  O   UNL     1       5.592   3.368  16.016  0.00  0.00    +0.000 OA
ATOM     20  N   UNL     1       3.868   3.315  17.537  0.00  0.00    +0.000 N 
ATOM     21  C   UNL     1       3.136   4.243  18.375  0.00  0.00    +0.000 C 
ATOM     22  C   UNL     1       1.641   4.285  18.032  0.00  0.00    +0.000 C 
ATOM     23  C   UNL     1       0.907   3.027  18.489  0.00  0.00    +0.000 C 
ATOM     24  C   UNL     1       1.151   2.730  19.966  0.00  0.00    +0.000 C 
ATOM     25  C   UNL     1       2.640   2.683  20.305  0.00  0.00    +0.000 C 
ATOM     26  C   UNL     1       3.368   3.953  19.859  0.00  0.00    +0.000 C 
ATOM     27  C   UNL     1       3.800   5.563  17.932  0.00  0.00    +0.000 C 
ATOM     28  O   UNL     1       3.490   6.674  18.339  0.00  0.00    +0.000 OA
ATOM     29  H   UNL     1       3.767   2.310  17.529  0.00  0.00    +0.000 HD
ENDBRANCH  16  17
ENDBRANCH   2  16
TORSDOF 7
ENDMDL
MODEL 7
REMARK VINA RESULT:      -8.1      1.309      2.183
REMARK  Name = 
REMARK  8 active torsions:
REMARK  status: ('A' for Active; 'I' for Inactive)
REMARK    1  A    between atoms: C_1  and  O_2
REMARK    2  A    between atoms: O_2  and  C_3
REMARK    3  A    between atoms: C_8  and  O_9
REMARK    4  A    between atoms: O_9  and  C_10
REMARK    5  A    between atoms: C_10  and  C_11
REMARK    6  A    between atoms: C_11  and  N_12
REMARK    7  A    between atoms: C_13  and  C_15
REMARK    8  A    between atoms: C_15  and  N_16
REMARK                            x       y       z     vdW  Elec       q    Type
REMARK                         _______ _______ _______ _____ _____    ______ ____
ROOT
ATOM      1  N   UNL     1       7.650   7.173  17.808  0.00  0.00    +0.000 N 
ATOM      2  C   UNL     1       7.227   6.259  16.871  0.00  0.00    +0.000 C 
ATOM      3  O   UNL     1       6.815   6.578  15.760  0.00  0.00    +0.000 OA
ATOM      4  H   UNL     1       7.926   6.839  18.729  0.00  0.00    +0.000 HD
ENDROOT
BRANCH   1   5
ATOM      5  C   UNL     1       7.702   8.607  17.547  0.00  0.00    +0.000 C 
BRANCH   5   6
ATOM      6  C   UNL     1       8.679   9.284  18.507  0.00  0.00    +0.000 C 
BRANCH   6   7
ATOM      7  O   UNL     1       9.190  10.501  17.975  0.00  0.00    +0.000 OA
BRANCH   7  13
ATOM      8  C   UNL     1       8.906  12.848  18.819  0.00  0.00    +0.000 A 
ATOM      9  C   UNL     1       9.184  13.735  19.871  0.00  0.00    +0.000 A 
ATOM     10  C   UNL     1      10.024  13.359  20.917  0.00  0.00    +0.000 A 
ATOM     11  C   UNL     1      10.560  12.077  20.942  0.00  0.00    +0.000 A 
ATOM     12  C   UNL     1      10.232  11.165  19.937  0.00  0.00    +0.000 A 
ATOM     13  C   UNL     1       9.399  11.530  18.868  0.00  0.00    +0.000 A 
BRANCH   8  15
ATOM     14  C   UNL     1       7.563  14.566  17.897  0.00  0.00    +0.000 C 
ATOM     15  O   UNL     1       8.113  13.255  17.779  0.00  0.00    +0.000 OA
ENDBRANCH   8  15
ENDBRANCH   7  13
ENDBRANCH   6   7
ENDBRANCH   5   6
ENDBRANCH   1   5
BRANCH   2  16
ATOM     16  C   UNL     1       7.236   4.813  17.360  0.00  0.00    +0.000 C 
BRANCH  16  17
ATOM     17  N   UNL     1       5.937   4.460  17.895  0.00  0.00    +0.000 N 
ATOM     18  C   UNL     1       5.601   4.572  19.202  0.00  0.00    +0.000 C 
ATOM     19  O   UNL     1       6.279   5.052  20.094  0.00  0.00    +0.000 OA
ATOM     20  N   UNL     1       4.338   4.052  19.374  0.00  0.00    +0.000 N 
ATOM     21  C   UNL     1       3.746   3.611  18.127  0.00  0.00    +0.000 C 
ATOM     22  C   UNL     1       3.471   2.102  18.112  0.00  0.00    +0.000 C 
ATOM     23  C   UNL     1       2.293   1.718  19.004  0.00  0.00    +0.000 C 
ATOM     24  C   UNL     1       1.045   2.535  18.681  0.00  0.00    +0.000 C 
ATOM     25  C   UNL     1       1.318   4.038  18.702  0.00  0.00    +0.000 C 
ATOM     26  C   UNL     1       2.489   4.418  17.793  0.00  0.00    +0.000 C 
ATOM     27  C   UNL     1       4.910   3.929  17.167  0.00  0.00    +0.000 C 
ATOM     28  O   UNL     1       4.913   3.696  15.967  0.00  0.00    +0.000 OA
ATOM     29  H   UNL     1       3.891   4.049  20.281  0.00  0.00    +0.000 HD
ENDBRANCH  16  17
ENDBRANCH   2  16
TORSDOF 7
ENDMDL
MODEL 8
REMARK VINA RESULT:      -8.0      1.623      2.490
REMARK  Name = 
REMARK  8 active torsions:
REMARK  status: ('A' for Active; 'I' for Inactive)
REMARK    1  A    between atoms: C_1  and  O_2
REMARK    2  A    between atoms: O_2  and  C_3
REMARK    3  A    between atoms: C_8  and  O_9
REMARK    4  A    between atoms: O_9  and  C_10
REMARK    5  A    between atoms: C_10  and  C_11
REMARK    6  A    between atoms: C_11  and  N_12
REMARK    7  A    between atoms: C_13  and  C_15
REMARK    8  A    between atoms: C_15  and  N_16
REMARK                            x       y       z     vdW  Elec       q    Type
REMARK                         _______ _______ _______ _____ _____    ______ ____
ROOT
ATOM      1  N   UNL     1       7.970   7.308  17.980  0.00  0.00    +0.000 N 
ATOM      2  C   UNL     1       7.552   6.096  18.480  0.00  0.00    +0.000 C 
ATOM      3  O   UNL     1       7.775   5.732  19.631  0.00  0.00    +0.000 OA
ATOM      4  H   UNL     1       7.798   7.519  17.000  0.00  0.00    +0.000 HD
ENDROOT
BRANCH   1   5
ATOM      5  C   UNL     1       8.671   8.298  18.789  0.00  0.00    +0.000 C 
BRANCH   5   6
ATOM      6  C   UNL     1       8.493   9.692  18.190  0.00  0.00    +0.000 C 
BRANCH   6   7
ATOM      7  O   UNL     1       8.679  10.716  19.161  0.00  0.00    +0.000 OA
BRANCH   7  13
ATOM      8  C   UNL     1      10.599  11.959  20.196  0.00  0.00    +0.000 A 
ATOM      9  C   UNL     1      11.845  12.560  19.954  0.00  0.00    +0.000 A 
ATOM     10  C   UNL     1      12.331  12.696  18.656  0.00  0.00    +0.000 A 
ATOM     11  C   UNL     1      11.597  12.193  17.590  0.00  0.00    +0.000 A 
ATOM     12  C   UNL     1      10.390  11.530  17.826  0.00  0.00    +0.000 A 
ATOM     13  C   UNL     1       9.877  11.396  19.125  0.00  0.00    +0.000 A 
BRANCH   8  15
ATOM     14  C   UNL     1       9.165  12.870  21.844  0.00  0.00    +0.000 C 
ATOM     15  O   UNL     1      10.120  11.876  21.476  0.00  0.00    +0.000 OA
ENDBRANCH   8  15
ENDBRANCH   7  13
ENDBRANCH   6   7
ENDBRANCH   5   6
ENDBRANCH   1   5
BRANCH   2  16
ATOM     16  C   UNL     1       6.854   5.205  17.457  0.00  0.00    +0.000 C 
BRANCH  16  17
ATOM     17  N   UNL     1       5.451   5.070  17.790  0.00  0.00    +0.000 N 
ATOM     18  C   UNL     1       4.475   5.864  17.289  0.00  0.00    +0.000 C 
ATOM     19  O   UNL     1       4.597   6.732  16.442  0.00  0.00    +0.000 OA
ATOM     20  N   UNL     1       3.285   5.528  17.897  0.00  0.00    +0.000 N 
ATOM     21  C   UNL     1       3.426   4.418  18.816  0.00  0.00    +0.000 C 
ATOM     22  C   UNL     1       3.104   4.813  20.263  0.00  0.00    +0.000 C 
ATOM     23  C   UNL     1       1.609   5.028  20.486  0.00  0.00    +0.000 C 
ATOM     24  C   UNL     1       0.786   3.831  20.017  0.00  0.00    +0.000 C 
ATOM     25  C   UNL     1       1.103   3.443  18.575  0.00  0.00    +0.000 C 
ATOM     26  C   UNL     1       2.601   3.212  18.361  0.00  0.00    +0.000 C 
ATOM     27  C   UNL     1       4.942   4.167  18.679  0.00  0.00    +0.000 C 
ATOM     28  O   UNL     1       5.572   3.326  19.304  0.00  0.00    +0.000 OA
ATOM     29  H   UNL     1       2.423   5.998  17.655  0.00  0.00    +0.000 HD
ENDBRANCH  16  17
ENDBRANCH   2  16
TORSDOF 7
ENDMDL
MODEL 9
REMARK VINA RESULT:      -7.9      0.832      1.832
REMARK  Name = 
REMARK  8 active torsions:
REMARK  status: ('A' for Active; 'I' for Inactive)
REMARK    1  A    between atoms: C_1  and  O_2
REMARK    2  A    between atoms: O_2  and  C_3
REMARK    3  A    between atoms: C_8  and  O_9
REMARK    4  A    between atoms: O_9  and  C_10
REMARK    5  A    between atoms: C_10  and  C_11
REMARK    6  A    between atoms: C_11  and  N_12
REMARK    7  A    between atoms: C_13  and  C_15
REMARK    8  A    between atoms: C_15  and  N_16
REMARK                            x       y       z     vdW  Elec       q    Type
REMARK                         _______ _______ _______ _____ _____    ______ ____
ROOT
ATOM      1  N   UNL     1       7.858   7.327  17.888  0.00  0.00    +0.000 N 
ATOM      2  C   UNL     1       7.459   6.429  16.925  0.00  0.00    +0.000 C 
ATOM      3  O   UNL     1       7.086   6.766  15.805  0.00  0.00    +0.000 OA
ATOM      4  H   UNL     1       8.100   6.980  18.812  0.00  0.00    +0.000 HD
ENDROOT
BRANCH   1   5
ATOM      5  C   UNL     1       7.928   8.764  17.648  0.00  0.00    +0.000 C 
BRANCH   5   6
ATOM      6  C   UNL     1       8.616   9.462  18.820  0.00  0.00    +0.000 C 
BRANCH   6   7
ATOM      7  O   UNL     1       9.822  10.106  18.422  0.00  0.00    +0.000 OA
BRANCH   7  13
ATOM      8  C   UNL     1      10.673  12.467  18.482  0.00  0.00    +0.000 A 
ATOM      9  C   UNL     1      10.845  13.608  19.281  0.00  0.00    +0.000 A 
ATOM     10  C   UNL     1      10.574  13.571  20.646  0.00  0.00    +0.000 A 
ATOM     11  C   UNL     1      10.085  12.403  21.219  0.00  0.00    +0.000 A 
ATOM     12  C   UNL     1       9.842  11.284  20.419  0.00  0.00    +0.000 A 
ATOM     13  C   UNL     1      10.124  11.298  19.045  0.00  0.00    +0.000 A 
BRANCH   8  15
ATOM     14  C   UNL     1      11.786  13.626  16.743  0.00  0.00    +0.000 C 
ATOM     15  O   UNL     1      10.989  12.514  17.150  0.00  0.00    +0.000 OA
ENDBRANCH   8  15
ENDBRANCH   7  13
ENDBRANCH   6   7
ENDBRANCH   5   6
ENDBRANCH   1   5
BRANCH   2  16
ATOM     16  C   UNL     1       7.441   4.977  17.394  0.00  0.00    +0.000 C 
BRANCH  16  17
ATOM     17  N   UNL     1       6.124   4.629  17.887  0.00  0.00    +0.000 N 
ATOM     18  C   UNL     1       5.738   4.766  19.178  0.00  0.00    +0.000 C 
ATOM     19  O   UNL     1       6.379   5.267  20.085  0.00  0.00    +0.000 OA
ATOM     20  N   UNL     1       4.471   4.244  19.313  0.00  0.00    +0.000 N 
ATOM     21  C   UNL     1       3.929   3.775  18.054  0.00  0.00    +0.000 C 
ATOM     22  C   UNL     1       3.661   2.264  18.060  0.00  0.00    +0.000 C 
ATOM     23  C   UNL     1       2.451   1.894  18.914  0.00  0.00    +0.000 C 
ATOM     24  C   UNL     1       1.213   2.698  18.527  0.00  0.00    +0.000 C 
ATOM     25  C   UNL     1       1.479   4.202  18.527  0.00  0.00    +0.000 C 
ATOM     26  C   UNL     1       2.683   4.569  17.655  0.00  0.00    +0.000 C 
ATOM     27  C   UNL     1       5.127   4.078  17.133  0.00  0.00    +0.000 C 
ATOM     28  O   UNL     1       5.176   3.820  15.938  0.00  0.00    +0.000 OA
ATOM     29  H   UNL     1       3.990   4.258  20.202  0.00  0.00    +0.000 HD
ENDBRANCH  16  17
ENDBRANCH   2  16
TORSDOF 7
ENDMDL
