MODEL 1
REMARK VINA RESULT:      -7.3      0.000      0.000
REMARK  Name = 
REMARK  11 active torsions:
REMARK  status: ('A' for Active; 'I' for Inactive)
REMARK    1  A    between atoms: C_1  and  C_2
REMARK    2  A    between atoms: C_2  and  C_3
REMARK    3  A    between atoms: C_5  and  C_6
REMARK    4  A    between atoms: N_8  and  C_9
REMARK    5  A    between atoms: C_9  and  C_10
REMARK    6  A    between atoms: C_10  and  O_11
REMARK    7  A    between atoms: C_10  and  C_12
REMARK    8  A    between atoms: C_12  and  N_13
REMARK    9  A    between atoms: C_14  and  C_16
REMARK   10  A    between atoms: C_21  and  C_22
REMARK   11  A    between atoms: C_21  and  C_23
REMARK                            x       y       z     vdW  Elec       q    Type
REMARK                         _______ _______ _______ _____ _____    ______ ____
ROOT
ATOM      1  C   UNL     1       2.021   7.086  20.026  0.00  0.00    +0.000 C 
ATOM      2  O   UNL     1       2.359   7.814  19.101  0.00  0.00    +0.000 OA
ATOM      3  N   UNL     1       1.540   7.557  21.225  0.00  0.00    +0.000 N 
ATOM      4  H   UNL     1       1.453   6.917  22.001  0.00  0.00    +0.000 HD
ENDROOT
BRANCH   1   9
ATOM      5  C   UNL     1       1.822   2.538  21.563  0.00  0.00    +0.000 C 
ATOM      6  C   UNL     1       1.714   3.326  20.252  0.00  0.00    +0.000 C 
ATOM      7  C   UNL     1       0.739   2.615  19.308  0.00  0.00    +0.000 C 
ATOM      8  C   UNL     1       1.294   4.734  20.518  0.00  0.00    +0.000 C 
ATOM      9  C   UNL     1       2.138   5.608  19.953  0.00  0.00    +0.000 C 
ATOM     10  C   UNL     1       3.194   4.881  19.170  0.00  0.00    +0.000 C 
ATOM     11  C   UNL     1       4.631   5.335  19.471  0.00  0.00    +0.000 C 
ATOM     12  C   UNL     1       2.954   4.932  17.652  0.00  0.00    +0.000 C 
ATOM     13  N   UNL     1       3.042   3.450  19.602  0.00  0.00    +0.000 NA
ATOM     14  H   UNL     1       3.761   3.254  20.298  0.00  0.00    +0.000 HD
ENDBRANCH   1   9
BRANCH   3  15
ATOM     15  C   UNL     1       1.349   8.971  21.500  0.00  0.00    +0.000 C 
BRANCH  15  16
ATOM     16  C   UNL     1      -0.136   9.366  21.612  0.00  0.00    +0.000 C 
BRANCH  16  17
ATOM     17  O   UNL     1      -0.636   9.148  22.940  0.00  0.00    +0.000 OA
ATOM     18  H   UNL     1      -0.469   9.956  23.464  0.00  0.00    +0.000 HD
ENDBRANCH  16  17
BRANCH  16  19
ATOM     19  C   UNL     1      -0.314  10.851  21.262  0.00  0.00    +0.000 C 
BRANCH  19  20
ATOM     20  N   UNL     1      -1.338  11.058  20.255  0.00  0.00    +0.000 N 
ATOM     21  C   UNL     1      -1.134  10.807  18.912  0.00  0.00    +0.000 C 
ATOM     22  O   UNL     1      -0.028  10.484  18.484  0.00  0.00    +0.000 OA
ATOM     23  H   UNL     1      -2.295  11.118  20.566  0.00  0.00    +0.000 HD
BRANCH  21  24
ATOM     24  C   UNL     1      -2.309  10.963  18.060  0.00  0.00    +0.000 A 
ATOM     25  C   UNL     1      -3.465  11.662  18.357  0.00  0.00    +0.000 A 
ATOM     26  C   UNL     1      -4.434  11.594  17.314  0.00  0.00    +0.000 A 
ATOM     27  C   UNL     1      -3.985  10.853  16.245  0.00  0.00    +0.000 A 
ATOM     28  S   UNL     1      -2.409  10.246  16.503  0.00  0.00    +0.000 S 
ENDBRANCH  21  24
ENDBRANCH  19  20
ENDBRANCH  16  19
ENDBRANCH  15  16
ENDBRANCH   3  15
TORSDOF 7
ENDMDL
MODEL 2
REMARK VINA RESULT:      -7.3      2.926      3.267
REMARK  Name = 
REMARK  11 active torsions:
REMARK  status: ('A' for Active; 'I' for Inactive)
REMARK    1  A    between atoms: C_1  and  C_2
REMARK    2  A    between atoms: C_2  and  C_3
REMARK    3  A    between atoms: C_5  and  C_6
REMARK    4  A    between atoms: N_8  and  C_9
REMARK    5  A    between atoms: C_9  and  C_10
REMARK    6  A    between atoms: C_10  and  O_11
REMARK    7  A    between atoms: C_10  and  C_12
REMARK    8  A    between atoms: C_12  and  N_13
REMARK    9  A    between atoms: C_14  and  C_16
REMARK   10  A    between atoms: C_21  and  C_22
REMARK   11  A    between atoms: C_21  and  C_23
REMARK                            x       y       z     vdW  Elec       q    Type
REMARK                         _______ _______ _______ _____ _____    ______ ____
ROOT
ATOM      1  C   UNL     1       2.094   7.001  19.976  0.00  0.00    +0.000 C 
ATOM      2  O   UNL     1       2.315   7.731  19.017  0.00  0.00    +0.000 OA
ATOM      3  N   UNL     1       1.704   7.468  21.209  0.00  0.00    +0.000 N 
ATOM      4  H   UNL     1       1.715   6.834  21.996  0.00  0.00    +0.000 HD
ENDROOT
BRANCH   1   9
ATOM      5  C   UNL     1       2.052   2.451  21.519  0.00  0.00    +0.000 C 
ATOM      6  C   UNL     1       1.923   3.232  20.206  0.00  0.00    +0.000 C 
ATOM      7  C   UNL     1       0.981   2.485  19.257  0.00  0.00    +0.000 C 
ATOM      8  C   UNL     1       1.450   4.625  20.467  0.00  0.00    +0.000 C 
ATOM      9  C   UNL     1       2.265   5.528  19.906  0.00  0.00    +0.000 C 
ATOM     10  C   UNL     1       3.353   4.840  19.131  0.00  0.00    +0.000 C 
ATOM     11  C   UNL     1       4.770   5.346  19.441  0.00  0.00    +0.000 C 
ATOM     12  C   UNL     1       3.121   4.880  17.612  0.00  0.00    +0.000 C 
ATOM     13  N   UNL     1       3.250   3.404  19.564  0.00  0.00    +0.000 NA
ATOM     14  H   UNL     1       3.971   3.236  20.265  0.00  0.00    +0.000 HD
ENDBRANCH   1   9
BRANCH   3  15
ATOM     15  C   UNL     1       1.480   8.876  21.488  0.00  0.00    +0.000 C 
BRANCH  15  16
ATOM     16  C   UNL     1      -0.002   9.209  21.745  0.00  0.00    +0.000 C 
BRANCH  16  17
ATOM     17  O   UNL     1      -0.827   8.039  21.630  0.00  0.00    +0.000 OA
ATOM     18  H   UNL     1      -1.630   8.180  22.169  0.00  0.00    +0.000 HD
ENDBRANCH  16  17
BRANCH  16  19
ATOM     19  C   UNL     1      -0.174   9.790  23.156  0.00  0.00    +0.000 C 
BRANCH  19  20
ATOM     20  N   UNL     1      -1.436  10.490  23.311  0.00  0.00    +0.000 N 
ATOM     21  C   UNL     1      -1.587  11.835  23.037  0.00  0.00    +0.000 C 
ATOM     22  O   UNL     1      -0.625  12.538  22.736  0.00  0.00    +0.000 OA
ATOM     23  H   UNL     1      -2.277   9.936  23.351  0.00  0.00    +0.000 HD
BRANCH  21  24
ATOM     24  C   UNL     1      -2.952  12.345  23.140  0.00  0.00    +0.000 A 
ATOM     25  C   UNL     1      -3.733  12.404  24.279  0.00  0.00    +0.000 A 
ATOM     26  C   UNL     1      -5.033  12.935  24.029  0.00  0.00    +0.000 A 
ATOM     27  C   UNL     1      -5.202  13.275  22.707  0.00  0.00    +0.000 A 
ATOM     28  S   UNL     1      -3.803  12.955  21.779  0.00  0.00    +0.000 S 
ENDBRANCH  21  24
ENDBRANCH  19  20
ENDBRANCH  16  19
ENDBRANCH  15  16
ENDBRANCH   3  15
TORSDOF 7
ENDMDL
MODEL 3
REMARK VINA RESULT:      -7.2      3.238      5.695
REMARK  Name = 
REMARK  11 active torsions:
REMARK  status: ('A' for Active; 'I' for Inactive)
REMARK    1  A    between atoms: C_1  and  C_2
REMARK    2  A    between atoms: C_2  and  C_3
REMARK    3  A    between atoms: C_5  and  C_6
REMARK    4  A    between atoms: N_8  and  C_9
REMARK    5  A    between atoms: C_9  and  C_10
REMARK    6  A    between atoms: C_10  and  O_11
REMARK    7  A    between atoms: C_10  and  C_12
REMARK    8  A    between atoms: C_12  and  N_13
REMARK    9  A    between atoms: C_14  and  C_16
REMARK   10  A    between atoms: C_21  and  C_22
REMARK   11  A    between atoms: C_21  and  C_23
REMARK                            x       y       z     vdW  Elec       q    Type
REMARK                         _______ _______ _______ _____ _____    ______ ____
ROOT
ATOM      1  C   UNL     1       4.794   3.825  18.468  0.00  0.00    +0.000 C 
ATOM      2  O   UNL     1       5.398   3.600  19.510  0.00  0.00    +0.000 OA
ATOM      3  N   UNL     1       3.458   3.551  18.292  0.00  0.00    +0.000 N 
ATOM      4  H   UNL     1       3.071   3.591  17.361  0.00  0.00    +0.000 HD
ENDROOT
BRANCH   1   9
ATOM      5  C   UNL     1       6.309   4.011  13.912  0.00  0.00    +0.000 C 
ATOM      6  C   UNL     1       5.936   4.967  15.051  0.00  0.00    +0.000 C 
ATOM      7  C   UNL     1       5.325   6.244  14.465  0.00  0.00    +0.000 C 
ATOM      8  C   UNL     1       5.007   4.302  16.012  0.00  0.00    +0.000 C 
ATOM      9  C   UNL     1       5.466   4.384  17.268  0.00  0.00    +0.000 C 
ATOM     10  C   UNL     1       6.735   5.188  17.308  0.00  0.00    +0.000 C 
ATOM     11  C   UNL     1       7.885   4.518  18.077  0.00  0.00    +0.000 C 
ATOM     12  C   UNL     1       6.525   6.611  17.849  0.00  0.00    +0.000 C 
ATOM     13  N   UNL     1       7.130   5.308  15.863  0.00  0.00    +0.000 NA
ATOM     14  H   UNL     1       7.855   4.616  15.677  0.00  0.00    +0.000 HD
ENDBRANCH   1   9
BRANCH   3  15
ATOM     15  C   UNL     1       2.619   3.000  19.343  0.00  0.00    +0.000 C 
BRANCH  15  16
ATOM     16  C   UNL     1       1.612   4.022  19.905  0.00  0.00    +0.000 C 
BRANCH  16  17
ATOM     17  O   UNL     1       0.531   3.370  20.588  0.00  0.00    +0.000 OA
ATOM     18  H   UNL     1       0.731   3.371  21.544  0.00  0.00    +0.000 HD
ENDBRANCH  16  17
BRANCH  16  19
ATOM     19  C   UNL     1       2.316   4.964  20.894  0.00  0.00    +0.000 C 
BRANCH  19  20
ATOM     20  N   UNL     1       1.941   6.351  20.690  0.00  0.00    +0.000 N 
ATOM     21  C   UNL     1       2.238   7.048  19.536  0.00  0.00    +0.000 C 
ATOM     22  O   UNL     1       2.929   6.551  18.649  0.00  0.00    +0.000 OA
ATOM     23  H   UNL     1       1.215   6.731  21.277  0.00  0.00    +0.000 HD
BRANCH  21  24
ATOM     24  C   UNL     1       1.685   8.398  19.459  0.00  0.00    +0.000 A 
ATOM     25  C   UNL     1       0.981   9.065  20.444  0.00  0.00    +0.000 A 
ATOM     26  C   UNL     1       0.557  10.364  20.036  0.00  0.00    +0.000 A 
ATOM     27  C   UNL     1       0.960  10.655  18.753  0.00  0.00    +0.000 A 
ATOM     28  S   UNL     1       1.840   9.369  18.051  0.00  0.00    +0.000 S 
ENDBRANCH  21  24
ENDBRANCH  19  20
ENDBRANCH  16  19
ENDBRANCH  15  16
ENDBRANCH   3  15
TORSDOF 7
ENDMDL
MODEL 4
REMARK VINA RESULT:      -7.1      3.858      5.715
REMARK  Name = 
REMARK  11 active torsions:
REMARK  status: ('A' for Active; 'I' for Inactive)
REMARK    1  A    between atoms: C_1  and  C_2
REMARK    2  A    between atoms: C_2  and  C_3
REMARK    3  A    between atoms: C_5  and  C_6
REMARK    4  A    between atoms: N_8  and  C_9
REMARK    5  A    between atoms: C_9  and  C_10
REMARK    6  A    between atoms: C_10  and  O_11
REMARK    7  A    between atoms: C_10  and  C_12
REMARK    8  A    between atoms: C_12  and  N_13
REMARK    9  A    between atoms: C_14  and  C_16
REMARK   10  A    between atoms: C_21  and  C_22
REMARK   11  A    between atoms: C_21  and  C_23
REMARK                            x       y       z     vdW  Elec       q    Type
REMARK                         _______ _______ _______ _____ _____    ______ ____
ROOT
ATOM      1  C   UNL     1       5.087   4.027  19.122  0.00  0.00    +0.000 C 
ATOM      2  O   UNL     1       5.828   4.511  19.969  0.00  0.00    +0.000 OA
ATOM      3  N   UNL     1       5.351   4.064  17.774  0.00  0.00    +0.000 N 
ATOM      4  H   UNL     1       4.618   3.811  17.127  0.00  0.00    +0.000 HD
ENDROOT
BRANCH   1   9
ATOM      5  C   UNL     1       1.552   2.437  21.961  0.00  0.00    +0.000 C 
ATOM      6  C   UNL     1       1.755   2.918  20.520  0.00  0.00    +0.000 C 
ATOM      7  C   UNL     1       0.487   3.627  20.035  0.00  0.00    +0.000 C 
ATOM      8  C   UNL     1       2.952   3.805  20.425  0.00  0.00    +0.000 C 
ATOM      9  C   UNL     1       3.798   3.382  19.475  0.00  0.00    +0.000 C 
ATOM     10  C   UNL     1       3.226   2.190  18.761  0.00  0.00    +0.000 C 
ATOM     11  C   UNL     1       4.193   1.003  18.636  0.00  0.00    +0.000 C 
ATOM     12  C   UNL     1       2.666   2.537  17.372  0.00  0.00    +0.000 C 
ATOM     13  N   UNL     1       2.066   1.776  19.624  0.00  0.00    +0.000 NA
ATOM     14  H   UNL     1       2.367   0.989  20.198  0.00  0.00    +0.000 HD
ENDBRANCH   1   9
BRANCH   3  15
ATOM     15  C   UNL     1       6.560   4.650  17.220  0.00  0.00    +0.000 C 
BRANCH  15  16
ATOM     16  C   UNL     1       6.478   6.184  17.092  0.00  0.00    +0.000 C 
BRANCH  16  17
ATOM     17  O   UNL     1       7.588   6.705  16.346  0.00  0.00    +0.000 OA
ATOM     18  H   UNL     1       8.297   6.033  16.344  0.00  0.00    +0.000 HD
ENDBRANCH  16  17
BRANCH  16  19
ATOM     19  C   UNL     1       5.179   6.583  16.375  0.00  0.00    +0.000 C 
BRANCH  19  20
ATOM     20  N   UNL     1       4.285   7.332  17.237  0.00  0.00    +0.000 N 
ATOM     21  C   UNL     1       3.111   6.807  17.740  0.00  0.00    +0.000 C 
ATOM     22  O   UNL     1       2.710   5.696  17.398  0.00  0.00    +0.000 OA
ATOM     23  H   UNL     1       4.656   8.145  17.704  0.00  0.00    +0.000 HD
BRANCH  21  24
ATOM     24  C   UNL     1       2.394   7.663  18.682  0.00  0.00    +0.000 A 
ATOM     25  C   UNL     1       2.125   7.394  20.011  0.00  0.00    +0.000 A 
ATOM     26  C   UNL     1       1.379   8.431  20.643  0.00  0.00    +0.000 A 
ATOM     27  C   UNL     1       1.110   9.468  19.780  0.00  0.00    +0.000 A 
ATOM     28  S   UNL     1       1.752   9.188  18.222  0.00  0.00    +0.000 S 
ENDBRANCH  21  24
ENDBRANCH  19  20
ENDBRANCH  16  19
ENDBRANCH  15  16
ENDBRANCH   3  15
TORSDOF 7
ENDMDL
MODEL 5
REMARK VINA RESULT:      -7.1      1.224      1.389
REMARK  Name = 
REMARK  11 active torsions:
REMARK  status: ('A' for Active; 'I' for Inactive)
REMARK    1  A    between atoms: C_1  and  C_2
REMARK    2  A    between atoms: C_2  and  C_3
REMARK    3  A    between atoms: C_5  and  C_6
REMARK    4  A    between atoms: N_8  and  C_9
REMARK    5  A    between atoms: C_9  and  C_10
REMARK    6  A    between atoms: C_10  and  O_11
REMARK    7  A    between atoms: C_10  and  C_12
REMARK    8  A    between atoms: C_12  and  N_13
REMARK    9  A    between atoms: C_14  and  C_16
REMARK   10  A    between atoms: C_21  and  C_22
REMARK   11  A    between atoms: C_21  and  C_23
REMARK                            x       y       z     vdW  Elec       q    Type
REMARK                         _______ _______ _______ _____ _____    ______ ____
ROOT
ATOM      1  C   UNL     1       2.517   6.785  19.301  0.00  0.00    +0.000 C 
ATOM      2  O   UNL     1       2.886   7.373  18.292  0.00  0.00    +0.000 OA
ATOM      3  N   UNL     1       1.901   7.410  20.360  0.00  0.00    +0.000 N 
ATOM      4  H   UNL     1       1.789   6.904  21.226  0.00  0.00    +0.000 HD
ENDROOT
BRANCH   1   9
ATOM      5  C   UNL     1       2.506   2.562  21.592  0.00  0.00    +0.000 C 
ATOM      6  C   UNL     1       2.446   3.105  20.159  0.00  0.00    +0.000 C 
ATOM      7  C   UNL     1       1.598   2.169  19.293  0.00  0.00    +0.000 C 
ATOM      8  C   UNL     1       1.914   4.500  20.148  0.00  0.00    +0.000 C 
ATOM      9  C   UNL     1       2.738   5.330  19.495  0.00  0.00    +0.000 C 
ATOM     10  C   UNL     1       3.898   4.568  18.920  0.00  0.00    +0.000 C 
ATOM     11  C   UNL     1       5.273   5.179  19.231  0.00  0.00    +0.000 C 
ATOM     12  C   UNL     1       3.774   4.342  17.405  0.00  0.00    +0.000 C 
ATOM     13  N   UNL     1       3.810   3.223  19.585  0.00  0.00    +0.000 NA
ATOM     14  H   UNL     1       4.484   3.206  20.350  0.00  0.00    +0.000 HD
ENDBRANCH   1   9
BRANCH   3  15
ATOM     15  C   UNL     1       1.592   8.830  20.370  0.00  0.00    +0.000 C 
BRANCH  15  16
ATOM     16  C   UNL     1       0.801   9.263  21.619  0.00  0.00    +0.000 C 
BRANCH  16  17
ATOM     17  O   UNL     1       1.681   9.616  22.698  0.00  0.00    +0.000 OA
ATOM     18  H   UNL     1       1.137   9.956  23.434  0.00  0.00    +0.000 HD
ENDBRANCH  16  17
BRANCH  16  19
ATOM     19  C   UNL     1      -0.078  10.479  21.289  0.00  0.00    +0.000 C 
BRANCH  19  20
ATOM     20  N   UNL     1      -0.881  10.269  20.099  0.00  0.00    +0.000 N 
ATOM     21  C   UNL     1      -1.542  11.292  19.448  0.00  0.00    +0.000 C 
ATOM     22  O   UNL     1      -1.563  12.433  19.906  0.00  0.00    +0.000 OA
ATOM     23  H   UNL     1      -0.732   9.420  19.578  0.00  0.00    +0.000 HD
BRANCH  21  24
ATOM     24  C   UNL     1      -2.208  10.916  18.204  0.00  0.00    +0.000 A 
ATOM     25  C   UNL     1      -1.712  10.089  17.213  0.00  0.00    +0.000 A 
ATOM     26  C   UNL     1      -2.608   9.949  16.113  0.00  0.00    +0.000 A 
ATOM     27  C   UNL     1      -3.767  10.665  16.301  0.00  0.00    +0.000 A 
ATOM     28  S   UNL     1      -3.770  11.498  17.793  0.00  0.00    +0.000 S 
ENDBRANCH  21  24
ENDBRANCH  19  20
ENDBRANCH  16  19
ENDBRANCH  15  16
ENDBRANCH   3  15
TORSDOF 7
ENDMDL
MODEL 6
REMARK VINA RESULT:      -7.0      2.433      3.694
REMARK  Name = 
REMARK  11 active torsions:
REMARK  status: ('A' for Active; 'I' for Inactive)
REMARK    1  A    between atoms: C_1  and  C_2
REMARK    2  A    between atoms: C_2  and  C_3
REMARK    3  A    between atoms: C_5  and  C_6
REMARK    4  A    between atoms: N_8  and  C_9
REMARK    5  A    between atoms: C_9  and  C_10
REMARK    6  A    between atoms: C_10  and  O_11
REMARK    7  A    between atoms: C_10  and  C_12
REMARK    8  A    between atoms: C_12  and  N_13
REMARK    9  A    between atoms: C_14  and  C_16
REMARK   10  A    between atoms: C_21  and  C_22
REMARK   11  A    between atoms: C_21  and  C_23
REMARK                            x       y       z     vdW  Elec       q    Type
REMARK                         _______ _______ _______ _____ _____    ______ ____
ROOT
ATOM      1  C   UNL     1       2.535   7.450  18.513  0.00  0.00    +0.000 C 
ATOM      2  O   UNL     1       2.225   7.446  19.698  0.00  0.00    +0.000 OA
ATOM      3  N   UNL     1       2.020   8.338  17.598  0.00  0.00    +0.000 N 
ATOM      4  H   UNL     1       2.177   8.171  16.615  0.00  0.00    +0.000 HD
ENDROOT
BRANCH   1   9
ATOM      5  C   UNL     1       5.587   5.564  15.318  0.00  0.00    +0.000 C 
ATOM      6  C   UNL     1       5.305   5.512  16.824  0.00  0.00    +0.000 C 
ATOM      7  C   UNL     1       6.621   5.307  17.582  0.00  0.00    +0.000 C 
ATOM      8  C   UNL     1       4.600   6.751  17.269  0.00  0.00    +0.000 C 
ATOM      9  C   UNL     1       3.477   6.458  17.937  0.00  0.00    +0.000 C 
ATOM     10  C   UNL     1       3.331   4.969  18.085  0.00  0.00    +0.000 C 
ATOM     11  C   UNL     1       1.953   4.424  17.680  0.00  0.00    +0.000 C 
ATOM     12  C   UNL     1       3.678   4.472  19.498  0.00  0.00    +0.000 C 
ATOM     13  N   UNL     1       4.363   4.412  17.145  0.00  0.00    +0.000 NA
ATOM     14  H   UNL     1       3.888   4.134  16.287  0.00  0.00    +0.000 HD
ENDBRANCH   1   9
BRANCH   3  15
ATOM     15  C   UNL     1       1.082   9.389  17.957  0.00  0.00    +0.000 C 
BRANCH  15  16
ATOM     16  C   UNL     1       1.779  10.687  18.408  0.00  0.00    +0.000 C 
BRANCH  16  17
ATOM     17  O   UNL     1       2.456  11.323  17.313  0.00  0.00    +0.000 OA
ATOM     18  H   UNL     1       1.781  11.675  16.701  0.00  0.00    +0.000 HD
ENDBRANCH  16  17
BRANCH  16  19
ATOM     19  C   UNL     1       0.744  11.669  18.977  0.00  0.00    +0.000 C 
BRANCH  19  20
ATOM     20  N   UNL     1      -0.562  11.504  18.367  0.00  0.00    +0.000 N 
ATOM     21  C   UNL     1      -1.743  11.727  19.047  0.00  0.00    +0.000 C 
ATOM     22  O   UNL     1      -1.749  11.986  20.249  0.00  0.00    +0.000 OA
ATOM     23  H   UNL     1      -0.612  11.499  17.361  0.00  0.00    +0.000 HD
BRANCH  21  24
ATOM     24  C   UNL     1      -2.958  11.624  18.244  0.00  0.00    +0.000 A 
ATOM     25  C   UNL     1      -3.050  11.229  16.922  0.00  0.00    +0.000 A 
ATOM     26  C   UNL     1      -4.387  11.264  16.428  0.00  0.00    +0.000 A 
ATOM     27  C   UNL     1      -5.279  11.674  17.391  0.00  0.00    +0.000 A 
ATOM     28  S   UNL     1      -4.506  12.014  18.877  0.00  0.00    +0.000 S 
ENDBRANCH  21  24
ENDBRANCH  19  20
ENDBRANCH  16  19
ENDBRANCH  15  16
ENDBRANCH   3  15
TORSDOF 7
ENDMDL
MODEL 7
REMARK VINA RESULT:      -7.0      2.318      2.983
REMARK  Name = 
REMARK  11 active torsions:
REMARK  status: ('A' for Active; 'I' for Inactive)
REMARK    1  A    between atoms: C_1  and  C_2
REMARK    2  A    between atoms: C_2  and  C_3
REMARK    3  A    between atoms: C_5  and  C_6
REMARK    4  A    between atoms: N_8  and  C_9
REMARK    5  A    between atoms: C_9  and  C_10
REMARK    6  A    between atoms: C_10  and  O_11
REMARK    7  A    between atoms: C_10  and  C_12
REMARK    8  A    between atoms: C_12  and  N_13
REMARK    9  A    between atoms: C_14  and  C_16
REMARK   10  A    between atoms: C_21  and  C_22
REMARK   11  A    between atoms: C_21  and  C_23
REMARK                            x       y       z     vdW  Elec       q    Type
REMARK                         _______ _______ _______ _____ _____    ______ ____
ROOT
ATOM      1  C   UNL     1       2.022   7.169  20.073  0.00  0.00    +0.000 C 
ATOM      2  O   UNL     1       2.278   7.891  19.117  0.00  0.00    +0.000 OA
ATOM      3  N   UNL     1       1.633   7.649  21.302  0.00  0.00    +0.000 N 
ATOM      4  H   UNL     1       1.616   7.016  22.088  0.00  0.00    +0.000 HD
ENDROOT
BRANCH   1   9
ATOM      5  C   UNL     1       1.901   2.630  21.641  0.00  0.00    +0.000 C 
ATOM      6  C   UNL     1       1.749   3.409  20.329  0.00  0.00    +0.000 C 
ATOM      7  C   UNL     1       0.753   2.685  19.418  0.00  0.00    +0.000 C 
ATOM      8  C   UNL     1       1.327   4.815  20.599  0.00  0.00    +0.000 C 
ATOM      9  C   UNL     1       2.148   5.692  20.005  0.00  0.00    +0.000 C 
ATOM     10  C   UNL     1       3.186   4.968  19.195  0.00  0.00    +0.000 C 
ATOM     11  C   UNL     1       4.628   5.434  19.453  0.00  0.00    +0.000 C 
ATOM     12  C   UNL     1       2.902   5.009  17.685  0.00  0.00    +0.000 C 
ATOM     13  N   UNL     1       3.057   3.538  19.640  0.00  0.00    +0.000 NA
ATOM     14  H   UNL     1       3.797   3.352  20.316  0.00  0.00    +0.000 HD
ENDBRANCH   1   9
BRANCH   3  15
ATOM     15  C   UNL     1       1.451   9.064  21.577  0.00  0.00    +0.000 C 
BRANCH  15  16
ATOM     16  C   UNL     1       0.166   9.359  22.374  0.00  0.00    +0.000 C 
BRANCH  16  17
ATOM     17  O   UNL     1       0.461   9.668  23.745  0.00  0.00    +0.000 OA
ATOM     18  H   UNL     1       0.022   9.002  24.308  0.00  0.00    +0.000 HD
ENDBRANCH  16  17
BRANCH  16  19
ATOM     19  C   UNL     1      -0.575  10.553  21.754  0.00  0.00    +0.000 C 
BRANCH  19  20
ATOM     20  N   UNL     1       0.332  11.492  21.120  0.00  0.00    +0.000 N 
ATOM     21  C   UNL     1       0.191  11.905  19.810  0.00  0.00    +0.000 C 
ATOM     22  O   UNL     1      -0.665  11.417  19.075  0.00  0.00    +0.000 OA
ATOM     23  H   UNL     1       0.907  12.065  21.718  0.00  0.00    +0.000 HD
BRANCH  21  24
ATOM     24  C   UNL     1       1.127  12.939  19.375  0.00  0.00    +0.000 A 
ATOM     25  C   UNL     1       1.138  14.266  19.761  0.00  0.00    +0.000 A 
ATOM     26  C   UNL     1       2.171  15.016  19.127  0.00  0.00    +0.000 A 
ATOM     27  C   UNL     1       2.927  14.236  18.282  0.00  0.00    +0.000 A 
ATOM     28  S   UNL     1       2.389  12.614  18.257  0.00  0.00    +0.000 S 
ENDBRANCH  21  24
ENDBRANCH  19  20
ENDBRANCH  16  19
ENDBRANCH  15  16
ENDBRANCH   3  15
TORSDOF 7
ENDMDL
MODEL 8
REMARK VINA RESULT:      -6.8      2.584      3.207
REMARK  Name = 
REMARK  11 active torsions:
REMARK  status: ('A' for Active; 'I' for Inactive)
REMARK    1  A    between atoms: C_1  and  C_2
REMARK    2  A    between atoms: C_2  and  C_3
REMARK    3  A    between atoms: C_5  and  C_6
REMARK    4  A    between atoms: N_8  and  C_9
REMARK    5  A    between atoms: C_9  and  C_10
REMARK    6  A    between atoms: C_10  and  O_11
REMARK    7  A    between atoms: C_10  and  C_12
REMARK    8  A    between atoms: C_12  and  N_13
REMARK    9  A    between atoms: C_14  and  C_16
REMARK   10  A    between atoms: C_21  and  C_22
REMARK   11  A    between atoms: C_21  and  C_23
REMARK                            x       y       z     vdW  Elec       q    Type
REMARK                         _______ _______ _______ _____ _____    ______ ____
ROOT
ATOM      1  C   UNL     1       3.224   6.794  17.926  0.00  0.00    +0.000 C 
ATOM      2  O   UNL     1       4.174   7.056  17.199  0.00  0.00    +0.000 OA
ATOM      3  N   UNL     1       2.300   7.729  18.332  0.00  0.00    +0.000 N 
ATOM      4  H   UNL     1       1.654   7.487  19.070  0.00  0.00    +0.000 HD
ENDROOT
BRANCH   1   9
ATOM      5  C   UNL     1       1.422   3.430  20.845  0.00  0.00    +0.000 C 
ATOM      6  C   UNL     1       1.962   3.558  19.416  0.00  0.00    +0.000 C 
ATOM      7  C   UNL     1       1.229   2.570  18.503  0.00  0.00    +0.000 C 
ATOM      8  C   UNL     1       1.829   4.963  18.927  0.00  0.00    +0.000 C 
ATOM      9  C   UNL     1       2.999   5.434  18.476  0.00  0.00    +0.000 C 
ATOM     10  C   UNL     1       4.052   4.364  18.540  0.00  0.00    +0.000 C 
ATOM     11  C   UNL     1       5.362   4.804  19.210  0.00  0.00    +0.000 C 
ATOM     12  C   UNL     1       4.366   3.751  17.166  0.00  0.00    +0.000 C 
ATOM     13  N   UNL     1       3.421   3.288  19.379  0.00  0.00    +0.000 NA
ATOM     14  H   UNL     1       3.788   3.373  20.327  0.00  0.00    +0.000 HD
ENDBRANCH   1   9
BRANCH   3  15
ATOM     15  C   UNL     1       2.340   9.117  17.906  0.00  0.00    +0.000 C 
BRANCH  15  16
ATOM     16  C   UNL     1       1.209   9.965  18.519  0.00  0.00    +0.000 C 
BRANCH  16  17
ATOM     17  O   UNL     1       0.034   9.942  17.695  0.00  0.00    +0.000 OA
ATOM     18  H   UNL     1      -0.201  10.864  17.475  0.00  0.00    +0.000 HD
ENDBRANCH  16  17
BRANCH  16  19
ATOM     19  C   UNL     1       0.840   9.425  19.909  0.00  0.00    +0.000 C 
BRANCH  19  20
ATOM     20  N   UNL     1      -0.297  10.120  20.483  0.00  0.00    +0.000 N 
ATOM     21  C   UNL     1      -0.170  11.250  21.267  0.00  0.00    +0.000 C 
ATOM     22  O   UNL     1       0.934  11.673  21.603  0.00  0.00    +0.000 OA
ATOM     23  H   UNL     1      -1.204   9.945  20.081  0.00  0.00    +0.000 HD
BRANCH  21  24
ATOM     24  C   UNL     1      -1.425  11.881  21.664  0.00  0.00    +0.000 A 
ATOM     25  C   UNL     1      -1.847  12.153  22.952  0.00  0.00    +0.000 A 
ATOM     26  C   UNL     1      -3.140  12.753  22.994  0.00  0.00    +0.000 A 
ATOM     27  C   UNL     1      -3.663  12.931  21.733  0.00  0.00    +0.000 A 
ATOM     28  S   UNL     1      -2.601  12.377  20.515  0.00  0.00    +0.000 S 
ENDBRANCH  21  24
ENDBRANCH  19  20
ENDBRANCH  16  19
ENDBRANCH  15  16
ENDBRANCH   3  15
TORSDOF 7
ENDMDL
MODEL 9
REMARK VINA RESULT:      -6.8      3.008      4.425
REMARK  Name = 
REMARK  11 active torsions:
REMARK  status: ('A' for Active; 'I' for Inactive)
REMARK    1  A    between atoms: C_1  and  C_2
REMARK    2  A    between atoms: C_2  and  C_3
REMARK    3  A    between atoms: C_5  and  C_6
REMARK    4  A    between atoms: N_8  and  C_9
REMARK    5  A    between atoms: C_9  and  C_10
REMARK    6  A    between atoms: C_10  and  O_11
REMARK    7  A    between atoms: C_10  and  C_12
REMARK    8  A    between atoms: C_12  and  N_13
REMARK    9  A    between atoms: C_14  and  C_16
REMARK   10  A    between atoms: C_21  and  C_22
REMARK   11  A    between atoms: C_21  and  C_23
REMARK                            x       y       z     vdW  Elec       q    Type
REMARK                         _______ _______ _______ _____ _____    ______ ____
ROOT
ATOM      1  C   UNL     1       2.690   5.779  18.016  0.00  0.00    +0.000 C 
ATOM      2  O   UNL     1       1.524   5.421  17.899  0.00  0.00    +0.000 OA
ATOM      3  N   UNL     1       3.064   6.955  18.622  0.00  0.00    +0.000 N 
ATOM      4  H   UNL     1       4.018   7.272  18.523  0.00  0.00    +0.000 HD
ENDROOT
BRANCH   1   9
ATOM      5  C   UNL     1       5.880   4.249  14.766  0.00  0.00    +0.000 C 
ATOM      6  C   UNL     1       5.744   4.376  16.287  0.00  0.00    +0.000 C 
ATOM      7  C   UNL     1       7.121   4.647  16.902  0.00  0.00    +0.000 C 
ATOM      8  C   UNL     1       4.763   5.445  16.640  0.00  0.00    +0.000 C 
ATOM      9  C   UNL     1       3.820   4.984  17.473  0.00  0.00    +0.000 C 
ATOM     10  C   UNL     1       4.102   3.555  17.841  0.00  0.00    +0.000 C 
ATOM     11  C   UNL     1       2.900   2.612  17.685  0.00  0.00    +0.000 C 
ATOM     12  C   UNL     1       4.684   3.406  19.256  0.00  0.00    +0.000 C 
ATOM     13  N   UNL     1       5.170   3.137  16.869  0.00  0.00    +0.000 NA
ATOM     14  H   UNL     1       4.723   2.607  16.121  0.00  0.00    +0.000 HD
ENDBRANCH   1   9
BRANCH   3  15
ATOM     15  C   UNL     1       2.112   7.876  19.219  0.00  0.00    +0.000 C 
BRANCH  15  16
ATOM     16  C   UNL     1       1.498   7.340  20.526  0.00  0.00    +0.000 C 
BRANCH  16  17
ATOM     17  O   UNL     1       2.196   6.175  20.992  0.00  0.00    +0.000 OA
ATOM     18  H   UNL     1       1.708   5.814  21.757  0.00  0.00    +0.000 HD
ENDBRANCH  16  17
BRANCH  16  19
ATOM     19  C   UNL     1       1.566   8.418  21.619  0.00  0.00    +0.000 C 
BRANCH  19  20
ATOM     20  N   UNL     1       0.493   9.387  21.501  0.00  0.00    +0.000 N 
ATOM     21  C   UNL     1      -0.036  10.059  22.585  0.00  0.00    +0.000 C 
ATOM     22  O   UNL     1       0.314   9.795  23.733  0.00  0.00    +0.000 OA
ATOM     23  H   UNL     1       0.318   9.784  20.591  0.00  0.00    +0.000 HD
BRANCH  21  24
ATOM     24  C   UNL     1      -1.030  11.080  22.265  0.00  0.00    +0.000 A 
ATOM     25  C   UNL     1      -1.972  11.620  23.122  0.00  0.00    +0.000 A 
ATOM     26  C   UNL     1      -2.812  12.579  22.483  0.00  0.00    +0.000 A 
ATOM     27  C   UNL     1      -2.480  12.751  21.159  0.00  0.00    +0.000 A 
ATOM     28  S   UNL     1      -1.166  11.761  20.695  0.00  0.00    +0.000 S 
ENDBRANCH  21  24
ENDBRANCH  19  20
ENDBRANCH  16  19
ENDBRANCH  15  16
ENDBRANCH   3  15
TORSDOF 7
ENDMDL
