MODEL 1
REMARK VINA RESULT:      -7.4      0.000      0.000
REMARK  Name = 
REMARK  4 active torsions:
REMARK  status: ('A' for Active; 'I' for Inactive)
REMARK    1  A    between atoms: O_1  and  C_2
REMARK    2  A    between atoms: C_2  and  C_3
REMARK    3  A    between atoms: N_5  and  C_6
REMARK    4  A    between atoms: C_6  and  C_7
REMARK                            x       y       z     vdW  Elec       q    Type
REMARK                         _______ _______ _______ _____ _____    ______ ____
ROOT
ATOM      1  C   UNL     1       3.757   3.772  17.869  0.00  0.00    +0.000 A 
ATOM      2  C   UNL     1       3.708   2.453  18.353  0.00  0.00    +0.000 A 
ATOM      3  C   UNL     1       3.021   2.165  19.521  0.00  0.00    +0.000 A 
ATOM      4  C   UNL     1       2.386   3.194  20.214  0.00  0.00    +0.000 A 
ATOM      5 BR   UNL     1       1.381   2.679  21.750  0.00  0.00    +0.000 Br
ATOM      6  C   UNL     1       2.478   4.540  19.778  0.00  0.00    +0.000 A 
ATOM      7  C   UNL     1       1.890   5.637  20.453  0.00  0.00    +0.000 A 
ATOM      8  C   UNL     1       2.041   6.935  19.981  0.00  0.00    +0.000 A 
ATOM      9  C   UNL     1       2.769   7.113  18.830  0.00  0.00    +0.000 A 
ATOM     10  N   UNL     1       3.320   6.097  18.136  0.00  0.00    +0.000 NA
ATOM     11  C   UNL     1       3.189   4.832  18.591  0.00  0.00    +0.000 A 
ENDROOT
BRANCH   1  12
ATOM     12  C   UNL     1       4.381   4.014  16.507  0.00  0.00    +0.000 C 
BRANCH  12  15
ATOM     13  C   UNL     1       6.760   5.957  16.828  0.00  0.00    +0.000 C 
ATOM     14  C   UNL     1       6.615   4.504  17.346  0.00  0.00    +0.000 C 
ATOM     15  N   UNL     1       5.813   3.633  16.449  0.00  0.00    +0.000 NA
ATOM     16  C   UNL     1       6.389   3.748  15.088  0.00  0.00    +0.000 C 
ATOM     17  C   UNL     1       6.568   5.193  14.597  0.00  0.00    +0.000 C 
ATOM     18  O   UNL     1       7.353   5.969  15.516  0.00  0.00    +0.000 OA
BRANCH  13  19
ATOM     19  C   UNL     1       7.630   6.799  17.762  0.00  0.00    +0.000 C 
BRANCH  19  20
ATOM     20  O   UNL     1       7.820   8.108  17.235  0.00  0.00    +0.000 OA
ATOM     21  H   UNL     1       7.716   8.038  16.271  0.00  0.00    +0.000 HD
ENDBRANCH  19  20
ENDBRANCH  13  19
ENDBRANCH  12  15
ENDBRANCH   1  12
TORSDOF 4
ENDMDL
MODEL 2
REMARK VINA RESULT:      -7.3      1.992      3.615
REMARK  Name = 
REMARK  4 active torsions:
REMARK  status: ('A' for Active; 'I' for Inactive)
REMARK    1  A    between atoms: O_1  and  C_2
REMARK    2  A    between atoms: C_2  and  C_3
REMARK    3  A    between atoms: N_5  and  C_6
REMARK    4  A    between atoms: C_6  and  C_7
REMARK                            x       y       z     vdW  Elec       q    Type
REMARK                         _______ _______ _______ _____ _____    ______ ____
ROOT
ATOM      1  C   UNL     1       3.410   5.831  17.995  0.00  0.00    +0.000 A 
ATOM      2  C   UNL     1       3.104   7.194  17.832  0.00  0.00    +0.000 A 
ATOM      3  C   UNL     1       2.376   7.866  18.799  0.00  0.00    +0.000 A 
ATOM      4  C   UNL     1       1.943   7.178  19.931  0.00  0.00    +0.000 A 
ATOM      5 BR   UNL     1       1.040   8.214  21.253  0.00  0.00    +0.000 Br
ATOM      6  C   UNL     1       2.185   5.789  20.085  0.00  0.00    +0.000 A 
ATOM      7  C   UNL     1       1.743   5.022  21.190  0.00  0.00    +0.000 A 
ATOM      8  C   UNL     1       1.995   3.657  21.263  0.00  0.00    +0.000 A 
ATOM      9  C   UNL     1       2.700   3.084  20.234  0.00  0.00    +0.000 A 
ATOM     10  N   UNL     1       3.169   3.779  19.178  0.00  0.00    +0.000 NA
ATOM     11  C   UNL     1       2.920   5.104  19.089  0.00  0.00    +0.000 A 
ENDROOT
BRANCH   1  12
ATOM     12  C   UNL     1       4.344   5.180  16.992  0.00  0.00    +0.000 C 
BRANCH  12  15
ATOM     13  C   UNL     1       6.522   4.455  14.927  0.00  0.00    +0.000 C 
ATOM     14  C   UNL     1       5.748   5.786  15.096  0.00  0.00    +0.000 C 
ATOM     15  N   UNL     1       5.405   6.096  16.508  0.00  0.00    +0.000 NA
ATOM     16  C   UNL     1       6.655   6.003  17.298  0.00  0.00    +0.000 C 
ATOM     17  C   UNL     1       7.439   4.697  17.094  0.00  0.00    +0.000 C 
ATOM     18  O   UNL     1       7.732   4.470  15.707  0.00  0.00    +0.000 OA
BRANCH  13  19
ATOM     19  C   UNL     1       6.891   4.205  13.463  0.00  0.00    +0.000 C 
BRANCH  19  20
ATOM     20  O   UNL     1       6.255   3.029  12.973  0.00  0.00    +0.000 OA
ATOM     21  H   UNL     1       5.352   3.032  13.332  0.00  0.00    +0.000 HD
ENDBRANCH  19  20
ENDBRANCH  13  19
ENDBRANCH  12  15
ENDBRANCH   1  12
TORSDOF 4
ENDMDL
MODEL 3
REMARK VINA RESULT:      -7.1      1.737      2.801
REMARK  Name = 
REMARK  4 active torsions:
REMARK  status: ('A' for Active; 'I' for Inactive)
REMARK    1  A    between atoms: O_1  and  C_2
REMARK    2  A    between atoms: C_2  and  C_3
REMARK    3  A    between atoms: N_5  and  C_6
REMARK    4  A    between atoms: C_6  and  C_7
REMARK                            x       y       z     vdW  Elec       q    Type
REMARK                         _______ _______ _______ _____ _____    ______ ____
ROOT
ATOM      1  C   UNL     1       3.406   5.692  17.774  0.00  0.00    +0.000 A 
ATOM      2  C   UNL     1       3.282   7.089  17.680  0.00  0.00    +0.000 A 
ATOM      3  C   UNL     1       2.630   7.799  18.674  0.00  0.00    +0.000 A 
ATOM      4  C   UNL     1       2.093   7.116  19.764  0.00  0.00    +0.000 A 
ATOM      5 BR   UNL     1       1.309   8.191  21.129  0.00  0.00    +0.000 Br
ATOM      6  C   UNL     1       2.151   5.701  19.847  0.00  0.00    +0.000 A 
ATOM      7  C   UNL     1       1.595   4.942  20.904  0.00  0.00    +0.000 A 
ATOM      8  C   UNL     1       1.668   3.555  20.908  0.00  0.00    +0.000 A 
ATOM      9  C   UNL     1       2.310   2.948  19.857  0.00  0.00    +0.000 A 
ATOM     10  N   UNL     1       2.882   3.630  18.844  0.00  0.00    +0.000 NA
ATOM     11  C   UNL     1       2.809   4.979  18.823  0.00  0.00    +0.000 A 
ENDROOT
BRANCH   1  12
ATOM     12  C   UNL     1       4.266   4.977  16.747  0.00  0.00    +0.000 C 
BRANCH  12  15
ATOM     13  C   UNL     1       6.847   6.660  16.939  0.00  0.00    +0.000 C 
ATOM     14  C   UNL     1       6.283   5.629  17.947  0.00  0.00    +0.000 C 
ATOM     15  N   UNL     1       5.558   4.505  17.300  0.00  0.00    +0.000 NA
ATOM     16  C   UNL     1       6.455   3.933  16.269  0.00  0.00    +0.000 C 
ATOM     17  C   UNL     1       7.044   4.968  15.297  0.00  0.00    +0.000 C 
ATOM     18  O   UNL     1       7.728   6.018  15.997  0.00  0.00    +0.000 OA
BRANCH  13  19
ATOM     19  C   UNL     1       7.623   7.770  17.650  0.00  0.00    +0.000 C 
BRANCH  19  20
ATOM     20  O   UNL     1       8.330   7.254  18.774  0.00  0.00    +0.000 OA
ATOM     21  H   UNL     1       9.233   7.609  18.721  0.00  0.00    +0.000 HD
ENDBRANCH  19  20
ENDBRANCH  13  19
ENDBRANCH  12  15
ENDBRANCH   1  12
TORSDOF 4
ENDMDL
MODEL 4
REMARK VINA RESULT:      -6.8      1.188      1.982
REMARK  Name = 
REMARK  4 active torsions:
REMARK  status: ('A' for Active; 'I' for Inactive)
REMARK    1  A    between atoms: O_1  and  C_2
REMARK    2  A    between atoms: C_2  and  C_3
REMARK    3  A    between atoms: N_5  and  C_6
REMARK    4  A    between atoms: C_6  and  C_7
REMARK                            x       y       z     vdW  Elec       q    Type
REMARK                         _______ _______ _______ _____ _____    ______ ____
ROOT
ATOM      1  C   UNL     1       3.734   4.058  17.888  0.00  0.00    +0.000 A 
ATOM      2  C   UNL     1       3.865   2.732  18.336  0.00  0.00    +0.000 A 
ATOM      3  C   UNL     1       3.283   2.339  19.530  0.00  0.00    +0.000 A 
ATOM      4  C   UNL     1       2.573   3.271  20.285  0.00  0.00    +0.000 A 
ATOM      5 BR   UNL     1       1.721   2.610  21.857  0.00  0.00    +0.000 Br
ATOM      6  C   UNL     1       2.483   4.629  19.883  0.00  0.00    +0.000 A 
ATOM      7  C   UNL     1       1.811   5.634  20.618  0.00  0.00    +0.000 A 
ATOM      8  C   UNL     1       1.784   6.951  20.176  0.00  0.00    +0.000 A 
ATOM      9  C   UNL     1       2.421   7.238  18.994  0.00  0.00    +0.000 A 
ATOM     10  N   UNL     1       3.046   6.309  18.243  0.00  0.00    +0.000 NA
ATOM     11  C   UNL     1       3.089   5.027  18.668  0.00  0.00    +0.000 A 
ENDROOT
BRANCH   1  12
ATOM     12  C   UNL     1       4.249   4.400  16.502  0.00  0.00    +0.000 C 
BRANCH  12  15
ATOM     13  C   UNL     1       6.781   4.694  14.760  0.00  0.00    +0.000 C 
ATOM     14  C   UNL     1       5.734   5.769  15.140  0.00  0.00    +0.000 C 
ATOM     15  N   UNL     1       5.152   5.577  16.493  0.00  0.00    +0.000 NA
ATOM     16  C   UNL     1       6.280   5.449  17.446  0.00  0.00    +0.000 C 
ATOM     17  C   UNL     1       7.336   4.409  17.042  0.00  0.00    +0.000 C 
ATOM     18  O   UNL     1       7.849   4.664  15.725  0.00  0.00    +0.000 OA
BRANCH  13  19
ATOM     19  C   UNL     1       7.383   4.963  13.379  0.00  0.00    +0.000 C 
BRANCH  19  20
ATOM     20  O   UNL     1       8.508   5.830  13.476  0.00  0.00    +0.000 OA
ATOM     21  H   UNL     1       8.509   6.375  12.672  0.00  0.00    +0.000 HD
ENDBRANCH  19  20
ENDBRANCH  13  19
ENDBRANCH  12  15
ENDBRANCH   1  12
TORSDOF 4
ENDMDL
MODEL 5
REMARK VINA RESULT:      -6.5      3.519      5.684
REMARK  Name = 
REMARK  4 active torsions:
REMARK  status: ('A' for Active; 'I' for Inactive)
REMARK    1  A    between atoms: O_1  and  C_2
REMARK    2  A    between atoms: C_2  and  C_3
REMARK    3  A    between atoms: N_5  and  C_6
REMARK    4  A    between atoms: C_6  and  C_7
REMARK                            x       y       z     vdW  Elec       q    Type
REMARK                         _______ _______ _______ _____ _____    ______ ____
ROOT
ATOM      1  C   UNL     1       4.612   3.609  17.881  0.00  0.00    +0.000 A 
ATOM      2  C   UNL     1       4.230   3.288  16.566  0.00  0.00    +0.000 A 
ATOM      3  C   UNL     1       4.972   3.751  15.492  0.00  0.00    +0.000 A 
ATOM      4  C   UNL     1       6.095   4.541  15.726  0.00  0.00    +0.000 A 
ATOM      5 BR   UNL     1       7.109   5.041  14.191  0.00  0.00    +0.000 Br
ATOM      6  C   UNL     1       6.461   4.930  17.041  0.00  0.00    +0.000 A 
ATOM      7  C   UNL     1       7.566   5.760  17.347  0.00  0.00    +0.000 A 
ATOM      8  C   UNL     1       7.851   6.121  18.658  0.00  0.00    +0.000 A 
ATOM      9  C   UNL     1       7.032   5.632  19.645  0.00  0.00    +0.000 A 
ATOM     10  N   UNL     1       5.988   4.813  19.405  0.00  0.00    +0.000 NA
ATOM     11  C   UNL     1       5.694   4.464  18.134  0.00  0.00    +0.000 A 
ENDROOT
BRANCH   1  12
ATOM     12  C   UNL     1       3.866   2.949  19.026  0.00  0.00    +0.000 C 
BRANCH  12  15
ATOM     13  C   UNL     1       2.515   5.503  20.113  0.00  0.00    +0.000 C 
ATOM     14  C   UNL     1       2.162   4.681  18.850  0.00  0.00    +0.000 C 
ATOM     15  N   UNL     1       2.409   3.224  19.004  0.00  0.00    +0.000 NA
ATOM     16  C   UNL     1       1.718   2.785  20.239  0.00  0.00    +0.000 C 
ATOM     17  C   UNL     1       2.041   3.632  21.481  0.00  0.00    +0.000 C 
ATOM     18  O   UNL     1       1.775   5.024  21.252  0.00  0.00    +0.000 OA
BRANCH  13  19
ATOM     19  C   UNL     1       2.199   6.988  19.920  0.00  0.00    +0.000 C 
BRANCH  19  20
ATOM     20  O   UNL     1       1.783   7.582  21.145  0.00  0.00    +0.000 OA
ATOM     21  H   UNL     1       1.286   8.383  20.911  0.00  0.00    +0.000 HD
ENDBRANCH  19  20
ENDBRANCH  13  19
ENDBRANCH  12  15
ENDBRANCH   1  12
TORSDOF 4
ENDMDL
MODEL 6
REMARK VINA RESULT:      -6.4      3.345      5.809
REMARK  Name = 
REMARK  4 active torsions:
REMARK  status: ('A' for Active; 'I' for Inactive)
REMARK    1  A    between atoms: O_1  and  C_2
REMARK    2  A    between atoms: C_2  and  C_3
REMARK    3  A    between atoms: N_5  and  C_6
REMARK    4  A    between atoms: C_6  and  C_7
REMARK                            x       y       z     vdW  Elec       q    Type
REMARK                         _______ _______ _______ _____ _____    ______ ____
ROOT
ATOM      1  C   UNL     1       5.130   4.041  18.185  0.00  0.00    +0.000 A 
ATOM      2  C   UNL     1       5.499   4.807  19.304  0.00  0.00    +0.000 A 
ATOM      3  C   UNL     1       6.356   5.886  19.159  0.00  0.00    +0.000 A 
ATOM      4  C   UNL     1       6.852   6.201  17.896  0.00  0.00    +0.000 A 
ATOM      5 BR   UNL     1       7.937   7.764  17.782  0.00  0.00    +0.000 Br
ATOM      6  C   UNL     1       6.544   5.403  16.764  0.00  0.00    +0.000 A 
ATOM      7  C   UNL     1       7.042   5.643  15.461  0.00  0.00    +0.000 A 
ATOM      8  C   UNL     1       6.718   4.804  14.402  0.00  0.00    +0.000 A 
ATOM      9  C   UNL     1       5.885   3.744  14.662  0.00  0.00    +0.000 A 
ATOM     10  N   UNL     1       5.360   3.494  15.879  0.00  0.00    +0.000 NA
ATOM     11  C   UNL     1       5.677   4.296  16.919  0.00  0.00    +0.000 A 
ENDROOT
BRANCH   1  12
ATOM     12  C   UNL     1       4.067   2.973  18.365  0.00  0.00    +0.000 C 
BRANCH  12  15
ATOM     13  C   UNL     1       2.032   4.557  20.062  0.00  0.00    +0.000 C 
ATOM     14  C   UNL     1       2.353   4.694  18.553  0.00  0.00    +0.000 C 
ATOM     15  N   UNL     1       2.725   3.407  17.909  0.00  0.00    +0.000 NA
ATOM     16  C   UNL     1       1.659   2.428  18.227  0.00  0.00    +0.000 C 
ATOM     17  C   UNL     1       1.317   2.328  19.722  0.00  0.00    +0.000 C 
ATOM     18  O   UNL     1       0.968   3.608  20.269  0.00  0.00    +0.000 OA
BRANCH  13  19
ATOM     19  C   UNL     1       1.611   5.898  20.667  0.00  0.00    +0.000 C 
BRANCH  19  20
ATOM     20  O   UNL     1       2.490   6.939  20.254  0.00  0.00    +0.000 OA
ATOM     21  H   UNL     1       2.640   7.501  21.032  0.00  0.00    +0.000 HD
ENDBRANCH  19  20
ENDBRANCH  13  19
ENDBRANCH  12  15
ENDBRANCH   1  12
TORSDOF 4
ENDMDL
MODEL 7
REMARK VINA RESULT:      -6.3      4.062      6.160
REMARK  Name = 
REMARK  4 active torsions:
REMARK  status: ('A' for Active; 'I' for Inactive)
REMARK    1  A    between atoms: O_1  and  C_2
REMARK    2  A    between atoms: C_2  and  C_3
REMARK    3  A    between atoms: N_5  and  C_6
REMARK    4  A    between atoms: C_6  and  C_7
REMARK                            x       y       z     vdW  Elec       q    Type
REMARK                         _______ _______ _______ _____ _____    ______ ____
ROOT
ATOM      1  C   UNL     1       1.851   8.253  19.283  0.00  0.00    +0.000 A 
ATOM      2  C   UNL     1       2.173   8.895  18.074  0.00  0.00    +0.000 A 
ATOM      3  C   UNL     1       1.853  10.229  17.888  0.00  0.00    +0.000 A 
ATOM      4  C   UNL     1       1.205  10.927  18.905  0.00  0.00    +0.000 A 
ATOM      5 BR   UNL     1       0.903  12.783  18.593  0.00  0.00    +0.000 Br
ATOM      6  C   UNL     1       0.814  10.282  20.106  0.00  0.00    +0.000 A 
ATOM      7  C   UNL     1       0.120  10.919  21.163  0.00  0.00    +0.000 A 
ATOM      8  C   UNL     1      -0.253  10.218  22.302  0.00  0.00    +0.000 A 
ATOM      9  C   UNL     1       0.086   8.889  22.372  0.00  0.00    +0.000 A 
ATOM     10  N   UNL     1       0.773   8.247  21.406  0.00  0.00    +0.000 NA
ATOM     11  C   UNL     1       1.133   8.916  20.288  0.00  0.00    +0.000 A 
ENDROOT
BRANCH   1  12
ATOM     12  C   UNL     1       2.363   6.841  19.504  0.00  0.00    +0.000 C 
BRANCH  12  15
ATOM     13  C   UNL     1       2.468   3.795  19.012  0.00  0.00    +0.000 C 
ATOM     14  C   UNL     1       2.081   4.925  18.026  0.00  0.00    +0.000 C 
ATOM     15  N   UNL     1       2.827   6.190  18.255  0.00  0.00    +0.000 NA
ATOM     16  C   UNL     1       4.270   5.856  18.276  0.00  0.00    +0.000 C 
ATOM     17  C   UNL     1       4.641   4.706  19.226  0.00  0.00    +0.000 C 
ATOM     18  O   UNL     1       3.880   3.522  18.941  0.00  0.00    +0.000 OA
BRANCH  13  19
ATOM     19  C   UNL     1       1.708   2.502  18.705  0.00  0.00    +0.000 C 
BRANCH  19  20
ATOM     20  O   UNL     1       2.371   1.753  17.692  0.00  0.00    +0.000 OA
ATOM     21  H   UNL     1       2.732   2.397  17.061  0.00  0.00    +0.000 HD
ENDBRANCH  19  20
ENDBRANCH  13  19
ENDBRANCH  12  15
ENDBRANCH   1  12
TORSDOF 4
ENDMDL
MODEL 8
REMARK VINA RESULT:      -6.0      4.288      6.318
REMARK  Name = 
REMARK  4 active torsions:
REMARK  status: ('A' for Active; 'I' for Inactive)
REMARK    1  A    between atoms: O_1  and  C_2
REMARK    2  A    between atoms: C_2  and  C_3
REMARK    3  A    between atoms: N_5  and  C_6
REMARK    4  A    between atoms: C_6  and  C_7
REMARK                            x       y       z     vdW  Elec       q    Type
REMARK                         _______ _______ _______ _____ _____    ______ ____
ROOT
ATOM      1  C   UNL     1       1.862   8.278  19.410  0.00  0.00    +0.000 A 
ATOM      2  C   UNL     1       2.078   8.869  18.153  0.00  0.00    +0.000 A 
ATOM      3  C   UNL     1       1.625  10.153  17.899  0.00  0.00    +0.000 A 
ATOM      4  C   UNL     1       0.950  10.851  18.898  0.00  0.00    +0.000 A 
ATOM      5 BR   UNL     1       0.461  12.647  18.487  0.00  0.00    +0.000 Br
ATOM      6  C   UNL     1       0.665  10.251  20.151  0.00  0.00    +0.000 A 
ATOM      7  C   UNL     1      -0.049  10.888  21.195  0.00  0.00    +0.000 A 
ATOM      8  C   UNL     1      -0.313  10.229  22.389  0.00  0.00    +0.000 A 
ATOM      9  C   UNL     1       0.154   8.945  22.525  0.00  0.00    +0.000 A 
ATOM     10  N   UNL     1       0.865   8.309  21.572  0.00  0.00    +0.000 NA
ATOM     11  C   UNL     1       1.119   8.935  20.402  0.00  0.00    +0.000 A 
ENDROOT
BRANCH   1  12
ATOM     12  C   UNL     1       2.513   6.938  19.695  0.00  0.00    +0.000 C 
BRANCH  12  15
ATOM     13  C   UNL     1       2.630   3.862  19.937  0.00  0.00    +0.000 C 
ATOM     14  C   UNL     1       1.738   4.731  19.017  0.00  0.00    +0.000 C 
ATOM     15  N   UNL     1       2.396   5.984  18.566  0.00  0.00    +0.000 NA
ATOM     16  C   UNL     1       3.706   5.612  17.983  0.00  0.00    +0.000 C 
ATOM     17  C   UNL     1       4.570   4.716  18.885  0.00  0.00    +0.000 C 
ATOM     18  O   UNL     1       3.865   3.527  19.276  0.00  0.00    +0.000 OA
BRANCH  13  19
ATOM     19  C   UNL     1       1.925   2.564  20.335  0.00  0.00    +0.000 C 
BRANCH  19  20
ATOM     20  O   UNL     1       0.742   2.837  21.079  0.00  0.00    +0.000 OA
ATOM     21  H   UNL     1       0.393   1.978  21.371  0.00  0.00    +0.000 HD
ENDBRANCH  19  20
ENDBRANCH  13  19
ENDBRANCH  12  15
ENDBRANCH   1  12
TORSDOF 4
ENDMDL
MODEL 9
REMARK VINA RESULT:      -6.0      4.074      6.594
REMARK  Name = 
REMARK  4 active torsions:
REMARK  status: ('A' for Active; 'I' for Inactive)
REMARK    1  A    between atoms: O_1  and  C_2
REMARK    2  A    between atoms: C_2  and  C_3
REMARK    3  A    between atoms: N_5  and  C_6
REMARK    4  A    between atoms: C_6  and  C_7
REMARK                            x       y       z     vdW  Elec       q    Type
REMARK                         _______ _______ _______ _____ _____    ______ ____
ROOT
ATOM      1  C   UNL     1       2.607   6.493  18.286  0.00  0.00    +0.000 A 
ATOM      2  C   UNL     1       3.673   7.221  17.727  0.00  0.00    +0.000 A 
ATOM      3  C   UNL     1       4.644   6.573  16.982  0.00  0.00    +0.000 A 
ATOM      4  C   UNL     1       4.559   5.194  16.797  0.00  0.00    +0.000 A 
ATOM      5 BR   UNL     1       5.883   4.412  15.670  0.00  0.00    +0.000 Br
ATOM      6  C   UNL     1       3.528   4.432  17.406  0.00  0.00    +0.000 A 
ATOM      7  C   UNL     1       3.404   3.027  17.291  0.00  0.00    +0.000 A 
ATOM      8  C   UNL     1       2.382   2.342  17.935  0.00  0.00    +0.000 A 
ATOM      9  C   UNL     1       1.490   3.078  18.676  0.00  0.00    +0.000 A 
ATOM     10  N   UNL     1       1.549   4.420  18.788  0.00  0.00    +0.000 NA
ATOM     11  C   UNL     1       2.545   5.097  18.175  0.00  0.00    +0.000 A 
ENDROOT
BRANCH   1  12
ATOM     12  C   UNL     1       1.485   7.265  18.955  0.00  0.00    +0.000 C 
BRANCH  12  15
ATOM     13  C   UNL     1      -0.035   8.904  21.085  0.00  0.00    +0.000 C 
ATOM     14  C   UNL     1       1.491   8.696  20.927  0.00  0.00    +0.000 C 
ATOM     15  N   UNL     1       1.927   8.566  19.512  0.00  0.00    +0.000 NA
ATOM     16  C   UNL     1       1.383   9.729  18.772  0.00  0.00    +0.000 C 
ATOM     17  C   UNL     1      -0.125   9.953  18.967  0.00  0.00    +0.000 C 
ATOM     18  O   UNL     1      -0.466  10.069  20.357  0.00  0.00    +0.000 OA
BRANCH  13  19
ATOM     19  C   UNL     1      -0.426   9.078  22.554  0.00  0.00    +0.000 C 
BRANCH  19  20
ATOM     20  O   UNL     1       0.449   9.993  23.206  0.00  0.00    +0.000 OA
ATOM     21  H   UNL     1       0.434   9.767  24.151  0.00  0.00    +0.000 HD
ENDBRANCH  19  20
ENDBRANCH  13  19
ENDBRANCH  12  15
ENDBRANCH   1  12
TORSDOF 4
ENDMDL
