MODEL 1
REMARK VINA RESULT:      -8.9      0.000      0.000
REMARK  Name = 
REMARK  12 active torsions:
REMARK  status: ('A' for Active; 'I' for Inactive)
REMARK    1  A    between atoms: C_1  and  C_2
REMARK    2  A    between atoms: C_4  and  O_5
REMARK    3  A    between atoms: O_5  and  C_6
REMARK    4  A    between atoms: C_6  and  P_7
REMARK    5  A    between atoms: C_12  and  C_13
REMARK    6  A    between atoms: C_21  and  C_22
REMARK    7  A    between atoms: C_23  and  C_24
REMARK    8  A    between atoms: C_24  and  C_25
REMARK    9  A    between atoms: C_28  and  O_29
REMARK   10  A    between atoms: C_30  and  C_31
REMARK   11  A    between atoms: C_31  and  C_32
REMARK   12  A    between atoms: C_31  and  C_33
REMARK                            x       y       z     vdW  Elec       q    Type
REMARK                         _______ _______ _______ _____ _____    ______ ____
ROOT
ATOM      1  C   UNL     1       2.133   9.129  17.704  0.00  0.00    +0.000 C 
ATOM      2  C   UNL     1       1.664   8.655  19.056  0.00  0.00    +0.000 A 
ATOM      3  C   UNL     1       1.971   7.336  19.441  0.00  0.00    +0.000 A 
ATOM      4  C   UNL     1       1.624   6.857  20.703  0.00  0.00    +0.000 A 
ATOM      5  C   UNL     1       0.934   7.691  21.579  0.00  0.00    +0.000 A 
ATOM      6  C   UNL     1       0.601   9.010  21.225  0.00  0.00    +0.000 A 
ATOM      7  C   UNL     1      -0.099   9.866  22.248  0.00  0.00    +0.000 C 
ATOM      8  C   UNL     1       0.945   9.499  19.939  0.00  0.00    +0.000 A 
ENDROOT
BRANCH   4   9
ATOM      9  O   UNL     1       1.906   5.608  21.188  0.00  0.00    +0.000 OA
BRANCH   9  10
ATOM     10  C   UNL     1       1.432   4.515  20.397  0.00  0.00    +0.000 C 
BRANCH  10  11
ATOM     11  P   UNL     1       2.844   3.621  19.758  0.00  0.00    +0.000 P 
ATOM     12  O   UNL     1       3.425   2.579  20.671  0.00  0.00    +0.000 OA
ATOM     13  O   UNL     1       2.383   3.018  18.330  0.00  0.00    +0.000 OA
ATOM     14  C   UNL     1       3.428   2.488  17.533  0.00  0.00    +0.000 C 
ATOM     15  C   UNL     1       4.455   3.569  17.224  0.00  0.00    +0.000 C 
ATOM     16  C   UNL     1       5.002   4.195  18.513  0.00  0.00    +0.000 C 
ATOM     17  O   UNL     1       3.930   4.720  19.289  0.00  0.00    +0.000 OA
BRANCH  16  18
ATOM     18  C   UNL     1       5.995   5.288  18.198  0.00  0.00    +0.000 A 
ATOM     19  C   UNL     1       7.127   5.527  18.982  0.00  0.00    +0.000 A 
ATOM     20  C   UNL     1       7.984   6.574  18.659  0.00  0.00    +0.000 A 
ATOM     21  C   UNL     1       7.676   7.362  17.562  0.00  0.00    +0.000 A 
ATOM     22  N   UNL     1       6.591   7.172  16.785  0.00  0.00    +0.000 NA
ATOM     23  C   UNL     1       5.779   6.143  17.118  0.00  0.00    +0.000 A 
ENDBRANCH  16  18
ENDBRANCH  10  11
ENDBRANCH   9  10
ENDBRANCH   4   9
BRANCH   8  24
ATOM     24  C   UNL     1       0.552  10.909  19.514  0.00  0.00    +0.000 C 
BRANCH  24  25
ATOM     25  C   UNL     1      -0.897  11.160  19.144  0.00  0.00    +0.000 A 
ATOM     26  C   UNL     1      -1.531  10.566  18.049  0.00  0.00    +0.000 A 
ATOM     27  C   UNL     1      -2.843  10.905  17.722  0.00  0.00    +0.000 A 
ATOM     28  C   UNL     1      -3.540  11.831  18.497  0.00  0.00    +0.000 A 
ATOM     29  C   UNL     1      -2.959  12.423  19.626  0.00  0.00    +0.000 A 
ATOM     30  C   UNL     1      -1.634  12.064  19.937  0.00  0.00    +0.000 A 
BRANCH  29  31
ATOM     31  C   UNL     1      -3.756  13.386  20.496  0.00  0.00    +0.000 C 
ATOM     32  C   UNL     1      -4.334  12.651  21.709  0.00  0.00    +0.000 C 
ATOM     33  C   UNL     1      -2.974  14.624  20.956  0.00  0.00    +0.000 C 
ENDBRANCH  29  31
BRANCH  28  34
ATOM     34  O   UNL     1      -4.817  12.175  18.150  0.00  0.00    +0.000 OA
ATOM     35  H   UNL     1      -5.263  12.539  18.932  0.00  0.00    +0.000 HD
ENDBRANCH  28  34
ENDBRANCH  24  25
ENDBRANCH   8  24
TORSDOF 8
ENDMDL
MODEL 2
REMARK VINA RESULT:      -8.7      1.649      2.299
REMARK  Name = 
REMARK  12 active torsions:
REMARK  status: ('A' for Active; 'I' for Inactive)
REMARK    1  A    between atoms: C_1  and  C_2
REMARK    2  A    between atoms: C_4  and  O_5
REMARK    3  A    between atoms: O_5  and  C_6
REMARK    4  A    between atoms: C_6  and  P_7
REMARK    5  A    between atoms: C_12  and  C_13
REMARK    6  A    between atoms: C_21  and  C_22
REMARK    7  A    between atoms: C_23  and  C_24
REMARK    8  A    between atoms: C_24  and  C_25
REMARK    9  A    between atoms: C_28  and  O_29
REMARK   10  A    between atoms: C_30  and  C_31
REMARK   11  A    between atoms: C_31  and  C_32
REMARK   12  A    between atoms: C_31  and  C_33
REMARK                            x       y       z     vdW  Elec       q    Type
REMARK                         _______ _______ _______ _____ _____    ______ ____
ROOT
ATOM      1  C   UNL     1       1.042  11.881  18.833  0.00  0.00    +0.000 C 
ATOM      2  C   UNL     1       0.923  10.701  19.764  0.00  0.00    +0.000 A 
ATOM      3  C   UNL     1       1.460   9.469  19.347  0.00  0.00    +0.000 A 
ATOM      4  C   UNL     1       1.442   8.356  20.185  0.00  0.00    +0.000 A 
ATOM      5  C   UNL     1       0.853   8.464  21.443  0.00  0.00    +0.000 A 
ATOM      6  C   UNL     1       0.297   9.675  21.889  0.00  0.00    +0.000 A 
ATOM      7  C   UNL     1      -0.274   9.726  23.283  0.00  0.00    +0.000 C 
ATOM      8  C   UNL     1       0.307  10.808  21.036  0.00  0.00    +0.000 A 
ENDROOT
BRANCH   4   9
ATOM      9  O   UNL     1       1.967   7.126  19.891  0.00  0.00    +0.000 OA
BRANCH   9  10
ATOM     10  C   UNL     1       1.745   6.109  20.872  0.00  0.00    +0.000 C 
BRANCH  10  11
ATOM     11  P   UNL     1       2.253   4.537  20.185  0.00  0.00    +0.000 P 
ATOM     12  O   UNL     1       2.557   3.456  21.182  0.00  0.00    +0.000 OA
ATOM     13  O   UNL     1       1.100   4.114  19.133  0.00  0.00    +0.000 OA
ATOM     14  C   UNL     1       1.424   3.025  18.286  0.00  0.00    +0.000 C 
ATOM     15  C   UNL     1       2.656   3.355  17.453  0.00  0.00    +0.000 C 
ATOM     16  C   UNL     1       3.842   3.735  18.349  0.00  0.00    +0.000 C 
ATOM     17  O   UNL     1       3.486   4.831  19.184  0.00  0.00    +0.000 OA
BRANCH  16  18
ATOM     18  C   UNL     1       5.049   4.091  17.515  0.00  0.00    +0.000 A 
ATOM     19  C   UNL     1       6.252   4.526  18.078  0.00  0.00    +0.000 A 
ATOM     20  C   UNL     1       7.316   4.874  17.253  0.00  0.00    +0.000 A 
ATOM     21  C   UNL     1       7.142   4.788  15.882  0.00  0.00    +0.000 A 
ATOM     22  N   UNL     1       5.997   4.382  15.297  0.00  0.00    +0.000 NA
ATOM     23  C   UNL     1       4.981   4.043  16.124  0.00  0.00    +0.000 A 
ENDBRANCH  16  18
ENDBRANCH  10  11
ENDBRANCH   9  10
ENDBRANCH   4   9
BRANCH   8  24
ATOM     24  C   UNL     1      -0.333  12.118  21.478  0.00  0.00    +0.000 C 
BRANCH  24  25
ATOM     25  C   UNL     1      -1.821  12.297  21.245  0.00  0.00    +0.000 A 
ATOM     26  C   UNL     1      -2.422  12.211  19.985  0.00  0.00    +0.000 A 
ATOM     27  C   UNL     1      -3.785  12.465  19.834  0.00  0.00    +0.000 A 
ATOM     28  C   UNL     1      -4.562  12.792  20.944  0.00  0.00    +0.000 A 
ATOM     29  C   UNL     1      -4.011  12.851  22.231  0.00  0.00    +0.000 A 
ATOM     30  C   UNL     1      -2.635  12.590  22.358  0.00  0.00    +0.000 A 
BRANCH  29  31
ATOM     31  C   UNL     1      -4.888  13.150  23.439  0.00  0.00    +0.000 C 
ATOM     32  C   UNL     1      -4.378  12.388  24.666  0.00  0.00    +0.000 C 
ATOM     33  C   UNL     1      -5.029  14.642  23.770  0.00  0.00    +0.000 C 
ENDBRANCH  29  31
BRANCH  28  34
ATOM     34  O   UNL     1      -5.892  13.065  20.778  0.00  0.00    +0.000 OA
ATOM     35  H   UNL     1      -6.001  14.024  20.675  0.00  0.00    +0.000 HD
ENDBRANCH  28  34
ENDBRANCH  24  25
ENDBRANCH   8  24
TORSDOF 8
ENDMDL
MODEL 3
REMARK VINA RESULT:      -8.6      1.320      2.155
REMARK  Name = 
REMARK  12 active torsions:
REMARK  status: ('A' for Active; 'I' for Inactive)
REMARK    1  A    between atoms: C_1  and  C_2
REMARK    2  A    between atoms: C_4  and  O_5
REMARK    3  A    between atoms: O_5  and  C_6
REMARK    4  A    between atoms: C_6  and  P_7
REMARK    5  A    between atoms: C_12  and  C_13
REMARK    6  A    between atoms: C_21  and  C_22
REMARK    7  A    between atoms: C_23  and  C_24
REMARK    8  A    between atoms: C_24  and  C_25
REMARK    9  A    between atoms: C_28  and  O_29
REMARK   10  A    between atoms: C_30  and  C_31
REMARK   11  A    between atoms: C_31  and  C_32
REMARK   12  A    between atoms: C_31  and  C_33
REMARK                            x       y       z     vdW  Elec       q    Type
REMARK                         _______ _______ _______ _____ _____    ______ ____
ROOT
ATOM      1  C   UNL     1       2.831   8.426  17.573  0.00  0.00    +0.000 C 
ATOM      2  C   UNL     1       2.197   7.826  18.803  0.00  0.00    +0.000 A 
ATOM      3  C   UNL     1       2.158   6.423  18.913  0.00  0.00    +0.000 A 
ATOM      4  C   UNL     1       1.645   5.805  20.051  0.00  0.00    +0.000 A 
ATOM      5  C   UNL     1       1.136   6.595  21.080  0.00  0.00    +0.000 A 
ATOM      6  C   UNL     1       1.148   7.998  21.000  0.00  0.00    +0.000 A 
ATOM      7  C   UNL     1       0.626   8.782  22.176  0.00  0.00    +0.000 C 
ATOM      8  C   UNL     1       1.662   8.630  19.839  0.00  0.00    +0.000 A 
ENDROOT
BRANCH   4   9
ATOM      9  O   UNL     1       1.594   4.455  20.274  0.00  0.00    +0.000 OA
BRANCH   9  10
ATOM     10  C   UNL     1       2.694   3.907  21.004  0.00  0.00    +0.000 C 
BRANCH  10  11
ATOM     11  P   UNL     1       3.939   3.367  19.838  0.00  0.00    +0.000 P 
ATOM     12  O   UNL     1       4.783   2.203  20.275  0.00  0.00    +0.000 OA
ATOM     13  O   UNL     1       3.160   3.091  18.448  0.00  0.00    +0.000 OA
ATOM     14  C   UNL     1       3.992   2.899  17.317  0.00  0.00    +0.000 C 
ATOM     15  C   UNL     1       4.853   4.133  17.081  0.00  0.00    +0.000 C 
ATOM     16  C   UNL     1       5.679   4.475  18.328  0.00  0.00    +0.000 C 
ATOM     17  O   UNL     1       4.816   4.664  19.443  0.00  0.00    +0.000 OA
BRANCH  16  18
ATOM     18  C   UNL     1       6.505   5.718  18.097  0.00  0.00    +0.000 A 
ATOM     19  C   UNL     1       7.619   6.038  18.878  0.00  0.00    +0.000 A 
ATOM     20  C   UNL     1       8.316   7.217  18.638  0.00  0.00    +0.000 A 
ATOM     21  C   UNL     1       7.871   8.051  17.626  0.00  0.00    +0.000 A 
ATOM     22  N   UNL     1       6.797   7.785  16.855  0.00  0.00    +0.000 NA
ATOM     23  C   UNL     1       6.142   6.628  17.106  0.00  0.00    +0.000 A 
ENDBRANCH  16  18
ENDBRANCH  10  11
ENDBRANCH   9  10
ENDBRANCH   4   9
BRANCH   8  24
ATOM     24  C   UNL     1       1.641  10.148  19.708  0.00  0.00    +0.000 C 
BRANCH  24  25
ATOM     25  C   UNL     1       0.332  10.810  19.320  0.00  0.00    +0.000 A 
ATOM     26  C   UNL     1      -0.140  11.991  19.900  0.00  0.00    +0.000 A 
ATOM     27  C   UNL     1      -1.391  12.500  19.551  0.00  0.00    +0.000 A 
ATOM     28  C   UNL     1      -2.174  11.839  18.605  0.00  0.00    +0.000 A 
ATOM     29  C   UNL     1      -1.725  10.674  17.969  0.00  0.00    +0.000 A 
ATOM     30  C   UNL     1      -0.461  10.181  18.338  0.00  0.00    +0.000 A 
BRANCH  29  31
ATOM     31  C   UNL     1      -2.569  10.001  16.894  0.00  0.00    +0.000 C 
ATOM     32  C   UNL     1      -3.904   9.538  17.482  0.00  0.00    +0.000 C 
ATOM     33  C   UNL     1      -2.814  10.860  15.647  0.00  0.00    +0.000 C 
ENDBRANCH  29  31
BRANCH  28  34
ATOM     34  O   UNL     1      -3.410  12.334  18.291  0.00  0.00    +0.000 OA
ATOM     35  H   UNL     1      -3.395  12.639  17.369  0.00  0.00    +0.000 HD
ENDBRANCH  28  34
ENDBRANCH  24  25
ENDBRANCH   8  24
TORSDOF 8
ENDMDL
MODEL 4
REMARK VINA RESULT:      -8.6      0.829      2.540
REMARK  Name = 
REMARK  12 active torsions:
REMARK  status: ('A' for Active; 'I' for Inactive)
REMARK    1  A    between atoms: C_1  and  C_2
REMARK    2  A    between atoms: C_4  and  O_5
REMARK    3  A    between atoms: O_5  and  C_6
REMARK    4  A    between atoms: C_6  and  P_7
REMARK    5  A    between atoms: C_12  and  C_13
REMARK    6  A    between atoms: C_21  and  C_22
REMARK    7  A    between atoms: C_23  and  C_24
REMARK    8  A    between atoms: C_24  and  C_25
REMARK    9  A    between atoms: C_28  and  O_29
REMARK   10  A    between atoms: C_30  and  C_31
REMARK   11  A    between atoms: C_31  and  C_32
REMARK   12  A    between atoms: C_31  and  C_33
REMARK                            x       y       z     vdW  Elec       q    Type
REMARK                         _______ _______ _______ _____ _____    ______ ____
ROOT
ATOM      1  C   UNL     1      -0.395  10.232  22.554  0.00  0.00    +0.000 C 
ATOM      2  C   UNL     1       0.403   9.465  21.530  0.00  0.00    +0.000 A 
ATOM      3  C   UNL     1       0.851   8.174  21.868  0.00  0.00    +0.000 A 
ATOM      4  C   UNL     1       1.538   7.387  20.946  0.00  0.00    +0.000 A 
ATOM      5  C   UNL     1       1.809   7.905  19.682  0.00  0.00    +0.000 A 
ATOM      6  C   UNL     1       1.387   9.194  19.313  0.00  0.00    +0.000 A 
ATOM      7  C   UNL     1       1.672   9.662  17.909  0.00  0.00    +0.000 C 
ATOM      8  C   UNL     1       0.695  10.001  20.251  0.00  0.00    +0.000 A 
ENDROOT
BRANCH   4   9
ATOM      9  O   UNL     1       1.984   6.111  21.160  0.00  0.00    +0.000 OA
BRANCH   9  10
ATOM     10  C   UNL     1       1.288   5.084  20.448  0.00  0.00    +0.000 C 
BRANCH  10  11
ATOM     11  P   UNL     1       2.486   4.096  19.560  0.00  0.00    +0.000 P 
ATOM     12  O   UNL     1       2.904   2.818  20.229  0.00  0.00    +0.000 OA
ATOM     13  O   UNL     1       1.865   3.859  18.085  0.00  0.00    +0.000 OA
ATOM     14  C   UNL     1       2.763   3.315  17.133  0.00  0.00    +0.000 C 
ATOM     15  C   UNL     1       3.957   4.242  16.945  0.00  0.00    +0.000 C 
ATOM     16  C   UNL     1       4.660   4.513  18.281  0.00  0.00    +0.000 C 
ATOM     17  O   UNL     1       3.734   5.059  19.214  0.00  0.00    +0.000 OA
BRANCH  16  18
ATOM     18  C   UNL     1       5.822   5.458  18.092  0.00  0.00    +0.000 A 
ATOM     19  C   UNL     1       6.892   5.526  18.989  0.00  0.00    +0.000 A 
ATOM     20  C   UNL     1       7.915   6.445  18.777  0.00  0.00    +0.000 A 
ATOM     21  C   UNL     1       7.832   7.281  17.676  0.00  0.00    +0.000 A 
ATOM     22  N   UNL     1       6.814   7.254  16.791  0.00  0.00    +0.000 NA
ATOM     23  C   UNL     1       5.837   6.346  17.018  0.00  0.00    +0.000 A 
ENDBRANCH  16  18
ENDBRANCH  10  11
ENDBRANCH   9  10
ENDBRANCH   4   9
BRANCH   8  24
ATOM     24  C   UNL     1       0.269  11.419  19.891  0.00  0.00    +0.000 C 
BRANCH  24  25
ATOM     25  C   UNL     1      -1.190  11.659  19.554  0.00  0.00    +0.000 A 
ATOM     26  C   UNL     1      -2.032  12.483  20.306  0.00  0.00    +0.000 A 
ATOM     27  C   UNL     1      -3.384  12.595  19.984  0.00  0.00    +0.000 A 
ATOM     28  C   UNL     1      -3.903  11.894  18.894  0.00  0.00    +0.000 A 
ATOM     29  C   UNL     1      -3.088  11.088  18.089  0.00  0.00    +0.000 A 
ATOM     30  C   UNL     1      -1.728  10.992  18.434  0.00  0.00    +0.000 A 
BRANCH  29  31
ATOM     31  C   UNL     1      -3.660  10.380  16.868  0.00  0.00    +0.000 C 
ATOM     32  C   UNL     1      -4.113  11.404  15.824  0.00  0.00    +0.000 C 
ATOM     33  C   UNL     1      -2.714   9.358  16.224  0.00  0.00    +0.000 C 
ENDBRANCH  29  31
BRANCH  28  34
ATOM     34  O   UNL     1      -5.236  11.992  18.605  0.00  0.00    +0.000 OA
ATOM     35  H   UNL     1      -5.368  12.745  18.006  0.00  0.00    +0.000 HD
ENDBRANCH  28  34
ENDBRANCH  24  25
ENDBRANCH   8  24
TORSDOF 8
ENDMDL
MODEL 5
REMARK VINA RESULT:      -8.5      1.913      3.099
REMARK  Name = 
REMARK  12 active torsions:
REMARK  status: ('A' for Active; 'I' for Inactive)
REMARK    1  A    between atoms: C_1  and  C_2
REMARK    2  A    between atoms: C_4  and  O_5
REMARK    3  A    between atoms: O_5  and  C_6
REMARK    4  A    between atoms: C_6  and  P_7
REMARK    5  A    between atoms: C_12  and  C_13
REMARK    6  A    between atoms: C_21  and  C_22
REMARK    7  A    between atoms: C_23  and  C_24
REMARK    8  A    between atoms: C_24  and  C_25
REMARK    9  A    between atoms: C_28  and  O_29
REMARK   10  A    between atoms: C_30  and  C_31
REMARK   11  A    between atoms: C_31  and  C_32
REMARK   12  A    between atoms: C_31  and  C_33
REMARK                            x       y       z     vdW  Elec       q    Type
REMARK                         _______ _______ _______ _____ _____    ______ ____
ROOT
ATOM      1  C   UNL     1      -0.718  10.065  23.211  0.00  0.00    +0.000 C 
ATOM      2  C   UNL     1       0.006   9.847  21.907  0.00  0.00    +0.000 A 
ATOM      3  C   UNL     1       0.624   8.600  21.690  0.00  0.00    +0.000 A 
ATOM      4  C   UNL     1       1.253   8.310  20.482  0.00  0.00    +0.000 A 
ATOM      5  C   UNL     1       1.296   9.285  19.488  0.00  0.00    +0.000 A 
ATOM      6  C   UNL     1       0.700  10.545  19.673  0.00  0.00    +0.000 A 
ATOM      7  C   UNL     1       0.742  11.527  18.531  0.00  0.00    +0.000 C 
ATOM      8  C   UNL     1       0.065  10.846  20.904  0.00  0.00    +0.000 A 
ENDROOT
BRANCH   4   9
ATOM      9  O   UNL     1       1.851   7.122  20.157  0.00  0.00    +0.000 OA
BRANCH   9  10
ATOM     10  C   UNL     1       2.586   7.114  18.930  0.00  0.00    +0.000 C 
BRANCH  10  11
ATOM     11  P   UNL     1       3.567   5.620  18.866  0.00  0.00    +0.000 P 
ATOM     12  O   UNL     1       4.474   5.382  20.040  0.00  0.00    +0.000 OA
ATOM     13  O   UNL     1       2.523   4.408  18.624  0.00  0.00    +0.000 OA
ATOM     14  C   UNL     1       3.110   3.163  18.287  0.00  0.00    +0.000 C 
ATOM     15  C   UNL     1       3.914   3.292  17.000  0.00  0.00    +0.000 C 
ATOM     16  C   UNL     1       4.976   4.392  17.121  0.00  0.00    +0.000 C 
ATOM     17  O   UNL     1       4.356   5.628  17.457  0.00  0.00    +0.000 OA
BRANCH  16  18
ATOM     18  C   UNL     1       5.747   4.535  15.830  0.00  0.00    +0.000 A 
ATOM     19  C   UNL     1       5.364   3.894  14.649  0.00  0.00    +0.000 A 
ATOM     20  C   UNL     1       6.138   4.036  13.502  0.00  0.00    +0.000 A 
ATOM     21  C   UNL     1       7.285   4.810  13.573  0.00  0.00    +0.000 A 
ATOM     22  N   UNL     1       7.695   5.438  14.694  0.00  0.00    +0.000 NA
ATOM     23  C   UNL     1       6.919   5.288  15.792  0.00  0.00    +0.000 A 
ENDBRANCH  16  18
ENDBRANCH  10  11
ENDBRANCH   9  10
ENDBRANCH   4   9
BRANCH   8  24
ATOM     24  C   UNL     1      -0.546  12.222  21.147  0.00  0.00    +0.000 C 
BRANCH  24  25
ATOM     25  C   UNL     1      -2.050  12.364  21.013  0.00  0.00    +0.000 A 
ATOM     26  C   UNL     1      -2.732  12.261  19.797  0.00  0.00    +0.000 A 
ATOM     27  C   UNL     1      -4.107  12.483  19.737  0.00  0.00    +0.000 A 
ATOM     28  C   UNL     1      -4.816  12.794  20.897  0.00  0.00    +0.000 A 
ATOM     29  C   UNL     1      -4.181  12.869  22.143  0.00  0.00    +0.000 A 
ATOM     30  C   UNL     1      -2.794  12.641  22.178  0.00  0.00    +0.000 A 
BRANCH  29  31
ATOM     31  C   UNL     1      -4.983  13.150  23.408  0.00  0.00    +0.000 C 
ATOM     32  C   UNL     1      -4.327  12.470  24.613  0.00  0.00    +0.000 C 
ATOM     33  C   UNL     1      -5.204  14.640  23.702  0.00  0.00    +0.000 C 
ENDBRANCH  29  31
BRANCH  28  34
ATOM     34  O   UNL     1      -6.161  13.035  20.819  0.00  0.00    +0.000 OA
ATOM     35  H   UNL     1      -6.426  13.558  21.593  0.00  0.00    +0.000 HD
ENDBRANCH  28  34
ENDBRANCH  24  25
ENDBRANCH   8  24
TORSDOF 8
ENDMDL
MODEL 6
REMARK VINA RESULT:      -8.5      1.120      1.471
REMARK  Name = 
REMARK  12 active torsions:
REMARK  status: ('A' for Active; 'I' for Inactive)
REMARK    1  A    between atoms: C_1  and  C_2
REMARK    2  A    between atoms: C_4  and  O_5
REMARK    3  A    between atoms: O_5  and  C_6
REMARK    4  A    between atoms: C_6  and  P_7
REMARK    5  A    between atoms: C_12  and  C_13
REMARK    6  A    between atoms: C_21  and  C_22
REMARK    7  A    between atoms: C_23  and  C_24
REMARK    8  A    between atoms: C_24  and  C_25
REMARK    9  A    between atoms: C_28  and  O_29
REMARK   10  A    between atoms: C_30  and  C_31
REMARK   11  A    between atoms: C_31  and  C_32
REMARK   12  A    between atoms: C_31  and  C_33
REMARK                            x       y       z     vdW  Elec       q    Type
REMARK                         _______ _______ _______ _____ _____    ______ ____
ROOT
ATOM      1  C   UNL     1       1.826   9.844  17.839  0.00  0.00    +0.000 C 
ATOM      2  C   UNL     1       1.463   9.244  19.174  0.00  0.00    +0.000 A 
ATOM      3  C   UNL     1       1.862   7.920  19.437  0.00  0.00    +0.000 A 
ATOM      4  C   UNL     1       1.616   7.328  20.675  0.00  0.00    +0.000 A 
ATOM      5  C   UNL     1       0.937   8.053  21.651  0.00  0.00    +0.000 A 
ATOM      6  C   UNL     1       0.514   9.374  21.419  0.00  0.00    +0.000 A 
ATOM      7  C   UNL     1      -0.168  10.111  22.543  0.00  0.00    +0.000 C 
ATOM      8  C   UNL     1       0.756   9.977  20.159  0.00  0.00    +0.000 A 
ENDROOT
BRANCH   4   9
ATOM      9  O   UNL     1       1.992   6.064  21.045  0.00  0.00    +0.000 OA
BRANCH   9  10
ATOM     10  C   UNL     1       1.260   4.998  20.435  0.00  0.00    +0.000 C 
BRANCH  10  11
ATOM     11  P   UNL     1       2.409   3.700  19.994  0.00  0.00    +0.000 P 
ATOM     12  O   UNL     1       3.121   3.040  21.141  0.00  0.00    +0.000 OA
ATOM     13  O   UNL     1       1.576   2.652  19.087  0.00  0.00    +0.000 OA
ATOM     14  C   UNL     1       2.357   1.677  18.418  0.00  0.00    +0.000 C 
ATOM     15  C   UNL     1       3.351   2.351  17.481  0.00  0.00    +0.000 C 
ATOM     16  C   UNL     1       4.236   3.347  18.240  0.00  0.00    +0.000 C 
ATOM     17  O   UNL     1       3.423   4.313  18.897  0.00  0.00    +0.000 OA
BRANCH  16  18
ATOM     18  C   UNL     1       5.196   4.034  17.298  0.00  0.00    +0.000 A 
ATOM     19  C   UNL     1       4.890   4.278  15.956  0.00  0.00    +0.000 A 
ATOM     20  C   UNL     1       5.833   4.882  15.131  0.00  0.00    +0.000 A 
ATOM     21  C   UNL     1       7.063   5.216  15.671  0.00  0.00    +0.000 A 
ATOM     22  N   UNL     1       7.402   4.991  16.957  0.00  0.00    +0.000 NA
ATOM     23  C   UNL     1       6.464   4.408  17.738  0.00  0.00    +0.000 A 
ENDBRANCH  16  18
ENDBRANCH  10  11
ENDBRANCH   9  10
ENDBRANCH   4   9
BRANCH   8  24
ATOM     24  C   UNL     1       0.264  11.390  19.867  0.00  0.00    +0.000 C 
BRANCH  24  25
ATOM     25  C   UNL     1      -1.176  11.564  19.425  0.00  0.00    +0.000 A 
ATOM     26  C   UNL     1      -1.671  11.105  18.201  0.00  0.00    +0.000 A 
ATOM     27  C   UNL     1      -2.988  11.370  17.826  0.00  0.00    +0.000 A 
ATOM     28  C   UNL     1      -3.827  12.084  18.681  0.00  0.00    +0.000 A 
ATOM     29  C   UNL     1      -3.386  12.530  19.934  0.00  0.00    +0.000 A 
ATOM     30  C   UNL     1      -2.055  12.250  20.290  0.00  0.00    +0.000 A 
BRANCH  29  31
ATOM     31  C   UNL     1      -4.335  13.255  20.879  0.00  0.00    +0.000 C 
ATOM     32  C   UNL     1      -4.158  12.737  22.309  0.00  0.00    +0.000 C 
ATOM     33  C   UNL     1      -4.211  14.784  20.855  0.00  0.00    +0.000 C 
ENDBRANCH  29  31
BRANCH  28  34
ATOM     34  O   UNL     1      -5.108  12.360  18.290  0.00  0.00    +0.000 OA
ATOM     35  H   UNL     1      -5.623  12.615  19.074  0.00  0.00    +0.000 HD
ENDBRANCH  28  34
ENDBRANCH  24  25
ENDBRANCH   8  24
TORSDOF 8
ENDMDL
MODEL 7
REMARK VINA RESULT:      -8.5      3.484      9.527
REMARK  Name = 
REMARK  12 active torsions:
REMARK  status: ('A' for Active; 'I' for Inactive)
REMARK    1  A    between atoms: C_1  and  C_2
REMARK    2  A    between atoms: C_4  and  O_5
REMARK    3  A    between atoms: O_5  and  C_6
REMARK    4  A    between atoms: C_6  and  P_7
REMARK    5  A    between atoms: C_12  and  C_13
REMARK    6  A    between atoms: C_21  and  C_22
REMARK    7  A    between atoms: C_23  and  C_24
REMARK    8  A    between atoms: C_24  and  C_25
REMARK    9  A    between atoms: C_28  and  O_29
REMARK   10  A    between atoms: C_30  and  C_31
REMARK   11  A    between atoms: C_31  and  C_32
REMARK   12  A    between atoms: C_31  and  C_33
REMARK                            x       y       z     vdW  Elec       q    Type
REMARK                         _______ _______ _______ _____ _____    ______ ____
ROOT
ATOM      1  C   UNL     1       2.018   4.019  20.623  0.00  0.00    +0.000 C 
ATOM      2  C   UNL     1       2.016   5.465  20.199  0.00  0.00    +0.000 A 
ATOM      3  C   UNL     1       1.715   6.441  21.168  0.00  0.00    +0.000 A 
ATOM      4  C   UNL     1       1.759   7.799  20.859  0.00  0.00    +0.000 A 
ATOM      5  C   UNL     1       2.076   8.189  19.560  0.00  0.00    +0.000 A 
ATOM      6  C   UNL     1       2.370   7.242  18.563  0.00  0.00    +0.000 A 
ATOM      7  C   UNL     1       2.755   7.745  17.196  0.00  0.00    +0.000 C 
ATOM      8  C   UNL     1       2.319   5.859  18.872  0.00  0.00    +0.000 A 
ENDROOT
BRANCH   4   9
ATOM      9  O   UNL     1       1.521   8.826  21.733  0.00  0.00    +0.000 OA
BRANCH   9  10
ATOM     10  C   UNL     1       0.162   8.978  22.152  0.00  0.00    +0.000 C 
BRANCH  10  11
ATOM     11  P   UNL     1      -0.384  10.626  21.718  0.00  0.00    +0.000 P 
ATOM     12  O   UNL     1      -1.114  11.377  22.795  0.00  0.00    +0.000 OA
ATOM     13  O   UNL     1       0.928  11.407  21.187  0.00  0.00    +0.000 OA
ATOM     14  C   UNL     1       0.676  12.648  20.551  0.00  0.00    +0.000 C 
ATOM     15  C   UNL     1      -0.217  12.445  19.334  0.00  0.00    +0.000 C 
ATOM     16  C   UNL     1      -1.524  11.742  19.721  0.00  0.00    +0.000 C 
ATOM     17  O   UNL     1      -1.238  10.500  20.354  0.00  0.00    +0.000 OA
BRANCH  16  18
ATOM     18  C   UNL     1      -2.389  11.515  18.504  0.00  0.00    +0.000 A 
ATOM     19  C   UNL     1      -1.866  11.110  17.273  0.00  0.00    +0.000 A 
ATOM     20  C   UNL     1      -2.712  10.954  16.180  0.00  0.00    +0.000 A 
ATOM     21  C   UNL     1      -4.061  11.219  16.348  0.00  0.00    +0.000 A 
ATOM     22  N   UNL     1      -4.605  11.621  17.514  0.00  0.00    +0.000 NA
ATOM     23  C   UNL     1      -3.761  11.758  18.562  0.00  0.00    +0.000 A 
ENDBRANCH  16  18
ENDBRANCH  10  11
ENDBRANCH   9  10
ENDBRANCH   4   9
BRANCH   8  24
ATOM     24  C   UNL     1       2.586   4.813  17.797  0.00  0.00    +0.000 C 
BRANCH  24  25
ATOM     25  C   UNL     1       3.977   4.754  17.193  0.00  0.00    +0.000 A 
ATOM     26  C   UNL     1       4.261   4.161  15.960  0.00  0.00    +0.000 A 
ATOM     27  C   UNL     1       5.575   4.073  15.503  0.00  0.00    +0.000 A 
ATOM     28  C   UNL     1       6.618   4.592  16.271  0.00  0.00    +0.000 A 
ATOM     29  C   UNL     1       6.376   5.229  17.495  0.00  0.00    +0.000 A 
ATOM     30  C   UNL     1       5.042   5.307  17.934  0.00  0.00    +0.000 A 
BRANCH  29  31
ATOM     31  C   UNL     1       7.521   5.844  18.290  0.00  0.00    +0.000 C 
ATOM     32  C   UNL     1       7.665   7.330  17.950  0.00  0.00    +0.000 C 
ATOM     33  C   UNL     1       7.410   5.661  19.810  0.00  0.00    +0.000 C 
ENDBRANCH  29  31
BRANCH  28  34
ATOM     34  O   UNL     1       7.905   4.475  15.824  0.00  0.00    +0.000 OA
ATOM     35  H   UNL     1       8.015   5.044  15.045  0.00  0.00    +0.000 HD
ENDBRANCH  28  34
ENDBRANCH  24  25
ENDBRANCH   8  24
TORSDOF 8
ENDMDL
MODEL 8
REMARK VINA RESULT:      -8.4      4.000     10.420
REMARK  Name = 
REMARK  12 active torsions:
REMARK  status: ('A' for Active; 'I' for Inactive)
REMARK    1  A    between atoms: C_1  and  C_2
REMARK    2  A    between atoms: C_4  and  O_5
REMARK    3  A    between atoms: O_5  and  C_6
REMARK    4  A    between atoms: C_6  and  P_7
REMARK    5  A    between atoms: C_12  and  C_13
REMARK    6  A    between atoms: C_21  and  C_22
REMARK    7  A    between atoms: C_23  and  C_24
REMARK    8  A    between atoms: C_24  and  C_25
REMARK    9  A    between atoms: C_28  and  O_29
REMARK   10  A    between atoms: C_30  and  C_31
REMARK   11  A    between atoms: C_31  and  C_32
REMARK   12  A    between atoms: C_31  and  C_33
REMARK                            x       y       z     vdW  Elec       q    Type
REMARK                         _______ _______ _______ _____ _____    ______ ____
ROOT
ATOM      1  C   UNL     1       2.744   7.951  17.356  0.00  0.00    +0.000 C 
ATOM      2  C   UNL     1       2.290   7.365  18.668  0.00  0.00    +0.000 A 
ATOM      3  C   UNL     1       1.930   8.251  19.702  0.00  0.00    +0.000 A 
ATOM      4  C   UNL     1       1.440   7.776  20.917  0.00  0.00    +0.000 A 
ATOM      5  C   UNL     1       1.337   6.401  21.116  0.00  0.00    +0.000 A 
ATOM      6  C   UNL     1       1.697   5.487  20.110  0.00  0.00    +0.000 A 
ATOM      7  C   UNL     1       1.507   4.017  20.383  0.00  0.00    +0.000 C 
ATOM      8  C   UNL     1       2.204   5.966  18.876  0.00  0.00    +0.000 A 
ENDROOT
BRANCH   4   9
ATOM      9  O   UNL     1       1.030   8.549  21.970  0.00  0.00    +0.000 OA
BRANCH   9  10
ATOM     10  C   UNL     1      -0.248   9.174  21.818  0.00  0.00    +0.000 C 
BRANCH  10  11
ATOM     11  P   UNL     1       0.007  10.905  21.446  0.00  0.00    +0.000 P 
ATOM     12  O   UNL     1       1.439  11.343  21.324  0.00  0.00    +0.000 OA
ATOM     13  O   UNL     1      -0.858  11.208  20.113  0.00  0.00    +0.000 OA
ATOM     14  C   UNL     1      -1.004  12.579  19.787  0.00  0.00    +0.000 C 
ATOM     15  C   UNL     1      -1.701  13.319  20.921  0.00  0.00    +0.000 C 
ATOM     16  C   UNL     1      -0.944  13.139  22.243  0.00  0.00    +0.000 C 
ATOM     17  O   UNL     1      -0.817  11.754  22.544  0.00  0.00    +0.000 OA
BRANCH  16  18
ATOM     18  C   UNL     1      -1.659  13.849  23.369  0.00  0.00    +0.000 A 
ATOM     19  C   UNL     1      -1.057  14.857  24.127  0.00  0.00    +0.000 A 
ATOM     20  C   UNL     1      -1.757  15.446  25.175  0.00  0.00    +0.000 A 
ATOM     21  C   UNL     1      -3.040  15.000  25.442  0.00  0.00    +0.000 A 
ATOM     22  N   UNL     1      -3.655  14.025  24.742  0.00  0.00    +0.000 NA
ATOM     23  C   UNL     1      -2.954  13.475  23.725  0.00  0.00    +0.000 A 
ENDBRANCH  16  18
ENDBRANCH  10  11
ENDBRANCH   9  10
ENDBRANCH   4   9
BRANCH   8  24
ATOM     24  C   UNL     1       2.647   4.994  17.788  0.00  0.00    +0.000 C 
BRANCH  24  25
ATOM     25  C   UNL     1       4.133   4.747  17.620  0.00  0.00    +0.000 A 
ATOM     26  C   UNL     1       5.045   4.763  18.680  0.00  0.00    +0.000 A 
ATOM     27  C   UNL     1       6.410   4.606  18.440  0.00  0.00    +0.000 A 
ATOM     28  C   UNL     1       6.874   4.415  17.139  0.00  0.00    +0.000 A 
ATOM     29  C   UNL     1       5.993   4.352  16.051  0.00  0.00    +0.000 A 
ATOM     30  C   UNL     1       4.621   4.513  16.318  0.00  0.00    +0.000 A 
BRANCH  29  31
ATOM     31  C   UNL     1       6.512   4.082  14.645  0.00  0.00    +0.000 C 
ATOM     32  C   UNL     1       5.352   3.729  13.710  0.00  0.00    +0.000 C 
ATOM     33  C   UNL     1       7.343   5.223  14.044  0.00  0.00    +0.000 C 
ENDBRANCH  29  31
BRANCH  28  34
ATOM     34  O   UNL     1       8.217   4.289  16.915  0.00  0.00    +0.000 OA
ATOM     35  H   UNL     1       8.466   4.878  16.184  0.00  0.00    +0.000 HD
ENDBRANCH  28  34
ENDBRANCH  24  25
ENDBRANCH   8  24
TORSDOF 8
ENDMDL
MODEL 9
REMARK VINA RESULT:      -8.4      1.314      1.603
REMARK  Name = 
REMARK  12 active torsions:
REMARK  status: ('A' for Active; 'I' for Inactive)
REMARK    1  A    between atoms: C_1  and  C_2
REMARK    2  A    between atoms: C_4  and  O_5
REMARK    3  A    between atoms: O_5  and  C_6
REMARK    4  A    between atoms: C_6  and  P_7
REMARK    5  A    between atoms: C_12  and  C_13
REMARK    6  A    between atoms: C_21  and  C_22
REMARK    7  A    between atoms: C_23  and  C_24
REMARK    8  A    between atoms: C_24  and  C_25
REMARK    9  A    between atoms: C_28  and  O_29
REMARK   10  A    between atoms: C_30  and  C_31
REMARK   11  A    between atoms: C_31  and  C_32
REMARK   12  A    between atoms: C_31  and  C_33
REMARK                            x       y       z     vdW  Elec       q    Type
REMARK                         _______ _______ _______ _____ _____    ______ ____
ROOT
ATOM      1  C   UNL     1       2.998   7.670  17.296  0.00  0.00    +0.000 C 
ATOM      2  C   UNL     1       2.349   7.207  18.576  0.00  0.00    +0.000 A 
ATOM      3  C   UNL     1       2.303   5.824  18.835  0.00  0.00    +0.000 A 
ATOM      4  C   UNL     1       1.776   5.333  20.028  0.00  0.00    +0.000 A 
ATOM      5  C   UNL     1       1.260   6.229  20.961  0.00  0.00    +0.000 A 
ATOM      6  C   UNL     1       1.279   7.616  20.732  0.00  0.00    +0.000 A 
ATOM      7  C   UNL     1       0.751   8.524  21.812  0.00  0.00    +0.000 C 
ATOM      8  C   UNL     1       1.808   8.119  19.516  0.00  0.00    +0.000 A 
ENDROOT
BRANCH   4   9
ATOM      9  O   UNL     1       1.717   4.015  20.392  0.00  0.00    +0.000 OA
BRANCH   9  10
ATOM     10  C   UNL     1       2.861   3.513  21.088  0.00  0.00    +0.000 C 
BRANCH  10  11
ATOM     11  P   UNL     1       4.087   3.019  19.883  0.00  0.00    +0.000 P 
ATOM     12  O   UNL     1       4.976   1.876  20.285  0.00  0.00    +0.000 OA
ATOM     13  O   UNL     1       3.278   2.733  18.512  0.00  0.00    +0.000 OA
ATOM     14  C   UNL     1       4.084   2.574  17.357  0.00  0.00    +0.000 C 
ATOM     15  C   UNL     1       4.903   3.834  17.110  0.00  0.00    +0.000 C 
ATOM     16  C   UNL     1       5.753   4.189  18.336  0.00  0.00    +0.000 C 
ATOM     17  O   UNL     1       4.916   4.344  19.477  0.00  0.00    +0.000 OA
BRANCH  16  18
ATOM     18  C   UNL     1       6.537   5.457  18.094  0.00  0.00    +0.000 A 
ATOM     19  C   UNL     1       7.551   5.891  18.953  0.00  0.00    +0.000 A 
ATOM     20  C   UNL     1       8.211   7.088  18.694  0.00  0.00    +0.000 A 
ATOM     21  C   UNL     1       7.828   7.825  17.586  0.00  0.00    +0.000 A 
ATOM     22  N   UNL     1       6.850   7.448  16.738  0.00  0.00    +0.000 NA
ATOM     23  C   UNL     1       6.229   6.277  17.010  0.00  0.00    +0.000 A 
ENDBRANCH  16  18
ENDBRANCH  10  11
ENDBRANCH   9  10
ENDBRANCH   4   9
BRANCH   8  24
ATOM     24  C   UNL     1       1.795   9.615  19.223  0.00  0.00    +0.000 C 
BRANCH  24  25
ATOM     25  C   UNL     1       0.468  10.257  18.866  0.00  0.00    +0.000 A 
ATOM     26  C   UNL     1      -0.441   9.703  17.960  0.00  0.00    +0.000 A 
ATOM     27  C   UNL     1      -1.606  10.389  17.619  0.00  0.00    +0.000 A 
ATOM     28  C   UNL     1      -1.880  11.630  18.195  0.00  0.00    +0.000 A 
ATOM     29  C   UNL     1      -1.018  12.205  19.137  0.00  0.00    +0.000 A 
ATOM     30  C   UNL     1       0.151  11.494  19.465  0.00  0.00    +0.000 A 
BRANCH  29  31
ATOM     31  C   UNL     1      -1.364  13.532  19.800  0.00  0.00    +0.000 C 
ATOM     32  C   UNL     1      -1.340  13.385  21.324  0.00  0.00    +0.000 C 
ATOM     33  C   UNL     1      -0.477  14.708  19.372  0.00  0.00    +0.000 C 
ENDBRANCH  29  31
BRANCH  28  34
ATOM     34  O   UNL     1      -3.014  12.304  17.832  0.00  0.00    +0.000 OA
ATOM     35  H   UNL     1      -3.583  12.395  18.613  0.00  0.00    +0.000 HD
ENDBRANCH  28  34
ENDBRANCH  24  25
ENDBRANCH   8  24
TORSDOF 8
ENDMDL
