MODEL 1
REMARK VINA RESULT:      -8.3      0.000      0.000
REMARK  Name = 
REMARK  6 active torsions:
REMARK  status: ('A' for Active; 'I' for Inactive)
REMARK    1  A    between atoms: C_1  and  O_2
REMARK    2  A    between atoms: O_2  and  C_3
REMARK    3  A    between atoms: C_9  and  C_10
REMARK    4  A    between atoms: N_16  and  C_17
REMARK    5  A    between atoms: C_17  and  C_18
REMARK    6  A    between atoms: C_21  and  C_22
REMARK                            x       y       z     vdW  Elec       q    Type
REMARK                         _______ _______ _______ _____ _____    ______ ____
ROOT
ATOM      1  C   UNL     1       0.579  11.204  19.814  0.00  0.00    +0.000 A 
ATOM      2  C   UNL     1      -0.134  10.559  20.824  0.00  0.00    +0.000 A 
ATOM      3  C   UNL     1       0.066   9.210  21.086  0.00  0.00    +0.000 A 
ATOM      4  C   UNL     1       0.986   8.536  20.286  0.00  0.00    +0.000 A 
ATOM      5  N   UNL     1       1.416   7.248  20.394  0.00  0.00    +0.000 N 
ATOM      6  C   UNL     1       2.198   6.888  19.321  0.00  0.00    +0.000 A 
ATOM      7  C   UNL     1       2.713   5.629  18.982  0.00  0.00    +0.000 A 
ATOM      8  N   UNL     1       3.570   5.578  17.922  0.00  0.00    +0.000 N 
ATOM      9  C   UNL     1       3.862   6.701  17.216  0.00  0.00    +0.000 A 
ATOM     10  C   UNL     1       3.313   7.953  17.513  0.00  0.00    +0.000 A 
ATOM     11  C   UNL     1       2.439   8.052  18.604  0.00  0.00    +0.000 A 
ATOM     12  C   UNL     1       1.664   9.106  19.213  0.00  0.00    +0.000 A 
ATOM     13  C   UNL     1       1.451  10.482  18.975  0.00  0.00    +0.000 A 
ATOM     14  H   UNL     1       1.143   6.646  21.158  0.00  0.00    +0.000 HD
ENDROOT
BRANCH   7  15
ATOM     15  C   UNL     1       2.379   4.443  19.787  0.00  0.00    +0.000 A 
ATOM     16  C   UNL     1       1.536   3.436  19.297  0.00  0.00    +0.000 A 
ATOM     17  C   UNL     1       0.986   2.519  20.185  0.00  0.00    +0.000 A 
ATOM     18  C   UNL     1       1.355   2.566  21.520  0.00  0.00    +0.000 A 
ATOM     19  C   UNL     1       2.277   3.521  21.910  0.00  0.00    +0.000 A 
ATOM     20  N   UNL     1       2.778   4.466  21.077  0.00  0.00    +0.000 NA
ENDBRANCH   7  15
BRANCH   1  22
ATOM     21  C   UNL     1      -0.417  12.867  18.473  0.00  0.00    +0.000 C 
ATOM     22  O   UNL     1       0.467  12.547  19.551  0.00  0.00    +0.000 OA
ENDBRANCH   1  22
BRANCH   8  23
ATOM     23  C   UNL     1       4.149   4.285  17.438  0.00  0.00    +0.000 C 
BRANCH  23  24
ATOM     24  C   UNL     1       5.222   4.412  16.378  0.00  0.00    +0.000 A 
ATOM     25  C   UNL     1       6.518   4.881  16.627  0.00  0.00    +0.000 A 
ATOM     26  C   UNL     1       7.405   5.119  15.570  0.00  0.00    +0.000 A 
ATOM     27  C   UNL     1       7.019   4.887  14.247  0.00  0.00    +0.000 A 
ATOM     28  C   UNL     1       7.909   5.273  13.102  0.00  0.00    +0.000 C 
ATOM     29  C   UNL     1       5.779   4.294  14.003  0.00  0.00    +0.000 A 
ATOM     30  C   UNL     1       4.889   4.062  15.056  0.00  0.00    +0.000 A 
ENDBRANCH  23  24
ENDBRANCH   8  23
TORSDOF 4
ENDMDL
MODEL 2
REMARK VINA RESULT:      -8.1      2.858      7.918
REMARK  Name = 
REMARK  6 active torsions:
REMARK  status: ('A' for Active; 'I' for Inactive)
REMARK    1  A    between atoms: C_1  and  O_2
REMARK    2  A    between atoms: O_2  and  C_3
REMARK    3  A    between atoms: C_9  and  C_10
REMARK    4  A    between atoms: N_16  and  C_17
REMARK    5  A    between atoms: C_17  and  C_18
REMARK    6  A    between atoms: C_21  and  C_22
REMARK                            x       y       z     vdW  Elec       q    Type
REMARK                         _______ _______ _______ _____ _____    ______ ____
ROOT
ATOM      1  C   UNL     1       4.861   4.111  17.596  0.00  0.00    +0.000 A 
ATOM      2  C   UNL     1       4.713   3.631  18.896  0.00  0.00    +0.000 A 
ATOM      3  C   UNL     1       3.943   4.317  19.826  0.00  0.00    +0.000 A 
ATOM      4  C   UNL     1       3.350   5.506  19.406  0.00  0.00    +0.000 A 
ATOM      5  N   UNL     1       2.491   6.311  20.092  0.00  0.00    +0.000 N 
ATOM      6  C   UNL     1       2.252   7.485  19.415  0.00  0.00    +0.000 A 
ATOM      7  C   UNL     1       1.552   8.623  19.835  0.00  0.00    +0.000 A 
ATOM      8  N   UNL     1       1.358   9.605  18.908  0.00  0.00    +0.000 N 
ATOM      9  C   UNL     1       1.867   9.482  17.655  0.00  0.00    +0.000 A 
ATOM     10  C   UNL     1       2.613   8.373  17.241  0.00  0.00    +0.000 A 
ATOM     11  C   UNL     1       2.823   7.334  18.159  0.00  0.00    +0.000 A 
ATOM     12  C   UNL     1       3.529   6.076  18.148  0.00  0.00    +0.000 A 
ATOM     13  C   UNL     1       4.308   5.352  17.219  0.00  0.00    +0.000 A 
ATOM     14  H   UNL     1       2.125   6.065  21.001  0.00  0.00    +0.000 HD
ENDROOT
BRANCH   7  15
ATOM     15  C   UNL     1       1.005   8.704  21.199  0.00  0.00    +0.000 A 
ATOM     16  C   UNL     1      -0.372   8.606  21.445  0.00  0.00    +0.000 A 
ATOM     17  C   UNL     1      -0.873   9.013  22.677  0.00  0.00    +0.000 A 
ATOM     18  C   UNL     1       0.010   9.421  23.663  0.00  0.00    +0.000 A 
ATOM     19  C   UNL     1       1.364   9.388  23.383  0.00  0.00    +0.000 A 
ATOM     20  N   UNL     1       1.873   9.057  22.171  0.00  0.00    +0.000 NA
ENDBRANCH   7  15
BRANCH   1  22
ATOM     21  C   UNL     1       5.813   4.214  15.441  0.00  0.00    +0.000 C 
ATOM     22  O   UNL     1       5.560   3.445  16.620  0.00  0.00    +0.000 OA
ENDBRANCH   1  22
BRANCH   8  23
ATOM     23  C   UNL     1       0.664  10.886  19.251  0.00  0.00    +0.000 C 
BRANCH  23  24
ATOM     24  C   UNL     1      -0.804  10.945  18.884  0.00  0.00    +0.000 A 
ATOM     25  C   UNL     1      -1.392  10.169  17.877  0.00  0.00    +0.000 A 
ATOM     26  C   UNL     1      -2.718  10.392  17.489  0.00  0.00    +0.000 A 
ATOM     27  C   UNL     1      -3.485  11.387  18.102  0.00  0.00    +0.000 A 
ATOM     28  C   UNL     1      -4.857  11.729  17.597  0.00  0.00    +0.000 C 
ATOM     29  C   UNL     1      -2.949  12.071  19.194  0.00  0.00    +0.000 A 
ATOM     30  C   UNL     1      -1.622  11.856  19.579  0.00  0.00    +0.000 A 
ENDBRANCH  23  24
ENDBRANCH   8  23
TORSDOF 4
ENDMDL
MODEL 3
REMARK VINA RESULT:      -8.1      2.423      7.375
REMARK  Name = 
REMARK  6 active torsions:
REMARK  status: ('A' for Active; 'I' for Inactive)
REMARK    1  A    between atoms: C_1  and  O_2
REMARK    2  A    between atoms: O_2  and  C_3
REMARK    3  A    between atoms: C_9  and  C_10
REMARK    4  A    between atoms: N_16  and  C_17
REMARK    5  A    between atoms: C_17  and  C_18
REMARK    6  A    between atoms: C_21  and  C_22
REMARK                            x       y       z     vdW  Elec       q    Type
REMARK                         _______ _______ _______ _____ _____    ______ ____
ROOT
ATOM      1  C   UNL     1       6.568   5.042  14.541  0.00  0.00    +0.000 A 
ATOM      2  C   UNL     1       6.436   3.720  14.963  0.00  0.00    +0.000 A 
ATOM      3  C   UNL     1       5.552   3.382  15.980  0.00  0.00    +0.000 A 
ATOM      4  C   UNL     1       4.828   4.419  16.563  0.00  0.00    +0.000 A 
ATOM      5  N   UNL     1       3.849   4.340  17.508  0.00  0.00    +0.000 N 
ATOM      6  C   UNL     1       3.487   5.587  17.962  0.00  0.00    +0.000 A 
ATOM      7  C   UNL     1       2.632   5.932  19.018  0.00  0.00    +0.000 A 
ATOM      8  N   UNL     1       2.348   7.257  19.173  0.00  0.00    +0.000 N 
ATOM      9  C   UNL     1       2.913   8.184  18.358  0.00  0.00    +0.000 A 
ATOM     10  C   UNL     1       3.808   7.856  17.335  0.00  0.00    +0.000 A 
ATOM     11  C   UNL     1       4.116   6.504  17.131  0.00  0.00    +0.000 A 
ATOM     12  C   UNL     1       4.976   5.765  16.240  0.00  0.00    +0.000 A 
ATOM     13  C   UNL     1       5.874   6.080  15.196  0.00  0.00    +0.000 A 
ATOM     14  H   UNL     1       3.485   3.458  17.841  0.00  0.00    +0.000 HD
ENDROOT
BRANCH   7  15
ATOM     15  C   UNL     1       2.031   4.889  19.865  0.00  0.00    +0.000 A 
ATOM     16  C   UNL     1       2.479   4.657  21.173  0.00  0.00    +0.000 A 
ATOM     17  C   UNL     1       2.127   3.473  21.811  0.00  0.00    +0.000 A 
ATOM     18  C   UNL     1       1.270   2.590  21.174  0.00  0.00    +0.000 A 
ATOM     19  C   UNL     1       0.782   2.939  19.927  0.00  0.00    +0.000 A 
ATOM     20  N   UNL     1       1.160   4.055  19.257  0.00  0.00    +0.000 NA
ENDBRANCH   7  15
BRANCH   1  22
ATOM     21  C   UNL     1       7.346   4.553  12.370  0.00  0.00    +0.000 C 
ATOM     22  O   UNL     1       7.381   5.425  13.503  0.00  0.00    +0.000 OA
ENDBRANCH   1  22
BRANCH   8  23
ATOM     23  C   UNL     1       1.483   7.751  20.291  0.00  0.00    +0.000 C 
BRANCH  23  24
ATOM     24  C   UNL     1       0.896   9.133  20.094  0.00  0.00    +0.000 A 
ATOM     25  C   UNL     1       0.340   9.584  18.890  0.00  0.00    +0.000 A 
ATOM     26  C   UNL     1      -0.039  10.922  18.738  0.00  0.00    +0.000 A 
ATOM     27  C   UNL     1       0.123  11.835  19.785  0.00  0.00    +0.000 A 
ATOM     28  C   UNL     1      -0.145  13.298  19.585  0.00  0.00    +0.000 C 
ATOM     29  C   UNL     1       0.551  11.363  21.027  0.00  0.00    +0.000 A 
ATOM     30  C   UNL     1       0.937  10.028  21.180  0.00  0.00    +0.000 A 
ENDBRANCH  23  24
ENDBRANCH   8  23
TORSDOF 4
ENDMDL
MODEL 4
REMARK VINA RESULT:      -8.0      3.838     10.436
REMARK  Name = 
REMARK  6 active torsions:
REMARK  status: ('A' for Active; 'I' for Inactive)
REMARK    1  A    between atoms: C_1  and  O_2
REMARK    2  A    between atoms: O_2  and  C_3
REMARK    3  A    between atoms: C_9  and  C_10
REMARK    4  A    between atoms: N_16  and  C_17
REMARK    5  A    between atoms: C_17  and  C_18
REMARK    6  A    between atoms: C_21  and  C_22
REMARK                            x       y       z     vdW  Elec       q    Type
REMARK                         _______ _______ _______ _____ _____    ______ ____
ROOT
ATOM      1  C   UNL     1       2.114   6.185  19.719  0.00  0.00    +0.000 A 
ATOM      2  C   UNL     1       2.507   6.908  18.594  0.00  0.00    +0.000 A 
ATOM      3  C   UNL     1       2.281   8.276  18.511  0.00  0.00    +0.000 A 
ATOM      4  C   UNL     1       1.632   8.879  19.587  0.00  0.00    +0.000 A 
ATOM      5  N   UNL     1       1.371  10.201  19.783  0.00  0.00    +0.000 N 
ATOM      6  C   UNL     1       0.561  10.397  20.878  0.00  0.00    +0.000 A 
ATOM      7  C   UNL     1      -0.047  11.576  21.332  0.00  0.00    +0.000 A 
ATOM      8  N   UNL     1      -0.702  11.511  22.526  0.00  0.00    +0.000 N 
ATOM      9  C   UNL     1      -0.786  10.338  23.205  0.00  0.00    +0.000 A 
ATOM     10  C   UNL     1      -0.228   9.144  22.736  0.00  0.00    +0.000 A 
ATOM     11  C   UNL     1       0.467   9.170  21.519  0.00  0.00    +0.000 A 
ATOM     12  C   UNL     1       1.144   8.196  20.697  0.00  0.00    +0.000 A 
ATOM     13  C   UNL     1       1.397   6.808  20.761  0.00  0.00    +0.000 A 
ATOM     14  H   UNL     1       1.712  10.921  19.160  0.00  0.00    +0.000 HD
ENDROOT
BRANCH   7  15
ATOM     15  C   UNL     1       0.086  12.828  20.568  0.00  0.00    +0.000 A 
ATOM     16  C   UNL     1      -0.783  13.139  19.514  0.00  0.00    +0.000 A 
ATOM     17  C   UNL     1      -0.433  14.144  18.619  0.00  0.00    +0.000 A 
ATOM     18  C   UNL     1       0.724  14.874  18.842  0.00  0.00    +0.000 A 
ATOM     19  C   UNL     1       1.476  14.580  19.966  0.00  0.00    +0.000 A 
ATOM     20  N   UNL     1       1.190  13.564  20.817  0.00  0.00    +0.000 NA
ENDBRANCH   7  15
BRANCH   1  22
ATOM     21  C   UNL     1       1.469   4.178  20.774  0.00  0.00    +0.000 C 
ATOM     22  O   UNL     1       2.364   4.845  19.880  0.00  0.00    +0.000 OA
ENDBRANCH   1  22
BRANCH   8  23
ATOM     23  C   UNL     1      -1.427  12.692  23.092  0.00  0.00    +0.000 C 
BRANCH  23  24
ATOM     24  C   UNL     1      -2.936  12.643  22.976  0.00  0.00    +0.000 A 
ATOM     25  C   UNL     1      -3.631  12.697  21.761  0.00  0.00    +0.000 A 
ATOM     26  C   UNL     1      -5.026  12.805  21.743  0.00  0.00    +0.000 A 
ATOM     27  C   UNL     1      -5.755  12.854  22.935  0.00  0.00    +0.000 A 
ATOM     28  C   UNL     1      -7.234  13.114  22.928  0.00  0.00    +0.000 C 
ATOM     29  C   UNL     1      -5.081  12.666  24.143  0.00  0.00    +0.000 A 
ATOM     30  C   UNL     1      -3.687  12.565  24.164  0.00  0.00    +0.000 A 
ENDBRANCH  23  24
ENDBRANCH   8  23
TORSDOF 4
ENDMDL
MODEL 5
REMARK VINA RESULT:      -8.0      0.798      1.080
REMARK  Name = 
REMARK  6 active torsions:
REMARK  status: ('A' for Active; 'I' for Inactive)
REMARK    1  A    between atoms: C_1  and  O_2
REMARK    2  A    between atoms: O_2  and  C_3
REMARK    3  A    between atoms: C_9  and  C_10
REMARK    4  A    between atoms: N_16  and  C_17
REMARK    5  A    between atoms: C_17  and  C_18
REMARK    6  A    between atoms: C_21  and  C_22
REMARK                            x       y       z     vdW  Elec       q    Type
REMARK                         _______ _______ _______ _____ _____    ______ ____
ROOT
ATOM      1  C   UNL     1       0.523  11.711  19.295  0.00  0.00    +0.000 A 
ATOM      2  C   UNL     1      -0.334  11.164  20.249  0.00  0.00    +0.000 A 
ATOM      3  C   UNL     1      -0.229   9.829  20.618  0.00  0.00    +0.000 A 
ATOM      4  C   UNL     1       0.748   9.068  19.981  0.00  0.00    +0.000 A 
ATOM      5  N   UNL     1       1.103   7.775  20.221  0.00  0.00    +0.000 N 
ATOM      6  C   UNL     1       1.990   7.312  19.277  0.00  0.00    +0.000 A 
ATOM      7  C   UNL     1       2.484   6.015  19.084  0.00  0.00    +0.000 A 
ATOM      8  N   UNL     1       3.458   5.860  18.142  0.00  0.00    +0.000 N 
ATOM      9  C   UNL     1       3.884   6.919  17.408  0.00  0.00    +0.000 A 
ATOM     10  C   UNL     1       3.361   8.209  17.556  0.00  0.00    +0.000 A 
ATOM     11  C   UNL     1       2.368   8.415  18.523  0.00  0.00    +0.000 A 
ATOM     12  C   UNL     1       1.576   9.537  18.964  0.00  0.00    +0.000 A 
ATOM     13  C   UNL     1       1.456  10.901  18.616  0.00  0.00    +0.000 A 
ATOM     14  H   UNL     1       0.713   7.237  20.983  0.00  0.00    +0.000 HD
ENDROOT
BRANCH   7  15
ATOM     15  C   UNL     1       2.002   4.900  19.916  0.00  0.00    +0.000 A 
ATOM     16  C   UNL     1       2.531   4.654  21.191  0.00  0.00    +0.000 A 
ATOM     17  C   UNL     1       2.298   3.425  21.797  0.00  0.00    +0.000 A 
ATOM     18  C   UNL     1       1.475   2.506  21.167  0.00  0.00    +0.000 A 
ATOM     19  C   UNL     1       0.902   2.862  19.959  0.00  0.00    +0.000 A 
ATOM     20  N   UNL     1       1.164   4.028  19.318  0.00  0.00    +0.000 NA
ENDBRANCH   7  15
BRANCH   1  22
ATOM     21  C   UNL     1       0.265  13.940  20.016  0.00  0.00    +0.000 C 
ATOM     22  O   UNL     1       0.505  13.035  18.935  0.00  0.00    +0.000 OA
ENDBRANCH   1  22
BRANCH   8  23
ATOM     23  C   UNL     1       4.030   4.516  17.815  0.00  0.00    +0.000 C 
BRANCH  23  24
ATOM     24  C   UNL     1       5.078   4.506  16.722  0.00  0.00    +0.000 A 
ATOM     25  C   UNL     1       6.434   4.789  16.934  0.00  0.00    +0.000 A 
ATOM     26  C   UNL     1       7.312   4.915  15.851  0.00  0.00    +0.000 A 
ATOM     27  C   UNL     1       6.858   4.753  14.539  0.00  0.00    +0.000 A 
ATOM     28  C   UNL     1       7.758   5.026  13.369  0.00  0.00    +0.000 C 
ATOM     29  C   UNL     1       5.541   4.339  14.331  0.00  0.00    +0.000 A 
ATOM     30  C   UNL     1       4.660   4.220  15.409  0.00  0.00    +0.000 A 
ENDBRANCH  23  24
ENDBRANCH   8  23
TORSDOF 4
ENDMDL
MODEL 6
REMARK VINA RESULT:      -7.8      3.715     10.258
REMARK  Name = 
REMARK  6 active torsions:
REMARK  status: ('A' for Active; 'I' for Inactive)
REMARK    1  A    between atoms: C_1  and  O_2
REMARK    2  A    between atoms: O_2  and  C_3
REMARK    3  A    between atoms: C_9  and  C_10
REMARK    4  A    between atoms: N_16  and  C_17
REMARK    5  A    between atoms: C_17  and  C_18
REMARK    6  A    between atoms: C_21  and  C_22
REMARK                            x       y       z     vdW  Elec       q    Type
REMARK                         _______ _______ _______ _____ _____    ______ ____
ROOT
ATOM      1  C   UNL     1       2.230   5.808  19.682  0.00  0.00    +0.000 A 
ATOM      2  C   UNL     1       2.591   6.461  18.505  0.00  0.00    +0.000 A 
ATOM      3  C   UNL     1       2.381   7.826  18.353  0.00  0.00    +0.000 A 
ATOM      4  C   UNL     1       1.778   8.497  19.415  0.00  0.00    +0.000 A 
ATOM      5  N   UNL     1       1.542   9.832  19.546  0.00  0.00    +0.000 N 
ATOM      6  C   UNL     1       0.775  10.101  20.656  0.00  0.00    +0.000 A 
ATOM      7  C   UNL     1       0.200  11.312  21.064  0.00  0.00    +0.000 A 
ATOM      8  N   UNL     1      -0.413  11.324  22.283  0.00  0.00    +0.000 N 
ATOM      9  C   UNL     1      -0.488  10.192  23.029  0.00  0.00    +0.000 A 
ATOM     10  C   UNL     1       0.037   8.965  22.608  0.00  0.00    +0.000 A 
ATOM     11  C   UNL     1       0.689   8.912  21.368  0.00  0.00    +0.000 A 
ATOM     12  C   UNL     1       1.322   7.885  20.579  0.00  0.00    +0.000 A 
ATOM     13  C   UNL     1       1.559   6.498  20.712  0.00  0.00    +0.000 A 
ATOM     14  H   UNL     1       1.870  10.511  18.872  0.00  0.00    +0.000 HD
ENDROOT
BRANCH   7  15
ATOM     15  C   UNL     1       0.320  12.517  20.227  0.00  0.00    +0.000 A 
ATOM     16  C   UNL     1       1.026  13.647  20.665  0.00  0.00    +0.000 A 
ATOM     17  C   UNL     1       0.842  14.859  20.009  0.00  0.00    +0.000 A 
ATOM     18  C   UNL     1       0.035  14.902  18.884  0.00  0.00    +0.000 A 
ATOM     19  C   UNL     1      -0.543  13.723  18.448  0.00  0.00    +0.000 A 
ATOM     20  N   UNL     1      -0.431  12.543  19.106  0.00  0.00    +0.000 NA
ENDBRANCH   7  15
BRANCH   1  22
ATOM     21  C   UNL     1       2.161   4.036  21.235  0.00  0.00    +0.000 C 
ATOM     22  O   UNL     1       2.469   4.475  19.909  0.00  0.00    +0.000 OA
ENDBRANCH   1  22
BRANCH   8  23
ATOM     23  C   UNL     1      -1.102  12.545  22.806  0.00  0.00    +0.000 C 
BRANCH  23  24
ATOM     24  C   UNL     1      -2.602  12.582  22.602  0.00  0.00    +0.000 A 
ATOM     25  C   UNL     1      -3.220  12.677  21.349  0.00  0.00    +0.000 A 
ATOM     26  C   UNL     1      -4.603  12.864  21.249  0.00  0.00    +0.000 A 
ATOM     27  C   UNL     1      -5.397  12.952  22.397  0.00  0.00    +0.000 A 
ATOM     28  C   UNL     1      -6.856  13.295  22.304  0.00  0.00    +0.000 C 
ATOM     29  C   UNL     1      -4.807  12.724  23.641  0.00  0.00    +0.000 A 
ATOM     30  C   UNL     1      -3.425  12.544  23.744  0.00  0.00    +0.000 A 
ENDBRANCH  23  24
ENDBRANCH   8  23
TORSDOF 4
ENDMDL
MODEL 7
REMARK VINA RESULT:      -7.7      0.588      1.072
REMARK  Name = 
REMARK  6 active torsions:
REMARK  status: ('A' for Active; 'I' for Inactive)
REMARK    1  A    between atoms: C_1  and  O_2
REMARK    2  A    between atoms: O_2  and  C_3
REMARK    3  A    between atoms: C_9  and  C_10
REMARK    4  A    between atoms: N_16  and  C_17
REMARK    5  A    between atoms: C_17  and  C_18
REMARK    6  A    between atoms: C_21  and  C_22
REMARK                            x       y       z     vdW  Elec       q    Type
REMARK                         _______ _______ _______ _____ _____    ______ ____
ROOT
ATOM      1  C   UNL     1       0.570  11.265  19.326  0.00  0.00    +0.000 A 
ATOM      2  C   UNL     1      -0.216  10.601  20.266  0.00  0.00    +0.000 A 
ATOM      3  C   UNL     1       0.007   9.262  20.564  0.00  0.00    +0.000 A 
ATOM      4  C   UNL     1       1.029   8.619  19.868  0.00  0.00    +0.000 A 
ATOM      5  N   UNL     1       1.495   7.350  20.034  0.00  0.00    +0.000 N 
ATOM      6  C   UNL     1       2.395   7.012  19.050  0.00  0.00    +0.000 A 
ATOM      7  C   UNL     1       2.989   5.771  18.779  0.00  0.00    +0.000 A 
ATOM      8  N   UNL     1       3.950   5.746  17.811  0.00  0.00    +0.000 N 
ATOM      9  C   UNL     1       4.269   6.873  17.125  0.00  0.00    +0.000 A 
ATOM     10  C   UNL     1       3.645   8.105  17.351  0.00  0.00    +0.000 A 
ATOM     11  C   UNL     1       2.662   8.179  18.347  0.00  0.00    +0.000 A 
ATOM     12  C   UNL     1       1.790   9.206  18.862  0.00  0.00    +0.000 A 
ATOM     13  C   UNL     1       1.550  10.571  18.587  0.00  0.00    +0.000 A 
ATOM     14  H   UNL     1       1.169   6.744  20.775  0.00  0.00    +0.000 HD
ENDROOT
BRANCH   7  15
ATOM     15  C   UNL     1       2.621   4.579  19.561  0.00  0.00    +0.000 A 
ATOM     16  C   UNL     1       1.910   3.516  18.988  0.00  0.00    +0.000 A 
ATOM     17  C   UNL     1       1.301   2.580  19.818  0.00  0.00    +0.000 A 
ATOM     18  C   UNL     1       1.487   2.670  21.188  0.00  0.00    +0.000 A 
ATOM     19  C   UNL     1       2.292   3.686  21.673  0.00  0.00    +0.000 A 
ATOM     20  N   UNL     1       2.843   4.647  20.891  0.00  0.00    +0.000 NA
ENDBRANCH   7  15
BRANCH   1  22
ATOM     21  C   UNL     1      -0.895  13.107  19.190  0.00  0.00    +0.000 C 
ATOM     22  O   UNL     1       0.433  12.600  19.036  0.00  0.00    +0.000 OA
ENDBRANCH   1  22
BRANCH   8  23
ATOM     23  C   UNL     1       4.623   4.473  17.404  0.00  0.00    +0.000 C 
BRANCH  23  24
ATOM     24  C   UNL     1       5.220   4.472  16.013  0.00  0.00    +0.000 A 
ATOM     25  C   UNL     1       4.523   4.084  14.861  0.00  0.00    +0.000 A 
ATOM     26  C   UNL     1       5.188   3.959  13.635  0.00  0.00    +0.000 A 
ATOM     27  C   UNL     1       6.556   4.225  13.533  0.00  0.00    +0.000 A 
ATOM     28  C   UNL     1       7.304   3.956  12.259  0.00  0.00    +0.000 C 
ATOM     29  C   UNL     1       7.225   4.739  14.645  0.00  0.00    +0.000 A 
ATOM     30  C   UNL     1       6.567   4.859  15.872  0.00  0.00    +0.000 A 
ENDBRANCH  23  24
ENDBRANCH   8  23
TORSDOF 4
ENDMDL
MODEL 8
REMARK VINA RESULT:      -7.7      1.674      2.664
REMARK  Name = 
REMARK  6 active torsions:
REMARK  status: ('A' for Active; 'I' for Inactive)
REMARK    1  A    between atoms: C_1  and  O_2
REMARK    2  A    between atoms: O_2  and  C_3
REMARK    3  A    between atoms: C_9  and  C_10
REMARK    4  A    between atoms: N_16  and  C_17
REMARK    5  A    between atoms: C_17  and  C_18
REMARK    6  A    between atoms: C_21  and  C_22
REMARK                            x       y       z     vdW  Elec       q    Type
REMARK                         _______ _______ _______ _____ _____    ______ ____
ROOT
ATOM      1  C   UNL     1      -0.410  11.764  22.002  0.00  0.00    +0.000 A 
ATOM      2  C   UNL     1      -0.861  10.919  23.015  0.00  0.00    +0.000 A 
ATOM      3  C   UNL     1      -0.565   9.561  22.995  0.00  0.00    +0.000 A 
ATOM      4  C   UNL     1       0.178   9.089  21.915  0.00  0.00    +0.000 A 
ATOM      5  N   UNL     1       0.663   7.833  21.707  0.00  0.00    +0.000 N 
ATOM      6  C   UNL     1       1.201   7.704  20.448  0.00  0.00    +0.000 A 
ATOM      7  C   UNL     1       1.669   6.554  19.797  0.00  0.00    +0.000 A 
ATOM      8  N   UNL     1       2.272   6.732  18.587  0.00  0.00    +0.000 N 
ATOM      9  C   UNL     1       2.365   7.970  18.037  0.00  0.00    +0.000 A 
ATOM     10  C   UNL     1       1.854   9.118  18.653  0.00  0.00    +0.000 A 
ATOM     11  C   UNL     1       1.239   8.981  19.906  0.00  0.00    +0.000 A 
ATOM     12  C   UNL     1       0.584   9.868  20.835  0.00  0.00    +0.000 A 
ATOM     13  C   UNL     1       0.279  11.247  20.886  0.00  0.00    +0.000 A 
ATOM     14  H   UNL     1       0.586   7.100  22.398  0.00  0.00    +0.000 HD
ENDROOT
BRANCH   7  15
ATOM     15  C   UNL     1       1.560   5.234  20.441  0.00  0.00    +0.000 A 
ATOM     16  C   UNL     1       2.506   4.794  21.377  0.00  0.00    +0.000 A 
ATOM     17  C   UNL     1       2.559   3.444  21.706  0.00  0.00    +0.000 A 
ATOM     18  C   UNL     1       1.618   2.581  21.169  0.00  0.00    +0.000 A 
ATOM     19  C   UNL     1       0.647   3.108  20.336  0.00  0.00    +0.000 A 
ATOM     20  N   UNL     1       0.613   4.407  19.950  0.00  0.00    +0.000 NA
ENDBRANCH   7  15
BRANCH   1  22
ATOM     21  C   UNL     1      -1.238  13.625  23.190  0.00  0.00    +0.000 C 
ATOM     22  O   UNL     1      -0.622  13.120  22.002  0.00  0.00    +0.000 OA
ENDBRANCH   1  22
BRANCH   8  23
ATOM     23  C   UNL     1       2.772   5.576  17.778  0.00  0.00    +0.000 C 
BRANCH  23  24
ATOM     24  C   UNL     1       4.276   5.410  17.746  0.00  0.00    +0.000 A 
ATOM     25  C   UNL     1       5.008   5.114  16.588  0.00  0.00    +0.000 A 
ATOM     26  C   UNL     1       6.374   4.820  16.665  0.00  0.00    +0.000 A 
ATOM     27  C   UNL     1       7.038   4.821  17.896  0.00  0.00    +0.000 A 
ATOM     28  C   UNL     1       8.465   4.368  18.006  0.00  0.00    +0.000 C 
ATOM     29  C   UNL     1       6.346   5.245  19.031  0.00  0.00    +0.000 A 
ATOM     30  C   UNL     1       4.980   5.532  18.959  0.00  0.00    +0.000 A 
ENDBRANCH  23  24
ENDBRANCH   8  23
TORSDOF 4
ENDMDL
MODEL 9
REMARK VINA RESULT:      -7.6      1.523      2.304
REMARK  Name = 
REMARK  6 active torsions:
REMARK  status: ('A' for Active; 'I' for Inactive)
REMARK    1  A    between atoms: C_1  and  O_2
REMARK    2  A    between atoms: O_2  and  C_3
REMARK    3  A    between atoms: C_9  and  C_10
REMARK    4  A    between atoms: N_16  and  C_17
REMARK    5  A    between atoms: C_17  and  C_18
REMARK    6  A    between atoms: C_21  and  C_22
REMARK                            x       y       z     vdW  Elec       q    Type
REMARK                         _______ _______ _______ _____ _____    ______ ____
ROOT
ATOM      1  C   UNL     1      -0.359  11.389  21.948  0.00  0.00    +0.000 A 
ATOM      2  C   UNL     1      -0.790  10.454  22.888  0.00  0.00    +0.000 A 
ATOM      3  C   UNL     1      -0.432   9.116  22.777  0.00  0.00    +0.000 A 
ATOM      4  C   UNL     1       0.350   8.756  21.682  0.00  0.00    +0.000 A 
ATOM      5  N   UNL     1       0.894   7.541  21.396  0.00  0.00    +0.000 N 
ATOM      6  C   UNL     1       1.460   7.526  20.142  0.00  0.00    +0.000 A 
ATOM      7  C   UNL     1       1.991   6.447  19.421  0.00  0.00    +0.000 A 
ATOM      8  N   UNL     1       2.607   6.739  18.239  0.00  0.00    +0.000 N 
ATOM      9  C   UNL     1       2.654   8.016  17.782  0.00  0.00    +0.000 A 
ATOM     10  C   UNL     1       2.081   9.093  18.467  0.00  0.00    +0.000 A 
ATOM     11  C   UNL     1       1.451   8.840  19.693  0.00  0.00    +0.000 A 
ATOM     12  C   UNL     1       0.740   9.628  20.670  0.00  0.00    +0.000 A 
ATOM     13  C   UNL     1       0.372  10.985  20.813  0.00  0.00    +0.000 A 
ATOM     14  H   UNL     1       0.837   6.756  22.031  0.00  0.00    +0.000 HD
ENDROOT
BRANCH   7  15
ATOM     15  C   UNL     1       1.930   5.081  19.966  0.00  0.00    +0.000 A 
ATOM     16  C   UNL     1       1.132   4.091  19.377  0.00  0.00    +0.000 A 
ATOM     17  C   UNL     1       0.843   2.935  20.094  0.00  0.00    +0.000 A 
ATOM     18  C   UNL     1       1.424   2.750  21.338  0.00  0.00    +0.000 A 
ATOM     19  C   UNL     1       2.287   3.723  21.808  0.00  0.00    +0.000 A 
ATOM     20  N   UNL     1       2.534   4.887  21.157  0.00  0.00    +0.000 NA
ENDBRANCH   7  15
BRANCH   1  22
ATOM     21  C   UNL     1       0.379  13.580  21.487  0.00  0.00    +0.000 C 
ATOM     22  O   UNL     1      -0.631  12.732  22.039  0.00  0.00    +0.000 OA
ENDBRANCH   1  22
BRANCH   8  23
ATOM     23  C   UNL     1       3.172   5.667  17.361  0.00  0.00    +0.000 C 
BRANCH  23  24
ATOM     24  C   UNL     1       4.664   5.441  17.492  0.00  0.00    +0.000 A 
ATOM     25  C   UNL     1       5.476   4.953  16.460  0.00  0.00    +0.000 A 
ATOM     26  C   UNL     1       6.814   4.622  16.703  0.00  0.00    +0.000 A 
ATOM     27  C   UNL     1       7.369   4.778  17.977  0.00  0.00    +0.000 A 
ATOM     28  C   UNL     1       8.757   4.294  18.281  0.00  0.00    +0.000 C 
ATOM     29  C   UNL     1       6.605   5.388  18.972  0.00  0.00    +0.000 A 
ATOM     30  C   UNL     1       5.266   5.713  18.735  0.00  0.00    +0.000 A 
ENDBRANCH  23  24
ENDBRANCH   8  23
TORSDOF 4
ENDMDL
