MODEL 1
REMARK VINA RESULT:      -7.1      0.000      0.000
REMARK  Name = 
REMARK  6 active torsions:
REMARK  status: ('A' for Active; 'I' for Inactive)
REMARK    1  A    between atoms: C_1  and  C_2
REMARK    2  A    between atoms: C_2  and  C_3
REMARK    3  A    between atoms: C_8  and  C_9
REMARK    4  A    between atoms: C_13  and  O_14
REMARK    5  A    between atoms: C_15  and  N_16
REMARK    6  A    between atoms: C_17  and  C_19
REMARK                            x       y       z     vdW  Elec       q    Type
REMARK                         _______ _______ _______ _____ _____    ______ ____
ROOT
ATOM      1  C   UNL     1       4.179   2.108  20.179  0.00  0.00    +0.000 C 
ATOM      2  C   UNL     1       3.210   3.135  19.560  0.00  0.00    +0.000 C 
ATOM      3  C   UNL     1       1.799   2.514  19.708  0.00  0.00    +0.000 C 
ATOM      4  O   UNL     1       3.260   4.343  20.356  0.00  0.00    +0.000 OA
ATOM      5  C   UNL     1       2.701   5.460  19.780  0.00  0.00    +0.000 A 
ATOM      6  C   UNL     1       2.536   6.559  20.620  0.00  0.00    +0.000 A 
ATOM      7  C   UNL     1       1.977   7.749  20.123  0.00  0.00    +0.000 A 
ATOM      8  C   UNL     1       1.580   7.836  18.789  0.00  0.00    +0.000 A 
ATOM      9  C   UNL     1       1.755   6.732  17.942  0.00  0.00    +0.000 A 
ATOM     10  C   UNL     1       2.347   5.553  18.426  0.00  0.00    +0.000 A 
ATOM     11  C   UNL     1       2.640   4.424  17.468  0.00  0.00    +0.000 C 
ATOM     12  C   UNL     1       3.659   3.458  18.105  0.00  0.00    +0.000 C 
ENDROOT
BRANCH  12  13
ATOM     13  N   UNL     1       5.043   4.037  18.079  0.00  0.00    +0.000 N 
ATOM     14  C   UNL     1       5.655   4.385  16.903  0.00  0.00    +0.000 C 
ATOM     15  O   UNL     1       5.084   4.234  15.822  0.00  0.00    +0.000 OA
ATOM     16  H   UNL     1       5.426   4.370  18.956  0.00  0.00    +0.000 HD
BRANCH  14  17
ATOM     17  C   UNL     1       7.111   4.891  16.946  0.00  0.00    +0.000 C 
ATOM     18  C   UNL     1       7.380   6.299  16.396  0.00  0.00    +0.000 C 
ATOM     19  C   UNL     1       7.460   7.426  17.425  0.00  0.00    +0.000 C 
ATOM     20  C   UNL     1       8.266   7.044  18.659  0.00  0.00    +0.000 C 
ATOM     21  C   UNL     1       7.713   5.771  19.280  0.00  0.00    +0.000 C 
ATOM     22  C   UNL     1       7.784   4.610  18.295  0.00  0.00    +0.000 C 
ENDBRANCH  14  17
ENDBRANCH  12  13
BRANCH   8  23
ATOM     23  C   UNL     1       1.018   9.062  18.277  0.00  0.00    +0.000 C 
ATOM     24  N   UNL     1       0.565  10.050  17.873  0.00  0.00    +0.000 NA
ENDBRANCH   8  23
BRANCH  11  25
ATOM     25  O   UNL     1       1.441   3.739  17.098  0.00  0.00    +0.000 OA
ATOM     26  H   UNL     1       1.194   3.121  17.808  0.00  0.00    +0.000 HD
ENDBRANCH  11  25
TORSDOF 4
ENDMDL
MODEL 2
REMARK VINA RESULT:      -6.8      2.568      5.979
REMARK  Name = 
REMARK  6 active torsions:
REMARK  status: ('A' for Active; 'I' for Inactive)
REMARK    1  A    between atoms: C_1  and  C_2
REMARK    2  A    between atoms: C_2  and  C_3
REMARK    3  A    between atoms: C_8  and  C_9
REMARK    4  A    between atoms: C_13  and  O_14
REMARK    5  A    between atoms: C_15  and  N_16
REMARK    6  A    between atoms: C_17  and  C_19
REMARK                            x       y       z     vdW  Elec       q    Type
REMARK                         _______ _______ _______ _____ _____    ______ ____
ROOT
ATOM      1  C   UNL     1       4.457   3.678  16.144  0.00  0.00    +0.000 C 
ATOM      2  C   UNL     1       5.730   4.442  16.556  0.00  0.00    +0.000 C 
ATOM      3  C   UNL     1       6.785   4.102  15.475  0.00  0.00    +0.000 C 
ATOM      4  O   UNL     1       5.450   5.861  16.487  0.00  0.00    +0.000 OA
ATOM      5  C   UNL     1       6.363   6.680  17.111  0.00  0.00    +0.000 A 
ATOM      6  C   UNL     1       6.232   8.043  16.854  0.00  0.00    +0.000 A 
ATOM      7  C   UNL     1       7.115   8.960  17.448  0.00  0.00    +0.000 A 
ATOM      8  C   UNL     1       8.129   8.514  18.294  0.00  0.00    +0.000 A 
ATOM      9  C   UNL     1       8.255   7.142  18.559  0.00  0.00    +0.000 A 
ATOM     10  C   UNL     1       7.352   6.225  17.995  0.00  0.00    +0.000 A 
ATOM     11  C   UNL     1       7.428   4.771  18.393  0.00  0.00    +0.000 C 
ATOM     12  C   UNL     1       6.110   4.064  18.018  0.00  0.00    +0.000 C 
ENDROOT
BRANCH  12  13
ATOM     13  N   UNL     1       5.012   4.421  18.975  0.00  0.00    +0.000 N 
ATOM     14  C   UNL     1       4.552   3.528  19.907  0.00  0.00    +0.000 C 
ATOM     15  O   UNL     1       5.028   2.395  19.989  0.00  0.00    +0.000 OA
ATOM     16  H   UNL     1       4.773   5.401  19.066  0.00  0.00    +0.000 HD
BRANCH  14  17
ATOM     17  C   UNL     1       3.360   3.934  20.798  0.00  0.00    +0.000 C 
ATOM     18  C   UNL     1       2.493   5.107  20.317  0.00  0.00    +0.000 C 
ATOM     19  C   UNL     1       1.205   4.741  19.580  0.00  0.00    +0.000 C 
ATOM     20  C   UNL     1       0.446   3.601  20.246  0.00  0.00    +0.000 C 
ATOM     21  C   UNL     1       1.349   2.388  20.409  0.00  0.00    +0.000 C 
ATOM     22  C   UNL     1       2.555   2.721  21.280  0.00  0.00    +0.000 C 
ENDBRANCH  14  17
ENDBRANCH  12  13
BRANCH   8  23
ATOM     23  C   UNL     1       9.027   9.458  18.913  0.00  0.00    +0.000 C 
ATOM     24  N   UNL     1       9.742  10.220  19.414  0.00  0.00    +0.000 NA
ENDBRANCH   8  23
BRANCH  11  25
ATOM     25  O   UNL     1       8.551   4.129  17.782  0.00  0.00    +0.000 OA
ATOM     26  H   UNL     1       8.467   4.191  16.815  0.00  0.00    +0.000 HD
ENDBRANCH  11  25
TORSDOF 4
ENDMDL
MODEL 3
REMARK VINA RESULT:      -6.7      2.251      5.961
REMARK  Name = 
REMARK  6 active torsions:
REMARK  status: ('A' for Active; 'I' for Inactive)
REMARK    1  A    between atoms: C_1  and  C_2
REMARK    2  A    between atoms: C_2  and  C_3
REMARK    3  A    between atoms: C_8  and  C_9
REMARK    4  A    between atoms: C_13  and  O_14
REMARK    5  A    between atoms: C_15  and  N_16
REMARK    6  A    between atoms: C_17  and  C_19
REMARK                            x       y       z     vdW  Elec       q    Type
REMARK                         _______ _______ _______ _____ _____    ______ ____
ROOT
ATOM      1  C   UNL     1       1.855   4.064  19.902  0.00  0.00    +0.000 C 
ATOM      2  C   UNL     1       3.249   4.192  19.258  0.00  0.00    +0.000 C 
ATOM      3  C   UNL     1       4.095   3.049  19.870  0.00  0.00    +0.000 C 
ATOM      4  O   UNL     1       3.116   3.948  17.837  0.00  0.00    +0.000 OA
ATOM      5  C   UNL     1       4.191   4.321  17.064  0.00  0.00    +0.000 A 
ATOM      6  C   UNL     1       4.172   3.882  15.742  0.00  0.00    +0.000 A 
ATOM      7  C   UNL     1       5.224   4.216  14.873  0.00  0.00    +0.000 A 
ATOM      8  C   UNL     1       6.296   4.983  15.328  0.00  0.00    +0.000 A 
ATOM      9  C   UNL     1       6.311   5.431  16.657  0.00  0.00    +0.000 A 
ATOM     10  C   UNL     1       5.243   5.131  17.519  0.00  0.00    +0.000 A 
ATOM     11  C   UNL     1       5.219   5.728  18.904  0.00  0.00    +0.000 C 
ATOM     12  C   UNL     1       3.793   5.634  19.483  0.00  0.00    +0.000 C 
ENDROOT
BRANCH  12  13
ATOM     13  N   UNL     1       2.889   6.659  18.864  0.00  0.00    +0.000 N 
ATOM     14  C   UNL     1       2.161   7.531  19.630  0.00  0.00    +0.000 C 
ATOM     15  O   UNL     1       2.227   7.503  20.860  0.00  0.00    +0.000 OA
ATOM     16  H   UNL     1       2.996   6.839  17.873  0.00  0.00    +0.000 HD
BRANCH  14  17
ATOM     17  C   UNL     1       1.185   8.498  18.929  0.00  0.00    +0.000 C 
ATOM     18  C   UNL     1       0.366   9.439  19.825  0.00  0.00    +0.000 C 
ATOM     19  C   UNL     1       0.906  10.859  19.991  0.00  0.00    +0.000 C 
ATOM     20  C   UNL     1       1.388  11.464  18.680  0.00  0.00    +0.000 C 
ATOM     21  C   UNL     1       2.418  10.558  18.025  0.00  0.00    +0.000 C 
ATOM     22  C   UNL     1       1.822   9.189  17.718  0.00  0.00    +0.000 C 
ENDBRANCH  14  17
ENDBRANCH  12  13
BRANCH   8  23
ATOM     23  C   UNL     1       7.370   5.334  14.431  0.00  0.00    +0.000 C 
ATOM     24  N   UNL     1       8.228   5.622  13.706  0.00  0.00    +0.000 NA
ENDBRANCH   8  23
BRANCH  11  25
ATOM     25  O   UNL     1       6.166   5.083  19.759  0.00  0.00    +0.000 OA
ATOM     26  H   UNL     1       7.062   5.389  19.532  0.00  0.00    +0.000 HD
ENDBRANCH  11  25
TORSDOF 4
ENDMDL
MODEL 4
REMARK VINA RESULT:      -6.4      2.623      6.360
REMARK  Name = 
REMARK  6 active torsions:
REMARK  status: ('A' for Active; 'I' for Inactive)
REMARK    1  A    between atoms: C_1  and  C_2
REMARK    2  A    between atoms: C_2  and  C_3
REMARK    3  A    between atoms: C_8  and  C_9
REMARK    4  A    between atoms: C_13  and  O_14
REMARK    5  A    between atoms: C_15  and  N_16
REMARK    6  A    between atoms: C_17  and  C_19
REMARK                            x       y       z     vdW  Elec       q    Type
REMARK                         _______ _______ _______ _____ _____    ______ ____
ROOT
ATOM      1  C   UNL     1       7.609   6.022  19.322  0.00  0.00    +0.000 C 
ATOM      2  C   UNL     1       7.012   6.132  17.906  0.00  0.00    +0.000 C 
ATOM      3  C   UNL     1       7.685   7.372  17.268  0.00  0.00    +0.000 C 
ATOM      4  O   UNL     1       7.410   4.962  17.153  0.00  0.00    +0.000 OA
ATOM      5  C   UNL     1       6.721   4.742  15.982  0.00  0.00    +0.000 A 
ATOM      6  C   UNL     1       7.246   3.763  15.142  0.00  0.00    +0.000 A 
ATOM      7  C   UNL     1       6.611   3.464  13.925  0.00  0.00    +0.000 A 
ATOM      8  C   UNL     1       5.455   4.147  13.548  0.00  0.00    +0.000 A 
ATOM      9  C   UNL     1       4.922   5.127  14.398  0.00  0.00    +0.000 A 
ATOM     10  C   UNL     1       5.534   5.403  15.633  0.00  0.00    +0.000 A 
ATOM     11  C   UNL     1       4.875   6.370  16.586  0.00  0.00    +0.000 C 
ATOM     12  C   UNL     1       5.458   6.179  18.001  0.00  0.00    +0.000 C 
ENDROOT
BRANCH  12  13
ATOM     13  N   UNL     1       4.916   4.939  18.648  0.00  0.00    +0.000 N 
ATOM     14  C   UNL     1       3.822   4.978  19.473  0.00  0.00    +0.000 C 
ATOM     15  O   UNL     1       3.244   6.040  19.709  0.00  0.00    +0.000 OA
ATOM     16  H   UNL     1       5.236   4.047  18.289  0.00  0.00    +0.000 HD
BRANCH  14  17
ATOM     17  C   UNL     1       3.375   3.679  20.173  0.00  0.00    +0.000 C 
ATOM     18  C   UNL     1       2.032   3.711  20.917  0.00  0.00    +0.000 C 
ATOM     19  C   UNL     1       0.823   3.158  20.162  0.00  0.00    +0.000 C 
ATOM     20  C   UNL     1       1.129   1.861  19.427  0.00  0.00    +0.000 C 
ATOM     21  C   UNL     1       2.320   2.045  18.500  0.00  0.00    +0.000 C 
ATOM     22  C   UNL     1       3.564   2.445  19.284  0.00  0.00    +0.000 C 
ENDBRANCH  14  17
ENDBRANCH  12  13
BRANCH   8  23
ATOM     23  C   UNL     1       4.798   3.831  12.304  0.00  0.00    +0.000 C 
ATOM     24  N   UNL     1       4.268   3.568  11.306  0.00  0.00    +0.000 NA
ENDBRANCH   8  23
BRANCH  11  25
ATOM     25  O   UNL     1       5.031   7.719  16.141  0.00  0.00    +0.000 OA
ATOM     26  H   UNL     1       4.990   8.315  16.908  0.00  0.00    +0.000 HD
ENDBRANCH  11  25
TORSDOF 4
ENDMDL
MODEL 5
REMARK VINA RESULT:      -6.4      7.958     11.198
REMARK  Name = 
REMARK  6 active torsions:
REMARK  status: ('A' for Active; 'I' for Inactive)
REMARK    1  A    between atoms: C_1  and  C_2
REMARK    2  A    between atoms: C_2  and  C_3
REMARK    3  A    between atoms: C_8  and  C_9
REMARK    4  A    between atoms: C_13  and  O_14
REMARK    5  A    between atoms: C_15  and  N_16
REMARK    6  A    between atoms: C_17  and  C_19
REMARK                            x       y       z     vdW  Elec       q    Type
REMARK                         _______ _______ _______ _____ _____    ______ ____
ROOT
ATOM      1  C   UNL     1      11.397  15.467  20.601  0.00  0.00    +0.000 C 
ATOM      2  C   UNL     1      11.027  14.341  19.615  0.00  0.00    +0.000 C 
ATOM      3  C   UNL     1      12.333  14.015  18.850  0.00  0.00    +0.000 C 
ATOM      4  O   UNL     1      10.646  13.174  20.381  0.00  0.00    +0.000 OA
ATOM      5  C   UNL     1       9.995  12.185  19.678  0.00  0.00    +0.000 A 
ATOM      6  C   UNL     1       9.833  10.972  20.344  0.00  0.00    +0.000 A 
ATOM      7  C   UNL     1       9.178   9.903  19.710  0.00  0.00    +0.000 A 
ATOM      8  C   UNL     1       8.690  10.046  18.412  0.00  0.00    +0.000 A 
ATOM      9  C   UNL     1       8.846  11.271  17.746  0.00  0.00    +0.000 A 
ATOM     10  C   UNL     1       9.468  12.355  18.389  0.00  0.00    +0.000 A 
ATOM     11  C   UNL     1       9.513  13.697  17.702  0.00  0.00    +0.000 C 
ATOM     12  C   UNL     1       9.823  14.797  18.737  0.00  0.00    +0.000 C 
ENDROOT
BRANCH  12  13
ATOM     13  N   UNL     1       8.621  15.102  19.581  0.00  0.00    +0.000 N 
ATOM     14  C   UNL     1       7.951  16.292  19.473  0.00  0.00    +0.000 C 
ATOM     15  O   UNL     1       8.315  17.155  18.673  0.00  0.00    +0.000 OA
ATOM     16  H   UNL     1       8.185  14.329  20.069  0.00  0.00    +0.000 HD
BRANCH  14  17
ATOM     17  C   UNL     1       6.778  16.573  20.434  0.00  0.00    +0.000 C 
ATOM     18  C   UNL     1       5.710  17.572  19.964  0.00  0.00    +0.000 C 
ATOM     19  C   UNL     1       4.444  16.974  19.351  0.00  0.00    +0.000 C 
ATOM     20  C   UNL     1       3.917  15.779  20.133  0.00  0.00    +0.000 C 
ATOM     21  C   UNL     1       5.003  14.726  20.286  0.00  0.00    +0.000 C 
ATOM     22  C   UNL     1       6.203  15.287  21.040  0.00  0.00    +0.000 C 
ENDBRANCH  14  17
ENDBRANCH  12  13
BRANCH   8  23
ATOM     23  C   UNL     1       8.007   8.952  17.768  0.00  0.00    +0.000 C 
ATOM     24  N   UNL     1       7.464   8.068  17.250  0.00  0.00    +0.000 NA
ENDBRANCH   8  23
BRANCH  11  25
ATOM     25  O   UNL     1      10.472  13.700  16.642  0.00  0.00    +0.000 OA
ATOM     26  H   UNL     1      10.424  12.854  16.164  0.00  0.00    +0.000 HD
ENDBRANCH  11  25
TORSDOF 4
ENDMDL
MODEL 6
REMARK VINA RESULT:      -6.2      2.684      6.339
REMARK  Name = 
REMARK  6 active torsions:
REMARK  status: ('A' for Active; 'I' for Inactive)
REMARK    1  A    between atoms: C_1  and  C_2
REMARK    2  A    between atoms: C_2  and  C_3
REMARK    3  A    between atoms: C_8  and  C_9
REMARK    4  A    between atoms: C_13  and  O_14
REMARK    5  A    between atoms: C_15  and  N_16
REMARK    6  A    between atoms: C_17  and  C_19
REMARK                            x       y       z     vdW  Elec       q    Type
REMARK                         _______ _______ _______ _____ _____    ______ ____
ROOT
ATOM      1  C   UNL     1       7.612   5.860  19.202  0.00  0.00    +0.000 C 
ATOM      2  C   UNL     1       6.974   5.995  17.805  0.00  0.00    +0.000 C 
ATOM      3  C   UNL     1       7.554   7.301  17.209  0.00  0.00    +0.000 C 
ATOM      4  O   UNL     1       7.424   4.885  16.991  0.00  0.00    +0.000 OA
ATOM      5  C   UNL     1       6.721   4.674  15.828  0.00  0.00    +0.000 A 
ATOM      6  C   UNL     1       7.283   3.767  14.933  0.00  0.00    +0.000 A 
ATOM      7  C   UNL     1       6.637   3.483  13.718  0.00  0.00    +0.000 A 
ATOM      8  C   UNL     1       5.433   4.108  13.398  0.00  0.00    +0.000 A 
ATOM      9  C   UNL     1       4.863   5.015  14.304  0.00  0.00    +0.000 A 
ATOM     10  C   UNL     1       5.487   5.275  15.536  0.00  0.00    +0.000 A 
ATOM     11  C   UNL     1       4.794   6.156  16.546  0.00  0.00    +0.000 C 
ATOM     12  C   UNL     1       5.423   5.940  17.937  0.00  0.00    +0.000 C 
ENDROOT
BRANCH  12  13
ATOM     13  N   UNL     1       4.974   4.642  18.539  0.00  0.00    +0.000 N 
ATOM     14  C   UNL     1       3.671   4.225  18.459  0.00  0.00    +0.000 C 
ATOM     15  O   UNL     1       2.822   4.907  17.885  0.00  0.00    +0.000 OA
ATOM     16  H   UNL     1       5.692   3.980  18.810  0.00  0.00    +0.000 HD
BRANCH  14  17
ATOM     17  C   UNL     1       3.264   2.924  19.179  0.00  0.00    +0.000 C 
ATOM     18  C   UNL     1       3.646   2.792  20.660  0.00  0.00    +0.000 C 
ATOM     19  C   UNL     1       2.556   3.134  21.676  0.00  0.00    +0.000 C 
ATOM     20  C   UNL     1       1.198   2.558  21.301  0.00  0.00    +0.000 C 
ATOM     21  C   UNL     1       0.803   3.001  19.901  0.00  0.00    +0.000 C 
ATOM     22  C   UNL     1       1.818   2.518  18.871  0.00  0.00    +0.000 C 
ENDBRANCH  14  17
ENDBRANCH  12  13
BRANCH   8  23
ATOM     23  C   UNL     1       4.765   3.806  12.156  0.00  0.00    +0.000 C 
ATOM     24  N   UNL     1       4.230   3.554  11.159  0.00  0.00    +0.000 NA
ENDBRANCH   8  23
BRANCH  11  25
ATOM     25  O   UNL     1       4.856   7.530  16.158  0.00  0.00    +0.000 OA
ATOM     26  H   UNL     1       5.786   7.785  16.031  0.00  0.00    +0.000 HD
ENDBRANCH  11  25
TORSDOF 4
ENDMDL
MODEL 7
REMARK VINA RESULT:      -6.1      8.515     11.522
REMARK  Name = 
REMARK  6 active torsions:
REMARK  status: ('A' for Active; 'I' for Inactive)
REMARK    1  A    between atoms: C_1  and  C_2
REMARK    2  A    between atoms: C_2  and  C_3
REMARK    3  A    between atoms: C_8  and  C_9
REMARK    4  A    between atoms: C_13  and  O_14
REMARK    5  A    between atoms: C_15  and  N_16
REMARK    6  A    between atoms: C_17  and  C_19
REMARK                            x       y       z     vdW  Elec       q    Type
REMARK                         _______ _______ _______ _____ _____    ______ ____
ROOT
ATOM      1  C   UNL     1      11.237  15.730  20.295  0.00  0.00    +0.000 C 
ATOM      2  C   UNL     1      10.967  14.492  19.418  0.00  0.00    +0.000 C 
ATOM      3  C   UNL     1      12.332  14.126  18.786  0.00  0.00    +0.000 C 
ATOM      4  O   UNL     1      10.560  13.404  20.282  0.00  0.00    +0.000 OA
ATOM      5  C   UNL     1       9.986  12.324  19.652  0.00  0.00    +0.000 A 
ATOM      6  C   UNL     1       9.806  11.187  20.436  0.00  0.00    +0.000 A 
ATOM      7  C   UNL     1       9.225  10.034  19.883  0.00  0.00    +0.000 A 
ATOM      8  C   UNL     1       8.828  10.017  18.546  0.00  0.00    +0.000 A 
ATOM      9  C   UNL     1       9.001  11.165  17.759  0.00  0.00    +0.000 A 
ATOM     10  C   UNL     1       9.549  12.333  18.319  0.00  0.00    +0.000 A 
ATOM     11  C   UNL     1       9.611  13.592  17.490  0.00  0.00    +0.000 C 
ATOM     12  C   UNL     1       9.819  14.809  18.414  0.00  0.00    +0.000 C 
ENDROOT
BRANCH  12  13
ATOM     13  N   UNL     1       8.552  15.166  19.134  0.00  0.00    +0.000 N 
ATOM     14  C   UNL     1       8.020  16.427  19.070  0.00  0.00    +0.000 C 
ATOM     15  O   UNL     1       8.568  17.314  18.414  0.00  0.00    +0.000 OA
ATOM     16  H   UNL     1       7.983  14.404  19.483  0.00  0.00    +0.000 HD
BRANCH  14  17
ATOM     17  C   UNL     1       6.765  16.746  19.906  0.00  0.00    +0.000 C 
ATOM     18  C   UNL     1       6.384  15.746  21.008  0.00  0.00    +0.000 C 
ATOM     19  C   UNL     1       6.836  16.093  22.426  0.00  0.00    +0.000 C 
ATOM     20  C   UNL     1       6.616  17.559  22.774  0.00  0.00    +0.000 C 
ATOM     21  C   UNL     1       7.292  18.454  21.747  0.00  0.00    +0.000 C 
ATOM     22  C   UNL     1       6.722  18.211  20.355  0.00  0.00    +0.000 C 
ENDBRANCH  14  17
ENDBRANCH  12  13
BRANCH   8  23
ATOM     23  C   UNL     1       8.220   8.837  17.984  0.00  0.00    +0.000 C 
ATOM     24  N   UNL     1       7.738   7.885  17.530  0.00  0.00    +0.000 NA
ENDBRANCH   8  23
BRANCH  11  25
ATOM     25  O   UNL     1      10.643  13.510  16.504  0.00  0.00    +0.000 OA
ATOM     26  H   UNL     1      10.242  13.535  15.619  0.00  0.00    +0.000 HD
ENDBRANCH  11  25
TORSDOF 4
ENDMDL
MODEL 8
REMARK VINA RESULT:      -6.0      5.028      8.418
REMARK  Name = 
REMARK  6 active torsions:
REMARK  status: ('A' for Active; 'I' for Inactive)
REMARK    1  A    between atoms: C_1  and  C_2
REMARK    2  A    between atoms: C_2  and  C_3
REMARK    3  A    between atoms: C_8  and  C_9
REMARK    4  A    between atoms: C_13  and  O_14
REMARK    5  A    between atoms: C_15  and  N_16
REMARK    6  A    between atoms: C_17  and  C_19
REMARK                            x       y       z     vdW  Elec       q    Type
REMARK                         _______ _______ _______ _____ _____    ______ ____
ROOT
ATOM      1  C   UNL     1      -0.810  12.875  18.550  0.00  0.00    +0.000 C 
ATOM      2  C   UNL     1      -0.458  11.482  19.108  0.00  0.00    +0.000 C 
ATOM      3  C   UNL     1      -1.813  10.752  19.283  0.00  0.00    +0.000 C 
ATOM      4  O   UNL     1       0.313  10.774  18.108  0.00  0.00    +0.000 OA
ATOM      5  C   UNL     1       0.970   9.647  18.549  0.00  0.00    +0.000 A 
ATOM      6  C   UNL     1       1.518   8.837  17.558  0.00  0.00    +0.000 A 
ATOM      7  C   UNL     1       2.211   7.666  17.908  0.00  0.00    +0.000 A 
ATOM      8  C   UNL     1       2.351   7.305  19.248  0.00  0.00    +0.000 A 
ATOM      9  C   UNL     1       1.806   8.127  20.246  0.00  0.00    +0.000 A 
ATOM     10  C   UNL     1       1.143   9.318  19.901  0.00  0.00    +0.000 A 
ATOM     11  C   UNL     1       0.676  10.247  20.993  0.00  0.00    +0.000 C 
ATOM     12  C   UNL     1       0.397  11.643  20.399  0.00  0.00    +0.000 C 
ENDROOT
BRANCH  12  13
ATOM     13  N   UNL     1       1.675  12.376  20.117  0.00  0.00    +0.000 N 
ATOM     14  C   UNL     1       2.030  13.497  20.821  0.00  0.00    +0.000 C 
ATOM     15  O   UNL     1       1.309  13.940  21.715  0.00  0.00    +0.000 OA
ATOM     16  H   UNL     1       2.370  11.903  19.552  0.00  0.00    +0.000 HD
BRANCH  14  17
ATOM     17  C   UNL     1       3.314  14.250  20.416  0.00  0.00    +0.000 C 
ATOM     18  C   UNL     1       3.752  14.150  18.948  0.00  0.00    +0.000 C 
ATOM     19  C   UNL     1       3.352  15.313  18.039  0.00  0.00    +0.000 C 
ATOM     20  C   UNL     1       3.564  16.672  18.691  0.00  0.00    +0.000 C 
ATOM     21  C   UNL     1       2.836  16.741  20.023  0.00  0.00    +0.000 C 
ATOM     22  C   UNL     1       3.354  15.675  20.982  0.00  0.00    +0.000 C 
ENDBRANCH  14  17
ENDBRANCH  12  13
BRANCH   8  23
ATOM     23  C   UNL     1       3.073   6.110  19.606  0.00  0.00    +0.000 C 
ATOM     24  N   UNL     1       3.655   5.151  19.902  0.00  0.00    +0.000 NA
ENDBRANCH   8  23
BRANCH  11  25
ATOM     25  O   UNL     1      -0.481   9.726  21.652  0.00  0.00    +0.000 OA
ATOM     26  H   UNL     1      -0.368   9.816  22.614  0.00  0.00    +0.000 HD
ENDBRANCH  11  25
TORSDOF 4
ENDMDL
MODEL 9
REMARK VINA RESULT:      -6.0      9.275     11.663
REMARK  Name = 
REMARK  6 active torsions:
REMARK  status: ('A' for Active; 'I' for Inactive)
REMARK    1  A    between atoms: C_1  and  C_2
REMARK    2  A    between atoms: C_2  and  C_3
REMARK    3  A    between atoms: C_8  and  C_9
REMARK    4  A    between atoms: C_13  and  O_14
REMARK    5  A    between atoms: C_15  and  N_16
REMARK    6  A    between atoms: C_17  and  C_19
REMARK                            x       y       z     vdW  Elec       q    Type
REMARK                         _______ _______ _______ _____ _____    ______ ____
ROOT
ATOM      1  C   UNL     1      -7.163  11.936  21.452  0.00  0.00    +0.000 C 
ATOM      2  C   UNL     1      -5.975  12.902  21.626  0.00  0.00    +0.000 C 
ATOM      3  C   UNL     1      -6.490  14.029  22.554  0.00  0.00    +0.000 C 
ATOM      4  O   UNL     1      -4.913  12.198  22.313  0.00  0.00    +0.000 OA
ATOM      5  C   UNL     1      -3.677  12.800  22.278  0.00  0.00    +0.000 A 
ATOM      6  C   UNL     1      -2.712  12.258  23.123  0.00  0.00    +0.000 A 
ATOM      7  C   UNL     1      -1.417  12.803  23.156  0.00  0.00    +0.000 A 
ATOM      8  C   UNL     1      -1.091  13.891  22.348  0.00  0.00    +0.000 A 
ATOM      9  C   UNL     1      -2.061  14.431  21.491  0.00  0.00    +0.000 A 
ATOM     10  C   UNL     1      -3.346  13.867  21.428  0.00  0.00    +0.000 A 
ATOM     11  C   UNL     1      -4.333  14.383  20.411  0.00  0.00    +0.000 C 
ATOM     12  C   UNL     1      -5.468  13.356  20.225  0.00  0.00    +0.000 C 
ENDROOT
BRANCH  12  13
ATOM     13  N   UNL     1      -5.011  12.185  19.407  0.00  0.00    +0.000 N 
ATOM     14  C   UNL     1      -5.258  12.109  18.061  0.00  0.00    +0.000 C 
ATOM     15  O   UNL     1      -5.866  13.005  17.476  0.00  0.00    +0.000 OA
ATOM     16  H   UNL     1      -4.328  11.563  19.823  0.00  0.00    +0.000 HD
BRANCH  14  17
ATOM     17  C   UNL     1      -4.836  10.834  17.301  0.00  0.00    +0.000 C 
ATOM     18  C   UNL     1      -4.279  11.017  15.882  0.00  0.00    +0.000 C 
ATOM     19  C   UNL     1      -2.757  11.028  15.746  0.00  0.00    +0.000 C 
ATOM     20  C   UNL     1      -2.082   9.945  16.576  0.00  0.00    +0.000 C 
ATOM     21  C   UNL     1      -2.504  10.053  18.033  0.00  0.00    +0.000 C 
ATOM     22  C   UNL     1      -4.012   9.882  18.175  0.00  0.00    +0.000 C 
ENDBRANCH  14  17
ENDBRANCH  12  13
BRANCH   8  23
ATOM     23  C   UNL     1       0.242  14.441  22.374  0.00  0.00    +0.000 C 
ATOM     24  N   UNL     1       1.312  14.888  22.388  0.00  0.00    +0.000 NA
ENDBRANCH   8  23
BRANCH  11  25
ATOM     25  O   UNL     1      -4.849  15.659  20.796  0.00  0.00    +0.000 OA
ATOM     26  H   UNL     1      -4.108  16.254  21.006  0.00  0.00    +0.000 HD
ENDBRANCH  11  25
TORSDOF 4
ENDMDL
