MODEL 1
REMARK VINA RESULT:      -8.5      0.000      0.000
REMARK  Name = 
REMARK  5 active torsions:
REMARK  status: ('A' for Active; 'I' for Inactive)
REMARK    1  A    between atoms: C_1  and  S_2
REMARK    2  A    between atoms: S_2  and  C_3
REMARK    3  A    between atoms: C_5  and  C_6
REMARK    4  A    between atoms: C_14  and  C_16
REMARK    5  A    between atoms: C_19  and  C_20
REMARK                            x       y       z     vdW  Elec       q    Type
REMARK                         _______ _______ _______ _____ _____    ______ ____
ROOT
ATOM      1  C   UNL     1       2.513   4.540  20.491  0.00  0.00    +0.000 A 
ATOM      2  N   UNL     1       1.804   5.637  20.626  0.00  0.00    +0.000 NA
ATOM      3  C   UNL     1       2.426   6.532  19.787  0.00  0.00    +0.000 A 
ATOM      4  N   UNL     1       3.487   6.030  19.141  0.00  0.00    +0.000 NA
ATOM      5  N   UNL     1       3.561   4.757  19.617  0.00  0.00    +0.000 N 
ATOM      6  C   UNL     1       4.618   3.927  19.204  0.00  0.00    +0.000 C 
ATOM      7  O   UNL     1       4.966   3.016  19.955  0.00  0.00    +0.000 OA
ENDROOT
BRANCH   6   8
ATOM      8  C   UNL     1       5.337   4.083  17.905  0.00  0.00    +0.000 A 
ATOM      9  C   UNL     1       4.661   3.835  16.702  0.00  0.00    +0.000 A 
ATOM     10  C   UNL     1       5.279   4.094  15.476  0.00  0.00    +0.000 A 
ATOM     11  C   UNL     1       6.576   4.615  15.429  0.00  0.00    +0.000 A 
ATOM     12  C   UNL     1       7.227   4.968  14.123  0.00  0.00    +0.000 C 
ATOM     13  C   UNL     1       7.259   4.845  16.630  0.00  0.00    +0.000 A 
ATOM     14  C   UNL     1       6.646   4.577  17.860  0.00  0.00    +0.000 A 
ENDBRANCH   6   8
BRANCH   3  15
ATOM     15  C   UNL     1       1.927   7.886  19.566  0.00  0.00    +0.000 A 
ATOM     16  C   UNL     1       1.266   8.579  20.589  0.00  0.00    +0.000 A 
ATOM     17  C   UNL     1       0.760   9.863  20.367  0.00  0.00    +0.000 A 
ATOM     18  C   UNL     1       0.909  10.468  19.121  0.00  0.00    +0.000 A 
ATOM     19  C   UNL     1       1.566   9.793  18.095  0.00  0.00    +0.000 A 
ATOM     20  C   UNL     1       2.075   8.511  18.317  0.00  0.00    +0.000 A 
ENDBRANCH   3  15
BRANCH   1  22
ATOM     21  C   UNL     1       1.438   2.153  19.640  0.00  0.00    +0.000 C 
ATOM     22  S   UNL     1       2.063   2.985  21.116  0.00  0.00    +0.000 S 
ENDBRANCH   1  22
TORSDOF 3
ENDMDL
MODEL 2
REMARK VINA RESULT:      -8.4      0.088      1.033
REMARK  Name = 
REMARK  5 active torsions:
REMARK  status: ('A' for Active; 'I' for Inactive)
REMARK    1  A    between atoms: C_1  and  S_2
REMARK    2  A    between atoms: S_2  and  C_3
REMARK    3  A    between atoms: C_5  and  C_6
REMARK    4  A    between atoms: C_14  and  C_16
REMARK    5  A    between atoms: C_19  and  C_20
REMARK                            x       y       z     vdW  Elec       q    Type
REMARK                         _______ _______ _______ _____ _____    ______ ____
ROOT
ATOM      1  C   UNL     1       2.586   4.562  20.462  0.00  0.00    +0.000 A 
ATOM      2  N   UNL     1       1.861   5.649  20.590  0.00  0.00    +0.000 NA
ATOM      3  C   UNL     1       2.453   6.539  19.725  0.00  0.00    +0.000 A 
ATOM      4  N   UNL     1       3.511   6.043  19.070  0.00  0.00    +0.000 NA
ATOM      5  N   UNL     1       3.615   4.779  19.566  0.00  0.00    +0.000 N 
ATOM      6  C   UNL     1       4.678   3.960  19.150  0.00  0.00    +0.000 C 
ATOM      7  O   UNL     1       5.054   3.068  19.911  0.00  0.00    +0.000 OA
ENDROOT
BRANCH   6   8
ATOM      8  C   UNL     1       5.372   4.104  17.836  0.00  0.00    +0.000 A 
ATOM      9  C   UNL     1       4.666   3.873  16.648  0.00  0.00    +0.000 A 
ATOM     10  C   UNL     1       5.263   4.122  15.409  0.00  0.00    +0.000 A 
ATOM     11  C   UNL     1       6.569   4.617  15.335  0.00  0.00    +0.000 A 
ATOM     12  C   UNL     1       7.198   4.959  14.016  0.00  0.00    +0.000 C 
ATOM     13  C   UNL     1       7.282   4.831  16.522  0.00  0.00    +0.000 A 
ATOM     14  C   UNL     1       6.690   4.571  17.764  0.00  0.00    +0.000 A 
ENDBRANCH   6   8
BRANCH   3  15
ATOM     15  C   UNL     1       1.928   7.881  19.489  0.00  0.00    +0.000 A 
ATOM     16  C   UNL     1       2.101   8.507  18.246  0.00  0.00    +0.000 A 
ATOM     17  C   UNL     1       1.626   9.804  18.031  0.00  0.00    +0.000 A 
ATOM     18  C   UNL     1       0.975  10.489  19.055  0.00  0.00    +0.000 A 
ATOM     19  C   UNL     1       0.793   9.879  20.294  0.00  0.00    +0.000 A 
ATOM     20  C   UNL     1       1.265   8.582  20.509  0.00  0.00    +0.000 A 
ENDBRANCH   3  15
BRANCH   1  22
ATOM     21  C   UNL     1       1.519   2.149  19.676  0.00  0.00    +0.000 C 
ATOM     22  S   UNL     1       2.172   3.011  21.122  0.00  0.00    +0.000 S 
ENDBRANCH   1  22
TORSDOF 3
ENDMDL
MODEL 3
REMARK VINA RESULT:      -8.4      0.318      1.075
REMARK  Name = 
REMARK  5 active torsions:
REMARK  status: ('A' for Active; 'I' for Inactive)
REMARK    1  A    between atoms: C_1  and  S_2
REMARK    2  A    between atoms: S_2  and  C_3
REMARK    3  A    between atoms: C_5  and  C_6
REMARK    4  A    between atoms: C_14  and  C_16
REMARK    5  A    between atoms: C_19  and  C_20
REMARK                            x       y       z     vdW  Elec       q    Type
REMARK                         _______ _______ _______ _____ _____    ______ ____
ROOT
ATOM      1  C   UNL     1       2.631   4.482  20.434  0.00  0.00    +0.000 A 
ATOM      2  N   UNL     1       1.880   5.529  20.689  0.00  0.00    +0.000 NA
ATOM      3  C   UNL     1       2.409   6.512  19.885  0.00  0.00    +0.000 A 
ATOM      4  N   UNL     1       3.452   6.113  19.146  0.00  0.00    +0.000 NA
ATOM      5  N   UNL     1       3.614   4.814  19.521  0.00  0.00    +0.000 N 
ATOM      6  C   UNL     1       4.683   4.071  18.990  0.00  0.00    +0.000 C 
ATOM      7  O   UNL     1       5.117   3.128  19.651  0.00  0.00    +0.000 OA
ENDROOT
BRANCH   6   8
ATOM      8  C   UNL     1       5.315   4.356  17.668  0.00  0.00    +0.000 A 
ATOM      9  C   UNL     1       6.671   4.704  17.606  0.00  0.00    +0.000 A 
ATOM     10  C   UNL     1       7.308   4.853  16.371  0.00  0.00    +0.000 A 
ATOM     11  C   UNL     1       6.607   4.646  15.179  0.00  0.00    +0.000 A 
ATOM     12  C   UNL     1       7.294   4.729  13.847  0.00  0.00    +0.000 C 
ATOM     13  C   UNL     1       5.247   4.316  15.240  0.00  0.00    +0.000 A 
ATOM     14  C   UNL     1       4.603   4.177  16.476  0.00  0.00    +0.000 A 
ENDBRANCH   6   8
BRANCH   3  15
ATOM     15  C   UNL     1       1.834   7.851  19.793  0.00  0.00    +0.000 A 
ATOM     16  C   UNL     1       1.199   8.434  20.898  0.00  0.00    +0.000 A 
ATOM     17  C   UNL     1       0.620   9.702  20.800  0.00  0.00    +0.000 A 
ATOM     18  C   UNL     1       0.670  10.402  19.596  0.00  0.00    +0.000 A 
ATOM     19  C   UNL     1       1.300   9.838  18.489  0.00  0.00    +0.000 A 
ATOM     20  C   UNL     1       1.881   8.571  18.588  0.00  0.00    +0.000 A 
ENDBRANCH   3  15
BRANCH   1  22
ATOM     21  C   UNL     1       1.597   2.117  19.478  0.00  0.00    +0.000 C 
ATOM     22  S   UNL     1       2.293   2.866  20.967  0.00  0.00    +0.000 S 
ENDBRANCH   1  22
TORSDOF 3
ENDMDL
MODEL 4
REMARK VINA RESULT:      -8.3      0.311      1.485
REMARK  Name = 
REMARK  5 active torsions:
REMARK  status: ('A' for Active; 'I' for Inactive)
REMARK    1  A    between atoms: C_1  and  S_2
REMARK    2  A    between atoms: S_2  and  C_3
REMARK    3  A    between atoms: C_5  and  C_6
REMARK    4  A    between atoms: C_14  and  C_16
REMARK    5  A    between atoms: C_19  and  C_20
REMARK                            x       y       z     vdW  Elec       q    Type
REMARK                         _______ _______ _______ _____ _____    ______ ____
ROOT
ATOM      1  C   UNL     1       2.630   4.500  20.436  0.00  0.00    +0.000 A 
ATOM      2  N   UNL     1       1.875   5.546  20.685  0.00  0.00    +0.000 NA
ATOM      3  C   UNL     1       2.399   6.525  19.874  0.00  0.00    +0.000 A 
ATOM      4  N   UNL     1       3.443   6.125  19.136  0.00  0.00    +0.000 NA
ATOM      5  N   UNL     1       3.610   4.829  19.520  0.00  0.00    +0.000 N 
ATOM      6  C   UNL     1       4.681   4.087  18.992  0.00  0.00    +0.000 C 
ATOM      7  O   UNL     1       5.120   3.150  19.659  0.00  0.00    +0.000 OA
ENDROOT
BRANCH   6   8
ATOM      8  C   UNL     1       5.310   4.365  17.667  0.00  0.00    +0.000 A 
ATOM      9  C   UNL     1       6.667   4.711  17.601  0.00  0.00    +0.000 A 
ATOM     10  C   UNL     1       7.302   4.854  16.364  0.00  0.00    +0.000 A 
ATOM     11  C   UNL     1       6.597   4.643  15.174  0.00  0.00    +0.000 A 
ATOM     12  C   UNL     1       7.281   4.721  13.840  0.00  0.00    +0.000 C 
ATOM     13  C   UNL     1       5.236   4.317  15.240  0.00  0.00    +0.000 A 
ATOM     14  C   UNL     1       4.596   4.184  16.477  0.00  0.00    +0.000 A 
ENDBRANCH   6   8
BRANCH   3  15
ATOM     15  C   UNL     1       1.820   7.862  19.774  0.00  0.00    +0.000 A 
ATOM     16  C   UNL     1       1.879   8.578  18.571  0.00  0.00    +0.000 A 
ATOM     17  C   UNL     1       1.353   9.870  18.485  0.00  0.00    +0.000 A 
ATOM     18  C   UNL     1       0.762  10.460  19.600  0.00  0.00    +0.000 A 
ATOM     19  C   UNL     1       0.693   9.760  20.802  0.00  0.00    +0.000 A 
ATOM     20  C   UNL     1       1.216   8.468  20.888  0.00  0.00    +0.000 A 
ENDBRANCH   3  15
BRANCH   1  22
ATOM     21  C   UNL     1       1.612   2.122  19.493  0.00  0.00    +0.000 C 
ATOM     22  S   UNL     1       2.298   2.886  20.979  0.00  0.00    +0.000 S 
ENDBRANCH   1  22
TORSDOF 3
ENDMDL
MODEL 5
REMARK VINA RESULT:      -8.3      3.554      7.001
REMARK  Name = 
REMARK  5 active torsions:
REMARK  status: ('A' for Active; 'I' for Inactive)
REMARK    1  A    between atoms: C_1  and  S_2
REMARK    2  A    between atoms: S_2  and  C_3
REMARK    3  A    between atoms: C_5  and  C_6
REMARK    4  A    between atoms: C_14  and  C_16
REMARK    5  A    between atoms: C_19  and  C_20
REMARK                            x       y       z     vdW  Elec       q    Type
REMARK                         _______ _______ _______ _____ _____    ______ ____
ROOT
ATOM      1  C   UNL     1       7.347   5.971  17.441  0.00  0.00    +0.000 A 
ATOM      2  N   UNL     1       7.637   5.904  16.162  0.00  0.00    +0.000 NA
ATOM      3  C   UNL     1       6.769   4.952  15.680  0.00  0.00    +0.000 A 
ATOM      4  N   UNL     1       5.957   4.431  16.610  0.00  0.00    +0.000 NA
ATOM      5  N   UNL     1       6.349   5.066  17.749  0.00  0.00    +0.000 N 
ATOM      6  C   UNL     1       5.750   4.719  18.972  0.00  0.00    +0.000 C 
ATOM      7  O   UNL     1       6.396   4.899  20.005  0.00  0.00    +0.000 OA
ENDROOT
BRANCH   6   8
ATOM      8  C   UNL     1       4.374   4.152  19.092  0.00  0.00    +0.000 A 
ATOM      9  C   UNL     1       3.261   4.983  18.903  0.00  0.00    +0.000 A 
ATOM     10  C   UNL     1       1.971   4.446  18.889  0.00  0.00    +0.000 A 
ATOM     11  C   UNL     1       1.771   3.071  19.051  0.00  0.00    +0.000 A 
ATOM     12  C   UNL     1       0.398   2.469  18.965  0.00  0.00    +0.000 C 
ATOM     13  C   UNL     1       2.882   2.243  19.259  0.00  0.00    +0.000 A 
ATOM     14  C   UNL     1       4.174   2.780  19.284  0.00  0.00    +0.000 A 
ENDBRANCH   6   8
BRANCH   3  15
ATOM     15  C   UNL     1       6.692   4.595  14.266  0.00  0.00    +0.000 A 
ATOM     16  C   UNL     1       5.716   3.700  13.808  0.00  0.00    +0.000 A 
ATOM     17  C   UNL     1       5.663   3.334  12.460  0.00  0.00    +0.000 A 
ATOM     18  C   UNL     1       6.585   3.858  11.556  0.00  0.00    +0.000 A 
ATOM     19  C   UNL     1       7.559   4.751  11.996  0.00  0.00    +0.000 A 
ATOM     20  C   UNL     1       7.611   5.119  13.343  0.00  0.00    +0.000 A 
ENDBRANCH   3  15
BRANCH   1  22
ATOM     21  C   UNL     1       7.772   8.688  17.550  0.00  0.00    +0.000 C 
ATOM     22  S   UNL     1       7.944   7.181  18.531  0.00  0.00    +0.000 S 
ENDBRANCH   1  22
TORSDOF 3
ENDMDL
MODEL 6
REMARK VINA RESULT:      -8.3      3.573      7.035
REMARK  Name = 
REMARK  5 active torsions:
REMARK  status: ('A' for Active; 'I' for Inactive)
REMARK    1  A    between atoms: C_1  and  S_2
REMARK    2  A    between atoms: S_2  and  C_3
REMARK    3  A    between atoms: C_5  and  C_6
REMARK    4  A    between atoms: C_14  and  C_16
REMARK    5  A    between atoms: C_19  and  C_20
REMARK                            x       y       z     vdW  Elec       q    Type
REMARK                         _______ _______ _______ _____ _____    ______ ____
ROOT
ATOM      1  C   UNL     1       7.363   5.971  17.423  0.00  0.00    +0.000 A 
ATOM      2  N   UNL     1       7.664   5.887  16.147  0.00  0.00    +0.000 NA
ATOM      3  C   UNL     1       6.796   4.933  15.670  0.00  0.00    +0.000 A 
ATOM      4  N   UNL     1       5.974   4.428  16.599  0.00  0.00    +0.000 NA
ATOM      5  N   UNL     1       6.359   5.075  17.734  0.00  0.00    +0.000 N 
ATOM      6  C   UNL     1       5.749   4.745  18.956  0.00  0.00    +0.000 C 
ATOM      7  O   UNL     1       6.387   4.935  19.991  0.00  0.00    +0.000 OA
ENDROOT
BRANCH   6   8
ATOM      8  C   UNL     1       4.369   4.186  19.071  0.00  0.00    +0.000 A 
ATOM      9  C   UNL     1       3.266   4.983  18.734  0.00  0.00    +0.000 A 
ATOM     10  C   UNL     1       1.979   4.439  18.717  0.00  0.00    +0.000 A 
ATOM     11  C   UNL     1       1.772   3.090  19.024  0.00  0.00    +0.000 A 
ATOM     12  C   UNL     1       0.406   2.472  18.940  0.00  0.00    +0.000 C 
ATOM     13  C   UNL     1       2.872   2.298  19.380  0.00  0.00    +0.000 A 
ATOM     14  C   UNL     1       4.161   2.843  19.408  0.00  0.00    +0.000 A 
ENDBRANCH   6   8
BRANCH   3  15
ATOM     15  C   UNL     1       6.729   4.560  14.260  0.00  0.00    +0.000 A 
ATOM     16  C   UNL     1       7.631   5.101  13.334  0.00  0.00    +0.000 A 
ATOM     17  C   UNL     1       7.546   4.769  11.979  0.00  0.00    +0.000 A 
ATOM     18  C   UNL     1       6.558   3.892  11.535  0.00  0.00    +0.000 A 
ATOM     19  C   UNL     1       5.656   3.343  12.444  0.00  0.00    +0.000 A 
ATOM     20  C   UNL     1       5.742   3.673  13.798  0.00  0.00    +0.000 A 
ENDBRANCH   3  15
BRANCH   1  22
ATOM     21  C   UNL     1       7.700   8.700  17.544  0.00  0.00    +0.000 C 
ATOM     22  S   UNL     1       7.958   7.192  18.503  0.00  0.00    +0.000 S 
ENDBRANCH   1  22
TORSDOF 3
ENDMDL
MODEL 7
REMARK VINA RESULT:      -8.1      3.556      7.081
REMARK  Name = 
REMARK  5 active torsions:
REMARK  status: ('A' for Active; 'I' for Inactive)
REMARK    1  A    between atoms: C_1  and  S_2
REMARK    2  A    between atoms: S_2  and  C_3
REMARK    3  A    between atoms: C_5  and  C_6
REMARK    4  A    between atoms: C_14  and  C_16
REMARK    5  A    between atoms: C_19  and  C_20
REMARK                            x       y       z     vdW  Elec       q    Type
REMARK                         _______ _______ _______ _____ _____    ______ ____
ROOT
ATOM      1  C   UNL     1       7.361   5.991  17.413  0.00  0.00    +0.000 A 
ATOM      2  N   UNL     1       7.657   5.907  16.136  0.00  0.00    +0.000 NA
ATOM      3  C   UNL     1       6.773   4.968  15.659  0.00  0.00    +0.000 A 
ATOM      4  N   UNL     1       5.946   4.472  16.589  0.00  0.00    +0.000 NA
ATOM      5  N   UNL     1       6.344   5.109  17.724  0.00  0.00    +0.000 N 
ATOM      6  C   UNL     1       5.732   4.785  18.947  0.00  0.00    +0.000 C 
ATOM      7  O   UNL     1       6.376   4.962  19.982  0.00  0.00    +0.000 OA
ENDROOT
BRANCH   6   8
ATOM      8  C   UNL     1       4.345   4.246  19.064  0.00  0.00    +0.000 A 
ATOM      9  C   UNL     1       4.129   3.012  19.692  0.00  0.00    +0.000 A 
ATOM     10  C   UNL     1       2.829   2.551  19.919  0.00  0.00    +0.000 A 
ATOM     11  C   UNL     1       1.724   3.318  19.535  0.00  0.00    +0.000 A 
ATOM     12  C   UNL     1       0.323   2.872  19.838  0.00  0.00    +0.000 C 
ATOM     13  C   UNL     1       1.940   4.543  18.891  0.00  0.00    +0.000 A 
ATOM     14  C   UNL     1       3.241   5.002  18.652  0.00  0.00    +0.000 A 
ENDBRANCH   6   8
BRANCH   3  15
ATOM     15  C   UNL     1       6.696   4.600  14.248  0.00  0.00    +0.000 A 
ATOM     16  C   UNL     1       5.725   3.696  13.797  0.00  0.00    +0.000 A 
ATOM     17  C   UNL     1       5.672   3.319  12.452  0.00  0.00    +0.000 A 
ATOM     18  C   UNL     1       6.591   3.842  11.544  0.00  0.00    +0.000 A 
ATOM     19  C   UNL     1       7.561   4.743  11.976  0.00  0.00    +0.000 A 
ATOM     20  C   UNL     1       7.612   5.122  13.320  0.00  0.00    +0.000 A 
ENDBRANCH   3  15
BRANCH   1  22
ATOM     21  C   UNL     1       7.756   8.713  17.535  0.00  0.00    +0.000 C 
ATOM     22  S   UNL     1       7.976   7.200  18.496  0.00  0.00    +0.000 S 
ENDBRANCH   1  22
TORSDOF 3
ENDMDL
MODEL 8
REMARK VINA RESULT:      -8.0      3.547      7.108
REMARK  Name = 
REMARK  5 active torsions:
REMARK  status: ('A' for Active; 'I' for Inactive)
REMARK    1  A    between atoms: C_1  and  S_2
REMARK    2  A    between atoms: S_2  and  C_3
REMARK    3  A    between atoms: C_5  and  C_6
REMARK    4  A    between atoms: C_14  and  C_16
REMARK    5  A    between atoms: C_19  and  C_20
REMARK                            x       y       z     vdW  Elec       q    Type
REMARK                         _______ _______ _______ _____ _____    ______ ____
ROOT
ATOM      1  C   UNL     1       7.384   6.010  17.425  0.00  0.00    +0.000 A 
ATOM      2  N   UNL     1       7.683   5.915  16.150  0.00  0.00    +0.000 NA
ATOM      3  C   UNL     1       6.807   4.964  15.681  0.00  0.00    +0.000 A 
ATOM      4  N   UNL     1       5.982   4.472  16.615  0.00  0.00    +0.000 NA
ATOM      5  N   UNL     1       6.374   5.124  17.744  0.00  0.00    +0.000 N 
ATOM      6  C   UNL     1       5.762   4.808  18.970  0.00  0.00    +0.000 C 
ATOM      7  O   UNL     1       6.404   5.000  20.003  0.00  0.00    +0.000 OA
ENDROOT
BRANCH   6   8
ATOM      8  C   UNL     1       4.379   4.260  19.090  0.00  0.00    +0.000 A 
ATOM      9  C   UNL     1       4.181   2.987  19.642  0.00  0.00    +0.000 A 
ATOM     10  C   UNL     1       2.888   2.509  19.875  0.00  0.00    +0.000 A 
ATOM     11  C   UNL     1       1.773   3.298  19.574  0.00  0.00    +0.000 A 
ATOM     12  C   UNL     1       0.381   2.831  19.886  0.00  0.00    +0.000 C 
ATOM     13  C   UNL     1       1.971   4.563  19.005  0.00  0.00    +0.000 A 
ATOM     14  C   UNL     1       3.264   5.039  18.760  0.00  0.00    +0.000 A 
ENDBRANCH   6   8
BRANCH   3  15
ATOM     15  C   UNL     1       6.735   4.581  14.274  0.00  0.00    +0.000 A 
ATOM     16  C   UNL     1       7.624   5.128  13.339  0.00  0.00    +0.000 A 
ATOM     17  C   UNL     1       7.534   4.785  11.987  0.00  0.00    +0.000 A 
ATOM     18  C   UNL     1       6.555   3.893  11.555  0.00  0.00    +0.000 A 
ATOM     19  C   UNL     1       5.666   3.338  12.473  0.00  0.00    +0.000 A 
ATOM     20  C   UNL     1       5.757   3.678  13.825  0.00  0.00    +0.000 A 
ENDBRANCH   3  15
BRANCH   1  22
ATOM     21  C   UNL     1       7.740   8.738  17.527  0.00  0.00    +0.000 C 
ATOM     22  S   UNL     1       7.989   7.234  18.496  0.00  0.00    +0.000 S 
ENDBRANCH   1  22
TORSDOF 3
ENDMDL
MODEL 9
REMARK VINA RESULT:      -7.1      3.531      4.876
REMARK  Name = 
REMARK  5 active torsions:
REMARK  status: ('A' for Active; 'I' for Inactive)
REMARK    1  A    between atoms: C_1  and  S_2
REMARK    2  A    between atoms: S_2  and  C_3
REMARK    3  A    between atoms: C_5  and  C_6
REMARK    4  A    between atoms: C_14  and  C_16
REMARK    5  A    between atoms: C_19  and  C_20
REMARK                            x       y       z     vdW  Elec       q    Type
REMARK                         _______ _______ _______ _____ _____    ______ ____
ROOT
ATOM      1  C   UNL     1       6.403   5.478  18.559  0.00  0.00    +0.000 A 
ATOM      2  N   UNL     1       5.407   5.183  19.363  0.00  0.00    +0.000 NA
ATOM      3  C   UNL     1       4.398   4.807  18.507  0.00  0.00    +0.000 A 
ATOM      4  N   UNL     1       4.733   4.859  17.211  0.00  0.00    +0.000 NA
ATOM      5  N   UNL     1       6.014   5.320  17.243  0.00  0.00    +0.000 N 
ATOM      6  C   UNL     1       6.687   5.570  16.035  0.00  0.00    +0.000 C 
ATOM      7  O   UNL     1       7.592   6.405  16.039  0.00  0.00    +0.000 OA
ENDROOT
BRANCH   6   8
ATOM      8  C   UNL     1       6.373   4.876  14.751  0.00  0.00    +0.000 A 
ATOM      9  C   UNL     1       7.340   4.816  13.738  0.00  0.00    +0.000 A 
ATOM     10  C   UNL     1       7.109   4.066  12.581  0.00  0.00    +0.000 A 
ATOM     11  C   UNL     1       5.915   3.356  12.421  0.00  0.00    +0.000 A 
ATOM     12  C   UNL     1       5.681   2.488  11.218  0.00  0.00    +0.000 C 
ATOM     13  C   UNL     1       4.940   3.432  13.424  0.00  0.00    +0.000 A 
ATOM     14  C   UNL     1       5.165   4.190  14.579  0.00  0.00    +0.000 A 
ENDBRANCH   6   8
BRANCH   3  15
ATOM     15  C   UNL     1       3.102   4.324  18.976  0.00  0.00    +0.000 A 
ATOM     16  C   UNL     1       2.670   4.593  20.281  0.00  0.00    +0.000 A 
ATOM     17  C   UNL     1       1.444   4.103  20.740  0.00  0.00    +0.000 A 
ATOM     18  C   UNL     1       0.637   3.339  19.899  0.00  0.00    +0.000 A 
ATOM     19  C   UNL     1       1.052   3.066  18.598  0.00  0.00    +0.000 A 
ATOM     20  C   UNL     1       2.276   3.558  18.138  0.00  0.00    +0.000 A 
ENDBRANCH   3  15
BRANCH   1  22
ATOM     21  C   UNL     1       8.214   7.544  18.721  0.00  0.00    +0.000 C 
ATOM     22  S   UNL     1       8.033   5.781  19.070  0.00  0.00    +0.000 S 
ENDBRANCH   1  22
TORSDOF 3
ENDMDL
