MODEL 1
REMARK VINA RESULT:      -8.5      0.000      0.000
REMARK  Name = 
REMARK  10 active torsions:
REMARK  status: ('A' for Active; 'I' for Inactive)
REMARK    1  A    between atoms: C_1  and  C_2
REMARK    2  A    between atoms: C_5  and  S_6
REMARK    3  A    between atoms: S_6  and  O_9
REMARK    4  A    between atoms: O_9  and  C_10
REMARK    5  A    between atoms: C_13  and  C_14
REMARK    6  A    between atoms: N_15  and  N_16
REMARK    7  A    between atoms: C_21  and  C_22
REMARK    8  A    between atoms: C_22  and  C_23
REMARK    9  A    between atoms: C_23  and  O_25
REMARK   10  A    between atoms: C_30  and  N_31
REMARK                            x       y       z     vdW  Elec       q    Type
REMARK                         _______ _______ _______ _____ _____    ______ ____
ROOT
ATOM      1  C   UNL     1       2.160   6.861  19.969  0.00  0.00    +0.000 A 
ATOM      2  C   UNL     1       2.435   7.157  18.633  0.00  0.00    +0.000 A 
ATOM      3  C   UNL     1       2.050   8.379  18.083  0.00  0.00    +0.000 A 
ATOM      4  C   UNL     1       1.372   9.324  18.858  0.00  0.00    +0.000 A 
ATOM      5  C   UNL     1       1.062   9.031  20.188  0.00  0.00    +0.000 A 
ATOM      6  C   UNL     1       1.453   7.795  20.739  0.00  0.00    +0.000 A 
ENDROOT
BRANCH   4   7
ATOM      7  C   UNL     1       1.030  10.634  18.255  0.00  0.00    +0.000 C 
ATOM      8  N   UNL     1       0.449  11.532  18.984  0.00  0.00    +0.000 NA
BRANCH   8   9
ATOM      9  N   UNL     1       0.072  12.697  18.386  0.00  0.00    +0.000 N 
ATOM     10  C   UNL     1       0.616  13.907  18.748  0.00  0.00    +0.000 C 
ATOM     11  N   UNL     1      -0.004  15.040  18.674  0.00  0.00    +0.000 NA
ATOM     12  C   UNL     1       0.753  16.093  19.130  0.00  0.00    +0.000 C 
ATOM     13  O   UNL     1       0.391  17.267  19.084  0.00  0.00    +0.000 OA
ATOM     14  C   UNL     1       2.124  15.727  19.662  0.00  0.00    +0.000 C 
ATOM     15  S   UNL     1       2.257  13.951  19.377  0.00  0.00    +0.000 S 
ATOM     16  H   UNL     1      -0.895  12.784  18.080  0.00  0.00    +0.000 HD
BRANCH  14  17
ATOM     17  C   UNL     1       3.205  16.573  19.005  0.00  0.00    +0.000 C 
BRANCH  17  18
ATOM     18  C   UNL     1       3.165  16.532  17.500  0.00  0.00    +0.000 C 
ATOM     19  O   UNL     1       2.723  17.437  16.810  0.00  0.00    +0.000 OA
BRANCH  18  20
ATOM     20  O   UNL     1       3.677  15.403  16.965  0.00  0.00    +0.000 OA
ATOM     21  H   UNL     1       3.277  15.104  16.121  0.00  0.00    +0.000 HD
ENDBRANCH  18  20
ENDBRANCH  17  18
ENDBRANCH  14  17
ENDBRANCH   8   9
ENDBRANCH   4   7
BRANCH   1  22
ATOM     22  O   UNL     1       2.521   5.674  20.577  0.00  0.00    +0.000 OA
BRANCH  22  23
ATOM     23  S   UNL     1       2.609   4.294  19.695  0.00  0.00    +0.000 S 
ATOM     24  O   UNL     1       1.434   4.217  18.848  0.00  0.00    +0.000 OA
ATOM     25  O   UNL     1       2.991   3.194  20.561  0.00  0.00    +0.000 OA
BRANCH  23  30
ATOM     26  C   UNL     1       7.157   4.620  15.645  0.00  0.00    +0.000 C 
ATOM     27  C   UNL     1       6.098   4.587  16.716  0.00  0.00    +0.000 A 
ATOM     28  C   UNL     1       4.847   4.053  16.358  0.00  0.00    +0.000 A 
ATOM     29  C   UNL     1       3.802   3.991  17.276  0.00  0.00    +0.000 A 
ATOM     30  C   UNL     1       3.989   4.465  18.582  0.00  0.00    +0.000 A 
ATOM     31  C   UNL     1       5.213   4.990  18.977  0.00  0.00    +0.000 A 
ATOM     32  C   UNL     1       6.274   5.056  18.041  0.00  0.00    +0.000 A 
BRANCH  32  33
ATOM     33  N   UNL     1       7.559   5.626  18.520  0.00  0.00    +0.000 N 
ATOM     34  O   UNL     1       8.316   4.916  19.187  0.00  0.00    +0.000 OA
ATOM     35  O   UNL     1       7.804   6.799  18.213  0.00  0.00    +0.000 OA
ENDBRANCH  32  33
ENDBRANCH  23  30
ENDBRANCH  22  23
ENDBRANCH   1  22
TORSDOF 9
ENDMDL
MODEL 2
REMARK VINA RESULT:      -8.3      2.802      3.790
REMARK  Name = 
REMARK  10 active torsions:
REMARK  status: ('A' for Active; 'I' for Inactive)
REMARK    1  A    between atoms: C_1  and  C_2
REMARK    2  A    between atoms: C_5  and  S_6
REMARK    3  A    between atoms: S_6  and  O_9
REMARK    4  A    between atoms: O_9  and  C_10
REMARK    5  A    between atoms: C_13  and  C_14
REMARK    6  A    between atoms: N_15  and  N_16
REMARK    7  A    between atoms: C_21  and  C_22
REMARK    8  A    between atoms: C_22  and  C_23
REMARK    9  A    between atoms: C_23  and  O_25
REMARK   10  A    between atoms: C_30  and  N_31
REMARK                            x       y       z     vdW  Elec       q    Type
REMARK                         _______ _______ _______ _____ _____    ______ ____
ROOT
ATOM      1  C   UNL     1       2.308   4.735  19.140  0.00  0.00    +0.000 A 
ATOM      2  C   UNL     1       2.191   5.338  17.888  0.00  0.00    +0.000 A 
ATOM      3  C   UNL     1       2.072   6.723  17.774  0.00  0.00    +0.000 A 
ATOM      4  C   UNL     1       2.055   7.529  18.914  0.00  0.00    +0.000 A 
ATOM      5  C   UNL     1       2.141   6.939  20.177  0.00  0.00    +0.000 A 
ATOM      6  C   UNL     1       2.262   5.540  20.287  0.00  0.00    +0.000 A 
ENDROOT
BRANCH   4   7
ATOM      7  C   UNL     1       1.985   9.000  18.751  0.00  0.00    +0.000 C 
ATOM      8  N   UNL     1       0.849   9.549  18.460  0.00  0.00    +0.000 NA
BRANCH   8   9
ATOM      9  N   UNL     1       0.826  10.893  18.236  0.00  0.00    +0.000 N 
ATOM     10  C   UNL     1       0.222  11.765  19.112  0.00  0.00    +0.000 C 
ATOM     11  N   UNL     1      -0.323  12.887  18.770  0.00  0.00    +0.000 NA
ATOM     12  C   UNL     1      -0.887  13.552  19.831  0.00  0.00    +0.000 C 
ATOM     13  O   UNL     1      -1.393  14.669  19.749  0.00  0.00    +0.000 OA
ATOM     14  C   UNL     1      -0.803  12.838  21.165  0.00  0.00    +0.000 C 
ATOM     15  S   UNL     1       0.149  11.346  20.818  0.00  0.00    +0.000 S 
ATOM     16  H   UNL     1       0.770  11.215  17.271  0.00  0.00    +0.000 HD
BRANCH  14  17
ATOM     17  C   UNL     1      -0.215  13.748  22.234  0.00  0.00    +0.000 C 
BRANCH  17  18
ATOM     18  C   UNL     1      -1.121  13.936  23.424  0.00  0.00    +0.000 C 
ATOM     19  O   UNL     1      -0.853  14.659  24.370  0.00  0.00    +0.000 OA
BRANCH  18  20
ATOM     20  O   UNL     1      -2.275  13.240  23.354  0.00  0.00    +0.000 OA
ATOM     21  H   UNL     1      -3.099  13.754  23.490  0.00  0.00    +0.000 HD
ENDBRANCH  18  20
ENDBRANCH  17  18
ENDBRANCH  14  17
ENDBRANCH   8   9
ENDBRANCH   4   7
BRANCH   1  22
ATOM     22  O   UNL     1       2.438   3.372  19.322  0.00  0.00    +0.000 OA
BRANCH  22  23
ATOM     23  S   UNL     1       3.862   2.632  18.984  0.00  0.00    +0.000 S 
ATOM     24  O   UNL     1       3.681   1.806  17.806  0.00  0.00    +0.000 OA
ATOM     25  O   UNL     1       4.425   2.091  20.208  0.00  0.00    +0.000 OA
BRANCH  23  30
ATOM     26  C   UNL     1       7.793   7.117  17.708  0.00  0.00    +0.000 C 
ATOM     27  C   UNL     1       6.812   5.993  17.918  0.00  0.00    +0.000 A 
ATOM     28  C   UNL     1       6.522   5.641  19.249  0.00  0.00    +0.000 A 
ATOM     29  C   UNL     1       5.636   4.608  19.543  0.00  0.00    +0.000 A 
ATOM     30  C   UNL     1       5.017   3.900  18.504  0.00  0.00    +0.000 A 
ATOM     31  C   UNL     1       5.269   4.224  17.177  0.00  0.00    +0.000 A 
ATOM     32  C   UNL     1       6.173   5.273  16.878  0.00  0.00    +0.000 A 
BRANCH  32  33
ATOM     33  N   UNL     1       6.404   5.575  15.443  0.00  0.00    +0.000 N 
ATOM     34  O   UNL     1       5.586   6.278  14.842  0.00  0.00    +0.000 OA
ATOM     35  O   UNL     1       7.420   5.101  14.923  0.00  0.00    +0.000 OA
ENDBRANCH  32  33
ENDBRANCH  23  30
ENDBRANCH  22  23
ENDBRANCH   1  22
TORSDOF 9
ENDMDL
MODEL 3
REMARK VINA RESULT:      -8.3      3.205      4.318
REMARK  Name = 
REMARK  10 active torsions:
REMARK  status: ('A' for Active; 'I' for Inactive)
REMARK    1  A    between atoms: C_1  and  C_2
REMARK    2  A    between atoms: C_5  and  S_6
REMARK    3  A    between atoms: S_6  and  O_9
REMARK    4  A    between atoms: O_9  and  C_10
REMARK    5  A    between atoms: C_13  and  C_14
REMARK    6  A    between atoms: N_15  and  N_16
REMARK    7  A    between atoms: C_21  and  C_22
REMARK    8  A    between atoms: C_22  and  C_23
REMARK    9  A    between atoms: C_23  and  O_25
REMARK   10  A    between atoms: C_30  and  N_31
REMARK                            x       y       z     vdW  Elec       q    Type
REMARK                         _______ _______ _______ _____ _____    ______ ____
ROOT
ATOM      1  C   UNL     1       2.399   4.246  19.320  0.00  0.00    +0.000 A 
ATOM      2  C   UNL     1       2.294   5.102  18.223  0.00  0.00    +0.000 A 
ATOM      3  C   UNL     1       2.083   6.468  18.406  0.00  0.00    +0.000 A 
ATOM      4  C   UNL     1       1.963   7.002  19.691  0.00  0.00    +0.000 A 
ATOM      5  C   UNL     1       2.036   6.154  20.799  0.00  0.00    +0.000 A 
ATOM      6  C   UNL     1       2.249   4.775  20.610  0.00  0.00    +0.000 A 
ENDROOT
BRANCH   4   7
ATOM      7  C   UNL     1       1.797   8.466  19.847  0.00  0.00    +0.000 C 
ATOM      8  N   UNL     1       1.025   8.918  20.782  0.00  0.00    +0.000 NA
BRANCH   8   9
ATOM      9  N   UNL     1       0.826  10.264  20.855  0.00  0.00    +0.000 N 
ATOM     10  C   UNL     1       0.070  10.937  19.924  0.00  0.00    +0.000 C 
ATOM     11  N   UNL     1       0.257  12.170  19.581  0.00  0.00    +0.000 NA
ATOM     12  C   UNL     1      -0.613  12.591  18.605  0.00  0.00    +0.000 C 
ATOM     13  O   UNL     1      -0.662  13.745  18.183  0.00  0.00    +0.000 OA
ATOM     14  C   UNL     1      -1.578  11.540  18.096  0.00  0.00    +0.000 C 
ATOM     15  S   UNL     1      -1.236  10.087  19.109  0.00  0.00    +0.000 S 
ATOM     16  H   UNL     1       1.580  10.838  21.228  0.00  0.00    +0.000 HD
BRANCH  14  17
ATOM     17  C   UNL     1      -3.012  12.045  18.149  0.00  0.00    +0.000 C 
BRANCH  17  18
ATOM     18  C   UNL     1      -3.869  11.536  17.019  0.00  0.00    +0.000 C 
ATOM     19  O   UNL     1      -5.020  11.154  17.162  0.00  0.00    +0.000 OA
BRANCH  18  20
ATOM     20  O   UNL     1      -3.257  11.546  15.816  0.00  0.00    +0.000 OA
ATOM     21  H   UNL     1      -2.587  12.248  15.678  0.00  0.00    +0.000 HD
ENDBRANCH  18  20
ENDBRANCH  17  18
ENDBRANCH  14  17
ENDBRANCH   8   9
ENDBRANCH   4   7
BRANCH   1  22
ATOM     22  O   UNL     1       2.615   2.887  19.209  0.00  0.00    +0.000 OA
BRANCH  22  23
ATOM     23  S   UNL     1       4.126   2.318  18.916  0.00  0.00    +0.000 S 
ATOM     24  O   UNL     1       4.074   1.463  17.746  0.00  0.00    +0.000 OA
ATOM     25  O   UNL     1       4.716   1.861  20.161  0.00  0.00    +0.000 OA
BRANCH  23  30
ATOM     26  C   UNL     1       7.540   7.217  17.679  0.00  0.00    +0.000 C 
ATOM     27  C   UNL     1       6.687   5.991  17.879  0.00  0.00    +0.000 A 
ATOM     28  C   UNL     1       6.444   5.594  19.206  0.00  0.00    +0.000 A 
ATOM     29  C   UNL     1       5.677   4.468  19.492  0.00  0.00    +0.000 A 
ATOM     30  C   UNL     1       5.133   3.709  18.447  0.00  0.00    +0.000 A 
ATOM     31  C   UNL     1       5.343   4.074  17.123  0.00  0.00    +0.000 A 
ATOM     32  C   UNL     1       6.126   5.218  16.833  0.00  0.00    +0.000 A 
BRANCH  32  33
ATOM     33  N   UNL     1       6.315   5.559  15.401  0.00  0.00    +0.000 N 
ATOM     34  O   UNL     1       5.427   6.182  14.813  0.00  0.00    +0.000 OA
ATOM     35  O   UNL     1       7.372   5.198  14.870  0.00  0.00    +0.000 OA
ENDBRANCH  32  33
ENDBRANCH  23  30
ENDBRANCH  22  23
ENDBRANCH   1  22
TORSDOF 9
ENDMDL
MODEL 4
REMARK VINA RESULT:      -8.3      3.084      4.210
REMARK  Name = 
REMARK  10 active torsions:
REMARK  status: ('A' for Active; 'I' for Inactive)
REMARK    1  A    between atoms: C_1  and  C_2
REMARK    2  A    between atoms: C_5  and  S_6
REMARK    3  A    between atoms: S_6  and  O_9
REMARK    4  A    between atoms: O_9  and  C_10
REMARK    5  A    between atoms: C_13  and  C_14
REMARK    6  A    between atoms: N_15  and  N_16
REMARK    7  A    between atoms: C_21  and  C_22
REMARK    8  A    between atoms: C_22  and  C_23
REMARK    9  A    between atoms: C_23  and  O_25
REMARK   10  A    between atoms: C_30  and  N_31
REMARK                            x       y       z     vdW  Elec       q    Type
REMARK                         _______ _______ _______ _____ _____    ______ ____
ROOT
ATOM      1  C   UNL     1       2.067   4.713  19.108  0.00  0.00    +0.000 A 
ATOM      2  C   UNL     1       2.160   5.618  18.050  0.00  0.00    +0.000 A 
ATOM      3  C   UNL     1       2.094   6.991  18.281  0.00  0.00    +0.000 A 
ATOM      4  C   UNL     1       1.921   7.484  19.577  0.00  0.00    +0.000 A 
ATOM      5  C   UNL     1       1.796   6.592  20.644  0.00  0.00    +0.000 A 
ATOM      6  C   UNL     1       1.864   5.205  20.405  0.00  0.00    +0.000 A 
ENDROOT
BRANCH   4   7
ATOM      7  C   UNL     1       1.913   8.951  19.790  0.00  0.00    +0.000 C 
ATOM      8  N   UNL     1       1.272   9.707  18.958  0.00  0.00    +0.000 NA
BRANCH   8   9
ATOM      9  N   UNL     1       1.347  11.057  19.129  0.00  0.00    +0.000 N 
ATOM     10  C   UNL     1       0.271  11.793  19.568  0.00  0.00    +0.000 C 
ATOM     11  N   UNL     1       0.052  13.028  19.254  0.00  0.00    +0.000 NA
ATOM     12  C   UNL     1      -1.110  13.519  19.798  0.00  0.00    +0.000 C 
ATOM     13  O   UNL     1      -1.477  14.688  19.691  0.00  0.00    +0.000 OA
ATOM     14  C   UNL     1      -1.919  12.527  20.609  0.00  0.00    +0.000 C 
ATOM     15  S   UNL     1      -0.917  11.027  20.613  0.00  0.00    +0.000 S 
ATOM     16  H   UNL     1       1.944  11.585  18.495  0.00  0.00    +0.000 HD
BRANCH  14  17
ATOM     17  C   UNL     1      -2.251  13.089  21.983  0.00  0.00    +0.000 C 
BRANCH  17  18
ATOM     18  C   UNL     1      -3.430  12.417  22.637  0.00  0.00    +0.000 C 
ATOM     19  O   UNL     1      -4.575  12.504  22.220  0.00  0.00    +0.000 OA
BRANCH  18  20
ATOM     20  O   UNL     1      -3.115  11.689  23.729  0.00  0.00    +0.000 OA
ATOM     21  H   UNL     1      -3.726  11.766  24.491  0.00  0.00    +0.000 HD
ENDBRANCH  18  20
ENDBRANCH  17  18
ENDBRANCH  14  17
ENDBRANCH   8   9
ENDBRANCH   4   7
BRANCH   1  22
ATOM     22  O   UNL     1       2.133   3.343  18.949  0.00  0.00    +0.000 OA
BRANCH  22  23
ATOM     23  S   UNL     1       3.591   2.591  18.909  0.00  0.00    +0.000 S 
ATOM     24  O   UNL     1       3.587   1.644  17.812  0.00  0.00    +0.000 OA
ATOM     25  O   UNL     1       3.961   2.190  20.254  0.00  0.00    +0.000 OA
BRANCH  23  30
ATOM     26  C   UNL     1       7.712   6.945  17.789  0.00  0.00    +0.000 C 
ATOM     27  C   UNL     1       6.690   5.851  17.961  0.00  0.00    +0.000 A 
ATOM     28  C   UNL     1       6.304   5.541  19.277  0.00  0.00    +0.000 A 
ATOM     29  C   UNL     1       5.374   4.538  19.537  0.00  0.00    +0.000 A 
ATOM     30  C   UNL     1       4.807   3.819  18.477  0.00  0.00    +0.000 A 
ATOM     31  C   UNL     1       5.155   4.101  17.162  0.00  0.00    +0.000 A 
ATOM     32  C   UNL     1       6.104   5.120  16.898  0.00  0.00    +0.000 A 
BRANCH  32  33
ATOM     33  N   UNL     1       6.437   5.378  15.475  0.00  0.00    +0.000 N 
ATOM     34  O   UNL     1       7.457   4.870  14.999  0.00  0.00    +0.000 OA
ATOM     35  O   UNL     1       5.659   6.094  14.834  0.00  0.00    +0.000 OA
ENDBRANCH  32  33
ENDBRANCH  23  30
ENDBRANCH  22  23
ENDBRANCH   1  22
TORSDOF 9
ENDMDL
MODEL 5
REMARK VINA RESULT:      -8.2      3.190      4.340
REMARK  Name = 
REMARK  10 active torsions:
REMARK  status: ('A' for Active; 'I' for Inactive)
REMARK    1  A    between atoms: C_1  and  C_2
REMARK    2  A    between atoms: C_5  and  S_6
REMARK    3  A    between atoms: S_6  and  O_9
REMARK    4  A    between atoms: O_9  and  C_10
REMARK    5  A    between atoms: C_13  and  C_14
REMARK    6  A    between atoms: N_15  and  N_16
REMARK    7  A    between atoms: C_21  and  C_22
REMARK    8  A    between atoms: C_22  and  C_23
REMARK    9  A    between atoms: C_23  and  O_25
REMARK   10  A    between atoms: C_30  and  N_31
REMARK                            x       y       z     vdW  Elec       q    Type
REMARK                         _______ _______ _______ _____ _____    ______ ____
ROOT
ATOM      1  C   UNL     1       2.233   4.449  19.197  0.00  0.00    +0.000 A 
ATOM      2  C   UNL     1       2.081   4.964  20.485  0.00  0.00    +0.000 A 
ATOM      3  C   UNL     1       1.938   6.336  20.689  0.00  0.00    +0.000 A 
ATOM      4  C   UNL     1       1.955   7.219  19.608  0.00  0.00    +0.000 A 
ATOM      5  C   UNL     1       2.135   6.724  18.315  0.00  0.00    +0.000 A 
ATOM      6  C   UNL     1       2.280   5.337  18.113  0.00  0.00    +0.000 A 
ENDROOT
BRANCH   4   7
ATOM      7  C   UNL     1       1.743   8.665  19.859  0.00  0.00    +0.000 C 
ATOM      8  N   UNL     1       1.054   9.031  20.892  0.00  0.00    +0.000 NA
BRANCH   8   9
ATOM      9  N   UNL     1       0.804  10.360  21.058  0.00  0.00    +0.000 N 
ATOM     10  C   UNL     1       0.046  11.074  20.159  0.00  0.00    +0.000 C 
ATOM     11  N   UNL     1       0.196  12.334  19.912  0.00  0.00    +0.000 NA
ATOM     12  C   UNL     1      -0.666  12.796  18.948  0.00  0.00    +0.000 C 
ATOM     13  O   UNL     1      -0.748  13.975  18.609  0.00  0.00    +0.000 OA
ATOM     14  C   UNL     1      -1.580  11.752  18.338  0.00  0.00    +0.000 C 
ATOM     15  S   UNL     1      -1.209  10.241  19.251  0.00  0.00    +0.000 S 
ATOM     16  H   UNL     1       1.528  10.930  21.492  0.00  0.00    +0.000 HD
BRANCH  14  17
ATOM     17  C   UNL     1      -3.032  12.202  18.392  0.00  0.00    +0.000 C 
BRANCH  17  18
ATOM     18  C   UNL     1      -3.941  11.398  17.498  0.00  0.00    +0.000 C 
ATOM     19  O   UNL     1      -3.834  11.358  16.283  0.00  0.00    +0.000 OA
BRANCH  18  20
ATOM     20  O   UNL     1      -4.891  10.704  18.161  0.00  0.00    +0.000 OA
ATOM     21  H   UNL     1      -5.780  11.116  18.199  0.00  0.00    +0.000 HD
ENDBRANCH  18  20
ENDBRANCH  17  18
ENDBRANCH  14  17
ENDBRANCH   8   9
ENDBRANCH   4   7
BRANCH   1  22
ATOM     22  O   UNL     1       2.370   3.102  18.925  0.00  0.00    +0.000 OA
BRANCH  22  23
ATOM     23  S   UNL     1       3.865   2.435  18.821  0.00  0.00    +0.000 S 
ATOM     24  O   UNL     1       3.884   1.530  17.688  0.00  0.00    +0.000 OA
ATOM     25  O   UNL     1       4.292   2.004  20.140  0.00  0.00    +0.000 OA
BRANCH  23  30
ATOM     26  C   UNL     1       7.714   7.048  17.772  0.00  0.00    +0.000 C 
ATOM     27  C   UNL     1       6.757   5.894  17.926  0.00  0.00    +0.000 A 
ATOM     28  C   UNL     1       6.430   5.508  19.238  0.00  0.00    +0.000 A 
ATOM     29  C   UNL     1       5.563   4.446  19.481  0.00  0.00    +0.000 A 
ATOM     30  C   UNL     1       5.000   3.743  18.407  0.00  0.00    +0.000 A 
ATOM     31  C   UNL     1       5.291   4.100  17.096  0.00  0.00    +0.000 A 
ATOM     32  C   UNL     1       6.176   5.178  16.850  0.00  0.00    +0.000 A 
BRANCH  32  33
ATOM     33  N   UNL     1       6.449   5.514  15.430  0.00  0.00    +0.000 N 
ATOM     34  O   UNL     1       7.529   5.181  14.934  0.00  0.00    +0.000 OA
ATOM     35  O   UNL     1       5.562   6.115  14.812  0.00  0.00    +0.000 OA
ENDBRANCH  32  33
ENDBRANCH  23  30
ENDBRANCH  22  23
ENDBRANCH   1  22
TORSDOF 9
ENDMDL
MODEL 6
REMARK VINA RESULT:      -8.1      4.342      7.011
REMARK  Name = 
REMARK  10 active torsions:
REMARK  status: ('A' for Active; 'I' for Inactive)
REMARK    1  A    between atoms: C_1  and  C_2
REMARK    2  A    between atoms: C_5  and  S_6
REMARK    3  A    between atoms: S_6  and  O_9
REMARK    4  A    between atoms: O_9  and  C_10
REMARK    5  A    between atoms: C_13  and  C_14
REMARK    6  A    between atoms: N_15  and  N_16
REMARK    7  A    between atoms: C_21  and  C_22
REMARK    8  A    between atoms: C_22  and  C_23
REMARK    9  A    between atoms: C_23  and  O_25
REMARK   10  A    between atoms: C_30  and  N_31
REMARK                            x       y       z     vdW  Elec       q    Type
REMARK                         _______ _______ _______ _____ _____    ______ ____
ROOT
ATOM      1  C   UNL     1       5.565   5.257  17.206  0.00  0.00    +0.000 A 
ATOM      2  C   UNL     1       6.369   4.794  18.249  0.00  0.00    +0.000 A 
ATOM      3  C   UNL     1       7.373   5.601  18.784  0.00  0.00    +0.000 A 
ATOM      4  C   UNL     1       7.598   6.883  18.277  0.00  0.00    +0.000 A 
ATOM      5  C   UNL     1       6.822   7.351  17.214  0.00  0.00    +0.000 A 
ATOM      6  C   UNL     1       5.809   6.533  16.677  0.00  0.00    +0.000 A 
ENDROOT
BRANCH   4   7
ATOM      7  C   UNL     1       8.636   7.732  18.910  0.00  0.00    +0.000 C 
ATOM      8  N   UNL     1       8.576   9.016  18.763  0.00  0.00    +0.000 NA
BRANCH   8   9
ATOM      9  N   UNL     1       9.584   9.769  19.285  0.00  0.00    +0.000 N 
ATOM     10  C   UNL     1       9.953  10.973  18.732  0.00  0.00    +0.000 C 
ATOM     11  N   UNL     1      11.150  11.463  18.775  0.00  0.00    +0.000 NA
ATOM     12  C   UNL     1      11.259  12.663  18.116  0.00  0.00    +0.000 C 
ATOM     13  O   UNL     1      12.284  13.341  18.092  0.00  0.00    +0.000 OA
ATOM     14  C   UNL     1       9.993  13.153  17.441  0.00  0.00    +0.000 C 
ATOM     15  S   UNL     1       8.745  11.928  17.883  0.00  0.00    +0.000 S 
ATOM     16  H   UNL     1      10.371   9.282  19.711  0.00  0.00    +0.000 HD
BRANCH  14  17
ATOM     17  C   UNL     1       9.674  14.582  17.854  0.00  0.00    +0.000 C 
BRANCH  17  18
ATOM     18  C   UNL     1       8.240  14.777  18.276  0.00  0.00    +0.000 C 
ATOM     19  O   UNL     1       7.866  14.745  19.437  0.00  0.00    +0.000 OA
BRANCH  18  20
ATOM     20  O   UNL     1       7.391  15.007  17.251  0.00  0.00    +0.000 OA
ATOM     21  H   UNL     1       6.990  14.214  16.837  0.00  0.00    +0.000 HD
ENDBRANCH  18  20
ENDBRANCH  17  18
ENDBRANCH  14  17
ENDBRANCH   8   9
ENDBRANCH   4   7
BRANCH   1  22
ATOM     22  O   UNL     1       4.550   4.514  16.638  0.00  0.00    +0.000 OA
BRANCH  22  23
ATOM     23  S   UNL     1       3.301   3.988  17.563  0.00  0.00    +0.000 S 
ATOM     24  O   UNL     1       3.818   3.045  18.536  0.00  0.00    +0.000 OA
ATOM     25  O   UNL     1       2.178   3.653  16.707  0.00  0.00    +0.000 OA
BRANCH  23  30
ATOM     26  C   UNL     1       1.205   8.504  21.086  0.00  0.00    +0.000 C 
ATOM     27  C   UNL     1       1.725   7.457  20.134  0.00  0.00    +0.000 A 
ATOM     28  C   UNL     1       1.976   6.180  20.667  0.00  0.00    +0.000 A 
ATOM     29  C   UNL     1       2.469   5.151  19.869  0.00  0.00    +0.000 A 
ATOM     30  C   UNL     1       2.722   5.381  18.510  0.00  0.00    +0.000 A 
ATOM     31  C   UNL     1       2.477   6.626  17.943  0.00  0.00    +0.000 A 
ATOM     32  C   UNL     1       1.980   7.673  18.757  0.00  0.00    +0.000 A 
BRANCH  32  33
ATOM     33  N   UNL     1       1.738   8.981  18.098  0.00  0.00    +0.000 N 
ATOM     34  O   UNL     1       0.586   9.424  18.056  0.00  0.00    +0.000 OA
ATOM     35  O   UNL     1       2.719   9.564  17.624  0.00  0.00    +0.000 OA
ENDBRANCH  32  33
ENDBRANCH  23  30
ENDBRANCH  22  23
ENDBRANCH   1  22
TORSDOF 9
ENDMDL
MODEL 7
REMARK VINA RESULT:      -8.1      3.452      4.519
REMARK  Name = 
REMARK  10 active torsions:
REMARK  status: ('A' for Active; 'I' for Inactive)
REMARK    1  A    between atoms: C_1  and  C_2
REMARK    2  A    between atoms: C_5  and  S_6
REMARK    3  A    between atoms: S_6  and  O_9
REMARK    4  A    between atoms: O_9  and  C_10
REMARK    5  A    between atoms: C_13  and  C_14
REMARK    6  A    between atoms: N_15  and  N_16
REMARK    7  A    between atoms: C_21  and  C_22
REMARK    8  A    between atoms: C_22  and  C_23
REMARK    9  A    between atoms: C_23  and  O_25
REMARK   10  A    between atoms: C_30  and  N_31
REMARK                            x       y       z     vdW  Elec       q    Type
REMARK                         _______ _______ _______ _____ _____    ______ ____
ROOT
ATOM      1  C   UNL     1       2.257   6.327  20.196  0.00  0.00    +0.000 A 
ATOM      2  C   UNL     1       1.407   6.921  21.130  0.00  0.00    +0.000 A 
ATOM      3  C   UNL     1       0.869   8.186  20.897  0.00  0.00    +0.000 A 
ATOM      4  C   UNL     1       1.182   8.886  19.729  0.00  0.00    +0.000 A 
ATOM      5  C   UNL     1       2.055   8.319  18.798  0.00  0.00    +0.000 A 
ATOM      6  C   UNL     1       2.596   7.041  19.037  0.00  0.00    +0.000 A 
ENDROOT
BRANCH   4   7
ATOM      7  C   UNL     1       0.546  10.204  19.491  0.00  0.00    +0.000 C 
ATOM      8  N   UNL     1       0.810  11.186  20.291  0.00  0.00    +0.000 NA
BRANCH   8   9
ATOM      9  N   UNL     1       0.151  12.364  20.099  0.00  0.00    +0.000 N 
ATOM     10  C   UNL     1      -1.049  12.633  20.714  0.00  0.00    +0.000 C 
ATOM     11  N   UNL     1      -1.971  13.394  20.220  0.00  0.00    +0.000 NA
ATOM     12  C   UNL     1      -3.085  13.470  21.019  0.00  0.00    +0.000 C 
ATOM     13  O   UNL     1      -4.051  14.192  20.781  0.00  0.00    +0.000 OA
ATOM     14  C   UNL     1      -3.041  12.630  22.280  0.00  0.00    +0.000 C 
ATOM     15  S   UNL     1      -1.394  11.893  22.271  0.00  0.00    +0.000 S 
ATOM     16  H   UNL     1       0.226  12.807  19.185  0.00  0.00    +0.000 HD
BRANCH  14  17
ATOM     17  C   UNL     1      -3.369  13.470  23.505  0.00  0.00    +0.000 C 
BRANCH  17  18
ATOM     18  C   UNL     1      -4.628  13.035  24.210  0.00  0.00    +0.000 C 
ATOM     19  O   UNL     1      -4.795  11.916  24.667  0.00  0.00    +0.000 OA
BRANCH  18  20
ATOM     20  O   UNL     1      -5.567  14.001  24.307  0.00  0.00    +0.000 OA
ATOM     21  H   UNL     1      -6.190  13.923  25.059  0.00  0.00    +0.000 HD
ENDBRANCH  18  20
ENDBRANCH  17  18
ENDBRANCH  14  17
ENDBRANCH   8   9
ENDBRANCH   4   7
BRANCH   1  22
ATOM     22  O   UNL     1       2.816   5.075  20.361  0.00  0.00    +0.000 OA
BRANCH  22  23
ATOM     23  S   UNL     1       2.663   3.947  19.180  0.00  0.00    +0.000 S 
ATOM     24  O   UNL     1       1.444   4.219  18.443  0.00  0.00    +0.000 OA
ATOM     25  O   UNL     1       2.935   2.633  19.734  0.00  0.00    +0.000 OA
BRANCH  23  30
ATOM     26  C   UNL     1       7.008   4.628  14.956  0.00  0.00    +0.000 C 
ATOM     27  C   UNL     1       6.004   4.495  16.072  0.00  0.00    +0.000 A 
ATOM     28  C   UNL     1       4.713   4.062  15.719  0.00  0.00    +0.000 A 
ATOM     29  C   UNL     1       3.715   3.919  16.679  0.00  0.00    +0.000 A 
ATOM     30  C   UNL     1       3.990   4.209  18.022  0.00  0.00    +0.000 A 
ATOM     31  C   UNL     1       5.256   4.631  18.412  0.00  0.00    +0.000 A 
ATOM     32  C   UNL     1       6.270   4.779  17.434  0.00  0.00    +0.000 A 
BRANCH  32  33
ATOM     33  N   UNL     1       7.601   5.231  17.909  0.00  0.00    +0.000 N 
ATOM     34  O   UNL     1       7.902   6.424  17.797  0.00  0.00    +0.000 OA
ATOM     35  O   UNL     1       8.345   4.376  18.402  0.00  0.00    +0.000 OA
ENDBRANCH  32  33
ENDBRANCH  23  30
ENDBRANCH  22  23
ENDBRANCH   1  22
TORSDOF 9
ENDMDL
MODEL 8
REMARK VINA RESULT:      -8.1      2.542      3.142
REMARK  Name = 
REMARK  10 active torsions:
REMARK  status: ('A' for Active; 'I' for Inactive)
REMARK    1  A    between atoms: C_1  and  C_2
REMARK    2  A    between atoms: C_5  and  S_6
REMARK    3  A    between atoms: S_6  and  O_9
REMARK    4  A    between atoms: O_9  and  C_10
REMARK    5  A    between atoms: C_13  and  C_14
REMARK    6  A    between atoms: N_15  and  N_16
REMARK    7  A    between atoms: C_21  and  C_22
REMARK    8  A    between atoms: C_22  and  C_23
REMARK    9  A    between atoms: C_23  and  O_25
REMARK   10  A    between atoms: C_30  and  N_31
REMARK                            x       y       z     vdW  Elec       q    Type
REMARK                         _______ _______ _______ _____ _____    ______ ____
ROOT
ATOM      1  C   UNL     1       2.269   4.856  19.108  0.00  0.00    +0.000 A 
ATOM      2  C   UNL     1       2.180   5.388  17.822  0.00  0.00    +0.000 A 
ATOM      3  C   UNL     1       2.101   6.766  17.627  0.00  0.00    +0.000 A 
ATOM      4  C   UNL     1       2.099   7.638  18.718  0.00  0.00    +0.000 A 
ATOM      5  C   UNL     1       2.159   7.121  20.014  0.00  0.00    +0.000 A 
ATOM      6  C   UNL     1       2.238   5.728  20.206  0.00  0.00    +0.000 A 
ENDROOT
BRANCH   4   7
ATOM      7  C   UNL     1       2.073   9.099  18.469  0.00  0.00    +0.000 C 
ATOM      8  N   UNL     1       1.043   9.785  18.850  0.00  0.00    +0.000 NA
BRANCH   8   9
ATOM      9  N   UNL     1       1.007  11.111  18.538  0.00  0.00    +0.000 N 
ATOM     10  C   UNL     1       0.373  12.029  19.343  0.00  0.00    +0.000 C 
ATOM     11  N   UNL     1      -0.179  13.119  18.918  0.00  0.00    +0.000 NA
ATOM     12  C   UNL     1      -0.773  13.843  19.923  0.00  0.00    +0.000 C 
ATOM     13  O   UNL     1      -1.292  14.945  19.759  0.00  0.00    +0.000 OA
ATOM     14  C   UNL     1      -0.707  13.219  21.302  0.00  0.00    +0.000 C 
ATOM     15  S   UNL     1       0.272  11.721  21.071  0.00  0.00    +0.000 S 
ATOM     16  H   UNL     1       0.966  11.368  17.553  0.00  0.00    +0.000 HD
BRANCH  14  17
ATOM     17  C   UNL     1      -0.153  14.204  22.320  0.00  0.00    +0.000 C 
BRANCH  17  18
ATOM     18  C   UNL     1       1.155  14.825  21.902  0.00  0.00    +0.000 C 
ATOM     19  O   UNL     1       2.233  14.262  22.000  0.00  0.00    +0.000 OA
BRANCH  18  20
ATOM     20  O   UNL     1       1.036  16.070  21.392  0.00  0.00    +0.000 OA
ATOM     21  H   UNL     1       1.830  16.640  21.455  0.00  0.00    +0.000 HD
ENDBRANCH  18  20
ENDBRANCH  17  18
ENDBRANCH  14  17
ENDBRANCH   8   9
ENDBRANCH   4   7
BRANCH   1  22
ATOM     22  O   UNL     1       2.358   3.503  19.370  0.00  0.00    +0.000 OA
BRANCH  22  23
ATOM     23  S   UNL     1       3.764   2.704  19.093  0.00  0.00    +0.000 S 
ATOM     24  O   UNL     1       3.577   1.834  17.948  0.00  0.00    +0.000 OA
ATOM     25  O   UNL     1       4.287   2.201  20.350  0.00  0.00    +0.000 OA
BRANCH  23  30
ATOM     26  C   UNL     1       7.846   7.014  17.694  0.00  0.00    +0.000 C 
ATOM     27  C   UNL     1       6.832   5.927  17.935  0.00  0.00    +0.000 A 
ATOM     28  C   UNL     1       6.472   5.677  19.272  0.00  0.00    +0.000 A 
ATOM     29  C   UNL     1       5.551   4.684  19.596  0.00  0.00    +0.000 A 
ATOM     30  C   UNL     1       4.967   3.914  18.581  0.00  0.00    +0.000 A 
ATOM     31  C   UNL     1       5.289   4.136  17.248  0.00  0.00    +0.000 A 
ATOM     32  C   UNL     1       6.229   5.145  16.919  0.00  0.00    +0.000 A 
BRANCH  32  33
ATOM     33  N   UNL     1       6.534   5.337  15.480  0.00  0.00    +0.000 N 
ATOM     34  O   UNL     1       5.777   6.034  14.797  0.00  0.00    +0.000 OA
ATOM     35  O   UNL     1       7.548   4.784  15.039  0.00  0.00    +0.000 OA
ENDBRANCH  32  33
ENDBRANCH  23  30
ENDBRANCH  22  23
ENDBRANCH   1  22
TORSDOF 9
ENDMDL
MODEL 9
REMARK VINA RESULT:      -8.1      3.075      4.222
REMARK  Name = 
REMARK  10 active torsions:
REMARK  status: ('A' for Active; 'I' for Inactive)
REMARK    1  A    between atoms: C_1  and  C_2
REMARK    2  A    between atoms: C_5  and  S_6
REMARK    3  A    between atoms: S_6  and  O_9
REMARK    4  A    between atoms: O_9  and  C_10
REMARK    5  A    between atoms: C_13  and  C_14
REMARK    6  A    between atoms: N_15  and  N_16
REMARK    7  A    between atoms: C_21  and  C_22
REMARK    8  A    between atoms: C_22  and  C_23
REMARK    9  A    between atoms: C_23  and  O_25
REMARK   10  A    between atoms: C_30  and  N_31
REMARK                            x       y       z     vdW  Elec       q    Type
REMARK                         _______ _______ _______ _____ _____    ______ ____
ROOT
ATOM      1  C   UNL     1       2.110   4.410  19.120  0.00  0.00    +0.000 A 
ATOM      2  C   UNL     1       2.227   5.497  18.254  0.00  0.00    +0.000 A 
ATOM      3  C   UNL     1       2.058   6.800  18.722  0.00  0.00    +0.000 A 
ATOM      4  C   UNL     1       1.758   7.037  20.066  0.00  0.00    +0.000 A 
ATOM      5  C   UNL     1       1.608   5.958  20.940  0.00  0.00    +0.000 A 
ATOM      6  C   UNL     1       1.780   4.644  20.462  0.00  0.00    +0.000 A 
ENDROOT
BRANCH   4   7
ATOM      7  C   UNL     1       1.643   8.437  20.538  0.00  0.00    +0.000 C 
ATOM      8  N   UNL     1       1.287   8.663  21.762  0.00  0.00    +0.000 NA
BRANCH   8   9
ATOM      9  N   UNL     1       1.110   9.957  22.150  0.00  0.00    +0.000 N 
ATOM     10  C   UNL     1       0.421  10.860  21.374  0.00  0.00    +0.000 C 
ATOM     11  N   UNL     1       0.651  12.133  21.352  0.00  0.00    +0.000 NA
ATOM     12  C   UNL     1      -0.155  12.805  20.466  0.00  0.00    +0.000 C 
ATOM     13  O   UNL     1      -0.159  14.027  20.335  0.00  0.00    +0.000 OA
ATOM     14  C   UNL     1      -1.110  11.940  19.669  0.00  0.00    +0.000 C 
ATOM     15  S   UNL     1      -0.853  10.275  20.314  0.00  0.00    +0.000 S 
ATOM     16  H   UNL     1       1.854  10.399  22.689  0.00  0.00    +0.000 HD
BRANCH  14  17
ATOM     17  C   UNL     1      -2.535  12.463  19.773  0.00  0.00    +0.000 C 
BRANCH  17  18
ATOM     18  C   UNL     1      -3.428  11.993  18.654  0.00  0.00    +0.000 C 
ATOM     19  O   UNL     1      -3.065  11.230  17.773  0.00  0.00    +0.000 OA
BRANCH  18  20
ATOM     20  O   UNL     1      -4.685  12.482  18.710  0.00  0.00    +0.000 OA
ATOM     21  H   UNL     1      -4.817  13.272  19.275  0.00  0.00    +0.000 HD
ENDBRANCH  18  20
ENDBRANCH  17  18
ENDBRANCH  14  17
ENDBRANCH   8   9
ENDBRANCH   4   7
BRANCH   1  22
ATOM     22  O   UNL     1       2.274   3.097  18.723  0.00  0.00    +0.000 OA
BRANCH  22  23
ATOM     23  S   UNL     1       3.769   2.424  18.712  0.00  0.00    +0.000 S 
ATOM     24  O   UNL     1       3.850   1.508  17.590  0.00  0.00    +0.000 OA
ATOM     25  O   UNL     1       4.118   2.006  20.057  0.00  0.00    +0.000 OA
BRANCH  23  30
ATOM     26  C   UNL     1       7.704   7.002  17.845  0.00  0.00    +0.000 C 
ATOM     27  C   UNL     1       6.728   5.859  17.953  0.00  0.00    +0.000 A 
ATOM     28  C   UNL     1       6.368   5.449  19.249  0.00  0.00    +0.000 A 
ATOM     29  C   UNL     1       5.481   4.395  19.451  0.00  0.00    +0.000 A 
ATOM     30  C   UNL     1       4.932   3.724  18.350  0.00  0.00    +0.000 A 
ATOM     31  C   UNL     1       5.255   4.105  17.054  0.00  0.00    +0.000 A 
ATOM     32  C   UNL     1       6.160   5.175  16.850  0.00  0.00    +0.000 A 
BRANCH  32  33
ATOM     33  N   UNL     1       6.468   5.538  15.444  0.00  0.00    +0.000 N 
ATOM     34  O   UNL     1       7.524   5.141  14.942  0.00  0.00    +0.000 OA
ATOM     35  O   UNL     1       5.633   6.224  14.842  0.00  0.00    +0.000 OA
ENDBRANCH  32  33
ENDBRANCH  23  30
ENDBRANCH  22  23
ENDBRANCH   1  22
TORSDOF 9
ENDMDL
