MODEL 1
REMARK VINA RESULT:      -7.4      0.000      0.000
REMARK  Name = 
REMARK  1 active torsions:
REMARK  status: ('A' for Active; 'I' for Inactive)
REMARK    1  A    between atoms: C_5  and  C_6
REMARK                            x       y       z     vdW  Elec       q    Type
REMARK                         _______ _______ _______ _____ _____    ______ ____
ROOT
ATOM      1  C   UNL     1       5.089   4.869  17.272  0.00  0.00    +0.000 A 
ATOM      2  C   UNL     1       5.688   5.771  18.176  0.00  0.00    +0.000 A 
ATOM      3  C   UNL     1       6.838   6.464  17.822  0.00  0.00    +0.000 A 
ATOM      4  N   UNL     1       7.485   6.356  16.648  0.00  0.00    +0.000 NA
ATOM      5  C   UNL     1       6.895   5.494  15.806  0.00  0.00    +0.000 A 
ATOM      6  N   UNL     1       7.374   5.215  14.555  0.00  0.00    +0.000 N 
ATOM      7  C   UNL     1       6.553   4.318  13.928  0.00  0.00    +0.000 A 
ATOM      8  C   UNL     1       5.521   4.026  14.794  0.00  0.00    +0.000 A 
ATOM      9  C   UNL     1       5.736   4.743  16.014  0.00  0.00    +0.000 A 
ATOM     10  H   UNL     1       8.211   5.630  14.176  0.00  0.00    +0.000 HD
ENDROOT
BRANCH   1  15
ATOM     11  C   UNL     1       1.474   4.018  18.075  0.00  0.00    +0.000 A 
ATOM     12  C   UNL     1       1.597   2.656  18.273  0.00  0.00    +0.000 A 
ATOM     13  N   UNL     1       2.768   1.999  18.180  0.00  0.00    +0.000 NA
ATOM     14  C   UNL     1       3.862   2.742  17.871  0.00  0.00    +0.000 A 
ATOM     15  C   UNL     1       3.867   4.114  17.613  0.00  0.00    +0.000 A 
ATOM     16  C   UNL     1       2.617   4.745  17.738  0.00  0.00    +0.000 A 
ENDBRANCH   1  15
TORSDOF 1
ENDMDL
MODEL 2
REMARK VINA RESULT:      -7.2      0.957      1.376
REMARK  Name = 
REMARK  1 active torsions:
REMARK  status: ('A' for Active; 'I' for Inactive)
REMARK    1  A    between atoms: C_5  and  C_6
REMARK                            x       y       z     vdW  Elec       q    Type
REMARK                         _______ _______ _______ _____ _____    ______ ____
ROOT
ATOM      1  C   UNL     1       5.124   4.518  17.861  0.00  0.00    +0.000 A 
ATOM      2  C   UNL     1       5.821   5.131  18.923  0.00  0.00    +0.000 A 
ATOM      3  C   UNL     1       7.033   5.770  18.695  0.00  0.00    +0.000 A 
ATOM      4  N   UNL     1       7.653   5.865  17.506  0.00  0.00    +0.000 NA
ATOM      5  C   UNL     1       6.971   5.276  16.512  0.00  0.00    +0.000 A 
ATOM      6  N   UNL     1       7.407   5.240  15.216  0.00  0.00    +0.000 N 
ATOM      7  C   UNL     1       6.492   4.591  14.432  0.00  0.00    +0.000 A 
ATOM      8  C   UNL     1       5.444   4.215  15.244  0.00  0.00    +0.000 A 
ATOM      9  C   UNL     1       5.743   4.615  16.585  0.00  0.00    +0.000 A 
ATOM     10  H   UNL     1       8.278   5.645  14.912  0.00  0.00    +0.000 HD
ENDROOT
BRANCH   1  15
ATOM     11  C   UNL     1       2.532   1.919  18.842  0.00  0.00    +0.000 A 
ATOM     12  C   UNL     1       1.388   2.561  18.411  0.00  0.00    +0.000 A 
ATOM     13  N   UNL     1       1.398   3.767  17.813  0.00  0.00    +0.000 NA
ATOM     14  C   UNL     1       2.611   4.354  17.644  0.00  0.00    +0.000 A 
ATOM     15  C   UNL     1       3.834   3.829  18.064  0.00  0.00    +0.000 A 
ATOM     16  C   UNL     1       3.758   2.563  18.671  0.00  0.00    +0.000 A 
ENDBRANCH   1  15
TORSDOF 1
ENDMDL
MODEL 3
REMARK VINA RESULT:      -7.2      0.916      2.457
REMARK  Name = 
REMARK  1 active torsions:
REMARK  status: ('A' for Active; 'I' for Inactive)
REMARK    1  A    between atoms: C_5  and  C_6
REMARK                            x       y       z     vdW  Elec       q    Type
REMARK                         _______ _______ _______ _____ _____    ______ ____
ROOT
ATOM      1  C   UNL     1       4.956   4.303  16.841  0.00  0.00    +0.000 A 
ATOM      2  C   UNL     1       5.210   4.285  15.454  0.00  0.00    +0.000 A 
ATOM      3  C   UNL     1       6.375   4.844  14.943  0.00  0.00    +0.000 A 
ATOM      4  N   UNL     1       7.336   5.443  15.668  0.00  0.00    +0.000 NA
ATOM      5  C   UNL     1       7.072   5.447  16.983  0.00  0.00    +0.000 A 
ATOM      6  N   UNL     1       7.901   6.005  17.917  0.00  0.00    +0.000 N 
ATOM      7  C   UNL     1       7.377   5.837  19.170  0.00  0.00    +0.000 A 
ATOM      8  C   UNL     1       6.192   5.146  19.033  0.00  0.00    +0.000 A 
ATOM      9  C   UNL     1       5.961   4.914  17.640  0.00  0.00    +0.000 A 
ATOM     10  H   UNL     1       8.769   6.463  17.686  0.00  0.00    +0.000 HD
ENDROOT
BRANCH   1  15
ATOM     11  C   UNL     1       1.412   3.916  18.154  0.00  0.00    +0.000 A 
ATOM     12  C   UNL     1       1.451   2.588  18.532  0.00  0.00    +0.000 A 
ATOM     13  N   UNL     1       2.546   1.815  18.407  0.00  0.00    +0.000 NA
ATOM     14  C   UNL     1       3.649   2.402  17.874  0.00  0.00    +0.000 A 
ATOM     15  C   UNL     1       3.730   3.721  17.421  0.00  0.00    +0.000 A 
ATOM     16  C   UNL     1       2.558   4.479  17.591  0.00  0.00    +0.000 A 
ENDBRANCH   1  15
TORSDOF 1
ENDMDL
MODEL 4
REMARK VINA RESULT:      -7.0      1.131      2.740
REMARK  Name = 
REMARK  1 active torsions:
REMARK  status: ('A' for Active; 'I' for Inactive)
REMARK    1  A    between atoms: C_5  and  C_6
REMARK                            x       y       z     vdW  Elec       q    Type
REMARK                         _______ _______ _______ _____ _____    ______ ____
ROOT
ATOM      1  C   UNL     1       4.937   4.231  16.807  0.00  0.00    +0.000 A 
ATOM      2  C   UNL     1       5.178   4.227  15.418  0.00  0.00    +0.000 A 
ATOM      3  C   UNL     1       6.325   4.814  14.899  0.00  0.00    +0.000 A 
ATOM      4  N   UNL     1       7.280   5.430  15.619  0.00  0.00    +0.000 NA
ATOM      5  C   UNL     1       7.028   5.420  16.937  0.00  0.00    +0.000 A 
ATOM      6  N   UNL     1       7.855   5.989  17.866  0.00  0.00    +0.000 N 
ATOM      7  C   UNL     1       7.346   5.803  19.123  0.00  0.00    +0.000 A 
ATOM      8  C   UNL     1       6.175   5.087  18.992  0.00  0.00    +0.000 A 
ATOM      9  C   UNL     1       5.936   4.858  17.600  0.00  0.00    +0.000 A 
ATOM     10  H   UNL     1       8.710   6.468  17.629  0.00  0.00    +0.000 HD
ENDROOT
BRANCH   1  15
ATOM     11  C   UNL     1       2.603   1.768  18.518  0.00  0.00    +0.000 A 
ATOM     12  C   UNL     1       1.430   2.495  18.474  0.00  0.00    +0.000 A 
ATOM     13  N   UNL     1       1.338   3.717  17.916  0.00  0.00    +0.000 NA
ATOM     14  C   UNL     1       2.476   4.232  17.384  0.00  0.00    +0.000 A 
ATOM     15  C   UNL     1       3.730   3.618  17.395  0.00  0.00    +0.000 A 
ATOM     16  C   UNL     1       3.758   2.339  17.980  0.00  0.00    +0.000 A 
ENDBRANCH   1  15
TORSDOF 1
ENDMDL
MODEL 5
REMARK VINA RESULT:      -6.7      2.229      5.308
REMARK  Name = 
REMARK  1 active torsions:
REMARK  status: ('A' for Active; 'I' for Inactive)
REMARK    1  A    between atoms: C_5  and  C_6
REMARK                            x       y       z     vdW  Elec       q    Type
REMARK                         _______ _______ _______ _____ _____    ______ ____
ROOT
ATOM      1  C   UNL     1       4.357   4.101  18.680  0.00  0.00    +0.000 A 
ATOM      2  C   UNL     1       4.259   2.874  19.367  0.00  0.00    +0.000 A 
ATOM      3  C   UNL     1       3.393   2.735  20.443  0.00  0.00    +0.000 A 
ATOM      4  N   UNL     1       2.599   3.703  20.936  0.00  0.00    +0.000 NA
ATOM      5  C   UNL     1       2.710   4.860  20.266  0.00  0.00    +0.000 A 
ATOM      6  N   UNL     1       2.005   5.987  20.587  0.00  0.00    +0.000 N 
ATOM      7  C   UNL     1       2.313   6.997  19.716  0.00  0.00    +0.000 A 
ATOM      8  C   UNL     1       3.226   6.498  18.811  0.00  0.00    +0.000 A 
ATOM      9  C   UNL     1       3.519   5.142  19.163  0.00  0.00    +0.000 A 
ATOM     10  H   UNL     1       1.357   6.036  21.357  0.00  0.00    +0.000 HD
ENDROOT
BRANCH   1  15
ATOM     11  C   UNL     1       5.697   4.322  15.131  0.00  0.00    +0.000 A 
ATOM     12  C   UNL     1       7.017   4.627  15.403  0.00  0.00    +0.000 A 
ATOM     13  N   UNL     1       7.505   4.752  16.651  0.00  0.00    +0.000 NA
ATOM     14  C   UNL     1       6.628   4.564  17.671  0.00  0.00    +0.000 A 
ATOM     15  C   UNL     1       5.267   4.287  17.532  0.00  0.00    +0.000 A 
ATOM     16  C   UNL     1       4.821   4.157  16.204  0.00  0.00    +0.000 A 
ENDBRANCH   1  15
TORSDOF 1
ENDMDL
MODEL 6
REMARK VINA RESULT:      -6.7      0.888      2.436
REMARK  Name = 
REMARK  1 active torsions:
REMARK  status: ('A' for Active; 'I' for Inactive)
REMARK    1  A    between atoms: C_5  and  C_6
REMARK                            x       y       z     vdW  Elec       q    Type
REMARK                         _______ _______ _______ _____ _____    ______ ____
ROOT
ATOM      1  C   UNL     1       5.172   4.219  16.686  0.00  0.00    +0.000 A 
ATOM      2  C   UNL     1       5.404   3.634  15.424  0.00  0.00    +0.000 A 
ATOM      3  C   UNL     1       6.415   4.112  14.600  0.00  0.00    +0.000 A 
ATOM      4  N   UNL     1       7.237   5.138  14.888  0.00  0.00    +0.000 NA
ATOM      5  C   UNL     1       6.997   5.676  16.093  0.00  0.00    +0.000 A 
ATOM      6  N   UNL     1       7.702   6.733  16.601  0.00  0.00    +0.000 N 
ATOM      7  C   UNL     1       7.244   7.045  17.852  0.00  0.00    +0.000 A 
ATOM      8  C   UNL     1       6.231   6.159  18.154  0.00  0.00    +0.000 A 
ATOM      9  C   UNL     1       6.035   5.295  17.031  0.00  0.00    +0.000 A 
ATOM     10  H   UNL     1       8.448   7.192  16.103  0.00  0.00    +0.000 HD
ENDROOT
BRANCH   1  15
ATOM     11  C   UNL     1       1.751   3.446  18.147  0.00  0.00    +0.000 A 
ATOM     12  C   UNL     1       2.136   2.834  19.324  0.00  0.00    +0.000 A 
ATOM     13  N   UNL     1       3.423   2.669  19.684  0.00  0.00    +0.000 NA
ATOM     14  C   UNL     1       4.363   3.135  18.822  0.00  0.00    +0.000 A 
ATOM     15  C   UNL     1       4.107   3.738  17.589  0.00  0.00    +0.000 A 
ATOM     16  C   UNL     1       2.745   3.893  17.276  0.00  0.00    +0.000 A 
ENDBRANCH   1  15
TORSDOF 1
ENDMDL
MODEL 7
REMARK VINA RESULT:      -6.7      1.976      5.079
REMARK  Name = 
REMARK  1 active torsions:
REMARK  status: ('A' for Active; 'I' for Inactive)
REMARK    1  A    between atoms: C_5  and  C_6
REMARK                            x       y       z     vdW  Elec       q    Type
REMARK                         _______ _______ _______ _____ _____    ______ ____
ROOT
ATOM      1  C   UNL     1       4.243   5.546  17.729  0.00  0.00    +0.000 A 
ATOM      2  C   UNL     1       3.564   6.777  17.839  0.00  0.00    +0.000 A 
ATOM      3  C   UNL     1       2.640   6.985  18.855  0.00  0.00    +0.000 A 
ATOM      4  N   UNL     1       2.295   6.084  19.792  0.00  0.00    +0.000 NA
ATOM      5  C   UNL     1       2.954   4.922  19.666  0.00  0.00    +0.000 A 
ATOM      6  N   UNL     1       2.765   3.855  20.501  0.00  0.00    +0.000 N 
ATOM      7  C   UNL     1       3.588   2.824  20.137  0.00  0.00    +0.000 A 
ATOM      8  C   UNL     1       4.327   3.247  19.053  0.00  0.00    +0.000 A 
ATOM      9  C   UNL     1       3.915   4.576  18.714  0.00  0.00    +0.000 A 
ATOM     10  H   UNL     1       2.110   3.858  21.267  0.00  0.00    +0.000 HD
ENDROOT
BRANCH   1  15
ATOM     11  C   UNL     1       5.937   4.120  14.641  0.00  0.00    +0.000 A 
ATOM     12  C   UNL     1       7.125   4.822  14.687  0.00  0.00    +0.000 A 
ATOM     13  N   UNL     1       7.423   5.711  15.653  0.00  0.00    +0.000 NA
ATOM     14  C   UNL     1       6.482   5.905  16.614  0.00  0.00    +0.000 A 
ATOM     15  C   UNL     1       5.231   5.288  16.663  0.00  0.00    +0.000 A 
ATOM     16  C   UNL     1       4.985   4.363  15.633  0.00  0.00    +0.000 A 
ENDBRANCH   1  15
TORSDOF 1
ENDMDL
MODEL 8
REMARK VINA RESULT:      -6.6      3.187      4.793
REMARK  Name = 
REMARK  1 active torsions:
REMARK  status: ('A' for Active; 'I' for Inactive)
REMARK    1  A    between atoms: C_5  and  C_6
REMARK                            x       y       z     vdW  Elec       q    Type
REMARK                         _______ _______ _______ _____ _____    ______ ____
ROOT
ATOM      1  C   UNL     1       3.223   6.239  17.912  0.00  0.00    +0.000 A 
ATOM      2  C   UNL     1       4.470   6.431  17.283  0.00  0.00    +0.000 A 
ATOM      3  C   UNL     1       5.160   5.354  16.742  0.00  0.00    +0.000 A 
ATOM      4  N   UNL     1       4.749   4.074  16.763  0.00  0.00    +0.000 NA
ATOM      5  C   UNL     1       3.561   3.917  17.366  0.00  0.00    +0.000 A 
ATOM      6  N   UNL     1       2.944   2.705  17.512  0.00  0.00    +0.000 N 
ATOM      7  C   UNL     1       1.742   2.864  18.146  0.00  0.00    +0.000 A 
ATOM      8  C   UNL     1       1.583   4.210  18.399  0.00  0.00    +0.000 A 
ATOM      9  C   UNL     1       2.749   4.899  17.937  0.00  0.00    +0.000 A 
ATOM     10  H   UNL     1       3.341   1.837  17.186  0.00  0.00    +0.000 HD
ENDROOT
BRANCH   1  15
ATOM     11  C   UNL     1       1.333   9.512  18.301  0.00  0.00    +0.000 A 
ATOM     12  C   UNL     1       1.043   9.451  19.650  0.00  0.00    +0.000 A 
ATOM     13  N   UNL     1       1.428   8.434  20.444  0.00  0.00    +0.000 NA
ATOM     14  C   UNL     1       2.133   7.434  19.855  0.00  0.00    +0.000 A 
ATOM     15  C   UNL     1       2.460   7.358  18.500  0.00  0.00    +0.000 A 
ATOM     16  C   UNL     1       2.041   8.455  17.727  0.00  0.00    +0.000 A 
ENDBRANCH   1  15
TORSDOF 1
ENDMDL
MODEL 9
REMARK VINA RESULT:      -6.6      1.674      5.350
REMARK  Name = 
REMARK  1 active torsions:
REMARK  status: ('A' for Active; 'I' for Inactive)
REMARK    1  A    between atoms: C_5  and  C_6
REMARK                            x       y       z     vdW  Elec       q    Type
REMARK                         _______ _______ _______ _____ _____    ______ ____
ROOT
ATOM      1  C   UNL     1       4.063   3.768  17.730  0.00  0.00    +0.000 A 
ATOM      2  C   UNL     1       3.636   2.431  17.864  0.00  0.00    +0.000 A 
ATOM      3  C   UNL     1       2.607   2.103  18.736  0.00  0.00    +0.000 A 
ATOM      4  N   UNL     1       1.942   2.970  19.520  0.00  0.00    +0.000 NA
ATOM      5  C   UNL     1       2.365   4.235  19.374  0.00  0.00    +0.000 A 
ATOM      6  N   UNL     1       1.841   5.290  20.070  0.00  0.00    +0.000 N 
ATOM      7  C   UNL     1       2.459   6.452  19.695  0.00  0.00    +0.000 A 
ATOM      8  C   UNL     1       3.389   6.132  18.729  0.00  0.00    +0.000 A 
ATOM      9  C   UNL     1       3.369   4.715  18.531  0.00  0.00    +0.000 A 
ATOM     10  H   UNL     1       1.104   5.194  20.751  0.00  0.00    +0.000 HD
ENDROOT
BRANCH   1  15
ATOM     11  C   UNL     1       6.009   4.578  14.569  0.00  0.00    +0.000 A 
ATOM     12  C   UNL     1       7.239   4.871  15.125  0.00  0.00    +0.000 A 
ATOM     13  N   UNL     1       7.486   4.810  16.447  0.00  0.00    +0.000 NA
ATOM     14  C   UNL     1       6.450   4.442  17.245  0.00  0.00    +0.000 A 
ATOM     15  C   UNL     1       5.154   4.155  16.814  0.00  0.00    +0.000 A 
ATOM     16  C   UNL     1       4.963   4.225  15.422  0.00  0.00    +0.000 A 
ENDBRANCH   1  15
TORSDOF 1
ENDMDL
