MODEL 1
REMARK VINA RESULT:      -7.6      0.000      0.000
REMARK  Name = 
REMARK  2 active torsions:
REMARK  status: ('A' for Active; 'I' for Inactive)
REMARK    1  A    between atoms: C_2  and  C_12
REMARK    2  A    between atoms: N_3  and  C_4
REMARK                            x       y       z     vdW  Elec       q    Type
REMARK                         _______ _______ _______ _____ _____    ______ ____
ROOT
ATOM      1  O   UNL     1       4.328   5.857  17.996  0.00  0.00    +0.000 OA
ATOM      2  C   UNL     1       4.480   4.806  17.384  0.00  0.00    +0.000 C 
ATOM      3  N   UNL     1       4.004   3.578  17.794  0.00  0.00    +0.000 N 
ATOM      4  H   UNL     1       4.353   2.748  17.321  0.00  0.00    +0.000 HD
ENDROOT
BRANCH   3   5
ATOM      5  C   UNL     1       3.207   3.337  18.937  0.00  0.00    +0.000 A 
ATOM      6  C   UNL     1       3.723   2.885  20.155  0.00  0.00    +0.000 A 
ATOM      7  C   UNL     1       2.871   2.630  21.233  0.00  0.00    +0.000 A 
ATOM      8  C   UNL     1       1.502   2.829  21.093  0.00  0.00    +0.000 A 
ATOM      9  F   UNL     1       0.691   2.562  22.123  0.00  0.00    +0.000 F 
ATOM     10  C   UNL     1       0.968   3.300  19.903  0.00  0.00    +0.000 A 
ATOM     11  C   UNL     1       1.826   3.561  18.839  0.00  0.00    +0.000 A 
ATOM     12  F   UNL     1       1.309   4.006  17.682  0.00  0.00    +0.000 F 
ENDBRANCH   3   5
BRANCH   2  13
ATOM     13  C   UNL     1       5.309   4.800  16.181  0.00  0.00    +0.000 A 
ATOM     14  C   UNL     1       4.982   4.017  15.013  0.00  0.00    +0.000 A 
ATOM     15  C   UNL     1       5.937   4.123  14.038  0.00  0.00    +0.000 A 
ATOM     16 CL   UNL     1       5.928   3.343  12.510  0.00  0.00    +0.000 Cl
ATOM     17  S   UNL     1       7.222   5.132  14.471  0.00  0.00    +0.000 S 
ATOM     18  C   UNL     1       6.517   5.438  15.990  0.00  0.00    +0.000 A 
ATOM     19 CL   UNL     1       7.394   6.430  17.093  0.00  0.00    +0.000 Cl
ENDBRANCH   2  13
TORSDOF 2
ENDMDL
MODEL 2
REMARK VINA RESULT:      -7.5      1.092      1.575
REMARK  Name = 
REMARK  2 active torsions:
REMARK  status: ('A' for Active; 'I' for Inactive)
REMARK    1  A    between atoms: C_2  and  C_12
REMARK    2  A    between atoms: N_3  and  C_4
REMARK                            x       y       z     vdW  Elec       q    Type
REMARK                         _______ _______ _______ _____ _____    ______ ____
ROOT
ATOM      1  O   UNL     1       4.117   5.834  17.900  0.00  0.00    +0.000 OA
ATOM      2  C   UNL     1       4.350   4.773  17.333  0.00  0.00    +0.000 C 
ATOM      3  N   UNL     1       3.907   3.538  17.758  0.00  0.00    +0.000 N 
ATOM      4  H   UNL     1       4.319   2.710  17.333  0.00  0.00    +0.000 HD
ENDROOT
BRANCH   3   5
ATOM      5  C   UNL     1       3.058   3.296  18.863  0.00  0.00    +0.000 A 
ATOM      6  C   UNL     1       1.682   3.547  18.847  0.00  0.00    +0.000 A 
ATOM      7  C   UNL     1       0.910   3.321  19.989  0.00  0.00    +0.000 A 
ATOM      8  C   UNL     1       1.512   2.842  21.147  0.00  0.00    +0.000 A 
ATOM      9  F   UNL     1       0.768   2.648  22.242  0.00  0.00    +0.000 F 
ATOM     10  C   UNL     1       2.870   2.561  21.181  0.00  0.00    +0.000 A 
ATOM     11  C   UNL     1       3.629   2.780  20.035  0.00  0.00    +0.000 A 
ATOM     12  F   UNL     1       4.946   2.520  20.070  0.00  0.00    +0.000 F 
ENDBRANCH   3   5
BRANCH   2  13
ATOM     13  C   UNL     1       5.245   4.768  16.179  0.00  0.00    +0.000 A 
ATOM     14  C   UNL     1       4.957   4.031  14.971  0.00  0.00    +0.000 A 
ATOM     15  C   UNL     1       5.969   4.126  14.055  0.00  0.00    +0.000 A 
ATOM     16 CL   UNL     1       6.018   3.391  12.506  0.00  0.00    +0.000 Cl
ATOM     17  S   UNL     1       7.264   5.071  14.590  0.00  0.00    +0.000 S 
ATOM     18  C   UNL     1       6.486   5.362  16.075  0.00  0.00    +0.000 A 
ATOM     19 CL   UNL     1       7.336   6.287  17.255  0.00  0.00    +0.000 Cl
ENDBRANCH   2  13
TORSDOF 2
ENDMDL
MODEL 3
REMARK VINA RESULT:      -7.5      1.204      1.291
REMARK  Name = 
REMARK  2 active torsions:
REMARK  status: ('A' for Active; 'I' for Inactive)
REMARK    1  A    between atoms: C_2  and  C_12
REMARK    2  A    between atoms: N_3  and  C_4
REMARK                            x       y       z     vdW  Elec       q    Type
REMARK                         _______ _______ _______ _____ _____    ______ ____
ROOT
ATOM      1  O   UNL     1       5.920   4.085  18.784  0.00  0.00    +0.000 OA
ATOM      2  C   UNL     1       5.183   4.228  17.816  0.00  0.00    +0.000 C 
ATOM      3  N   UNL     1       3.814   4.061  17.834  0.00  0.00    +0.000 N 
ATOM      4  H   UNL     1       3.326   4.008  16.943  0.00  0.00    +0.000 HD
ENDROOT
BRANCH   3   5
ATOM      5  C   UNL     1       3.028   3.774  18.974  0.00  0.00    +0.000 A 
ATOM      6  C   UNL     1       2.724   4.719  19.959  0.00  0.00    +0.000 A 
ATOM      7  C   UNL     1       1.975   4.355  21.080  0.00  0.00    +0.000 A 
ATOM      8  C   UNL     1       1.527   3.046  21.217  0.00  0.00    +0.000 A 
ATOM      9  F   UNL     1       0.827   2.702  22.304  0.00  0.00    +0.000 F 
ATOM     10  C   UNL     1       1.794   2.096  20.243  0.00  0.00    +0.000 A 
ATOM     11  C   UNL     1       2.532   2.471  19.124  0.00  0.00    +0.000 A 
ATOM     12  F   UNL     1       2.801   1.549  18.185  0.00  0.00    +0.000 F 
ENDBRANCH   3   5
BRANCH   2  13
ATOM     13  C   UNL     1       5.776   4.493  16.508  0.00  0.00    +0.000 A 
ATOM     14  C   UNL     1       5.488   3.689  15.343  0.00  0.00    +0.000 A 
ATOM     15  C   UNL     1       6.207   4.089  14.249  0.00  0.00    +0.000 A 
ATOM     16 CL   UNL     1       6.161   3.389  12.684  0.00  0.00    +0.000 Cl
ATOM     17  S   UNL     1       7.225   5.400  14.565  0.00  0.00    +0.000 S 
ATOM     18  C   UNL     1       6.720   5.447  16.190  0.00  0.00    +0.000 A 
ATOM     19 CL   UNL     1       7.465   6.606  17.226  0.00  0.00    +0.000 Cl
ENDBRANCH   2  13
TORSDOF 2
ENDMDL
MODEL 4
REMARK VINA RESULT:      -7.0      1.204      1.222
REMARK  Name = 
REMARK  2 active torsions:
REMARK  status: ('A' for Active; 'I' for Inactive)
REMARK    1  A    between atoms: C_2  and  C_12
REMARK    2  A    between atoms: N_3  and  C_4
REMARK                            x       y       z     vdW  Elec       q    Type
REMARK                         _______ _______ _______ _____ _____    ______ ____
ROOT
ATOM      1  O   UNL     1       5.972   4.074  18.786  0.00  0.00    +0.000 OA
ATOM      2  C   UNL     1       5.222   4.159  17.821  0.00  0.00    +0.000 C 
ATOM      3  N   UNL     1       3.868   3.897  17.848  0.00  0.00    +0.000 N 
ATOM      4  H   UNL     1       3.380   3.804  16.961  0.00  0.00    +0.000 HD
ENDROOT
BRANCH   3   5
ATOM      5  C   UNL     1       3.111   3.562  18.995  0.00  0.00    +0.000 A 
ATOM      6  C   UNL     1       2.851   2.246  19.390  0.00  0.00    +0.000 A 
ATOM      7  C   UNL     1       2.062   1.988  20.514  0.00  0.00    +0.000 A 
ATOM      8  C   UNL     1       1.534   3.046  21.244  0.00  0.00    +0.000 A 
ATOM      9  F   UNL     1       0.762   2.790  22.307  0.00  0.00    +0.000 F 
ATOM     10  C   UNL     1       1.797   4.361  20.888  0.00  0.00    +0.000 A 
ATOM     11  C   UNL     1       2.593   4.607  19.774  0.00  0.00    +0.000 A 
ATOM     12  F   UNL     1       2.840   5.879  19.421  0.00  0.00    +0.000 F 
ENDBRANCH   3   5
BRANCH   2  13
ATOM     13  C   UNL     1       5.787   4.457  16.508  0.00  0.00    +0.000 A 
ATOM     14  C   UNL     1       5.487   3.673  15.333  0.00  0.00    +0.000 A 
ATOM     15  C   UNL     1       6.181   4.103  14.234  0.00  0.00    +0.000 A 
ATOM     16 CL   UNL     1       6.114   3.434  12.656  0.00  0.00    +0.000 Cl
ATOM     17  S   UNL     1       7.189   5.421  14.558  0.00  0.00    +0.000 S 
ATOM     18  C   UNL     1       6.714   5.430  16.192  0.00  0.00    +0.000 A 
ATOM     19 CL   UNL     1       7.464   6.577  17.237  0.00  0.00    +0.000 Cl
ENDBRANCH   2  13
TORSDOF 2
ENDMDL
MODEL 5
REMARK VINA RESULT:      -6.9      4.825      6.215
REMARK  Name = 
REMARK  2 active torsions:
REMARK  status: ('A' for Active; 'I' for Inactive)
REMARK    1  A    between atoms: C_2  and  C_12
REMARK    2  A    between atoms: N_3  and  C_4
REMARK                            x       y       z     vdW  Elec       q    Type
REMARK                         _______ _______ _______ _____ _____    ______ ____
ROOT
ATOM      1  O   UNL     1       3.290   7.023  18.568  0.00  0.00    +0.000 OA
ATOM      2  C   UNL     1       2.424   6.830  19.413  0.00  0.00    +0.000 C 
ATOM      3  N   UNL     1       1.969   5.589  19.808  0.00  0.00    +0.000 N 
ATOM      4  H   UNL     1       1.118   5.546  20.362  0.00  0.00    +0.000 HD
ENDROOT
BRANCH   3   5
ATOM      5  C   UNL     1       2.470   4.343  19.366  0.00  0.00    +0.000 A 
ATOM      6  C   UNL     1       3.412   3.594  20.080  0.00  0.00    +0.000 A 
ATOM      7  C   UNL     1       3.893   2.388  19.563  0.00  0.00    +0.000 A 
ATOM      8  C   UNL     1       3.432   1.930  18.335  0.00  0.00    +0.000 A 
ATOM      9  F   UNL     1       3.914   0.784  17.839  0.00  0.00    +0.000 F 
ATOM     10  C   UNL     1       2.480   2.640  17.619  0.00  0.00    +0.000 A 
ATOM     11  C   UNL     1       1.999   3.835  18.146  0.00  0.00    +0.000 A 
ATOM     12  F   UNL     1       1.086   4.531  17.450  0.00  0.00    +0.000 F 
ENDBRANCH   3   5
BRANCH   2  13
ATOM     13  C   UNL     1       1.727   7.978  19.988  0.00  0.00    +0.000 A 
ATOM     14  C   UNL     1       1.232   7.990  21.344  0.00  0.00    +0.000 A 
ATOM     15  C   UNL     1       0.560   9.146  21.638  0.00  0.00    +0.000 A 
ATOM     16 CL   UNL     1      -0.186   9.544  23.130  0.00  0.00    +0.000 Cl
ATOM     17  S   UNL     1       0.498  10.227  20.340  0.00  0.00    +0.000 S 
ATOM     18  C   UNL     1       1.370   9.149  19.353  0.00  0.00    +0.000 A 
ATOM     19 CL   UNL     1       1.644   9.609  17.714  0.00  0.00    +0.000 Cl
ENDBRANCH   2  13
TORSDOF 2
ENDMDL
MODEL 6
REMARK VINA RESULT:      -6.7      5.047      6.410
REMARK  Name = 
REMARK  2 active torsions:
REMARK  status: ('A' for Active; 'I' for Inactive)
REMARK    1  A    between atoms: C_2  and  C_12
REMARK    2  A    between atoms: N_3  and  C_4
REMARK                            x       y       z     vdW  Elec       q    Type
REMARK                         _______ _______ _______ _____ _____    ______ ____
ROOT
ATOM      1  O   UNL     1       2.781   7.129  18.510  0.00  0.00    +0.000 OA
ATOM      2  C   UNL     1       2.243   7.004  19.604  0.00  0.00    +0.000 C 
ATOM      3  N   UNL     1       2.112   5.813  20.288  0.00  0.00    +0.000 N 
ATOM      4  H   UNL     1       1.481   5.786  21.085  0.00  0.00    +0.000 HD
ENDROOT
BRANCH   3   5
ATOM      5  C   UNL     1       2.635   4.563  19.884  0.00  0.00    +0.000 A 
ATOM      6  C   UNL     1       3.986   4.349  19.594  0.00  0.00    +0.000 A 
ATOM      7  C   UNL     1       4.426   3.095  19.161  0.00  0.00    +0.000 A 
ATOM      8  C   UNL     1       3.515   2.055  19.020  0.00  0.00    +0.000 A 
ATOM      9  F   UNL     1       3.942   0.863  18.585  0.00  0.00    +0.000 F 
ATOM     10  C   UNL     1       2.174   2.234  19.325  0.00  0.00    +0.000 A 
ATOM     11  C   UNL     1       1.747   3.483  19.765  0.00  0.00    +0.000 A 
ATOM     12  F   UNL     1       0.447   3.662  20.050  0.00  0.00    +0.000 F 
ENDBRANCH   3   5
BRANCH   2  13
ATOM     13  C   UNL     1       1.592   8.162  20.209  0.00  0.00    +0.000 A 
ATOM     14  C   UNL     1       1.149   8.179  21.584  0.00  0.00    +0.000 A 
ATOM     15  C   UNL     1       0.512   9.347  21.906  0.00  0.00    +0.000 A 
ATOM     16 CL   UNL     1      -0.168   9.753  23.428  0.00  0.00    +0.000 Cl
ATOM     17  S   UNL     1       0.420  10.433  20.616  0.00  0.00    +0.000 S 
ATOM     18  C   UNL     1       1.232   9.343  19.592  0.00  0.00    +0.000 A 
ATOM     19 CL   UNL     1       1.451   9.803  17.945  0.00  0.00    +0.000 Cl
ENDBRANCH   2  13
TORSDOF 2
ENDMDL
MODEL 7
REMARK VINA RESULT:      -6.5      5.019      6.466
REMARK  Name = 
REMARK  2 active torsions:
REMARK  status: ('A' for Active; 'I' for Inactive)
REMARK    1  A    between atoms: C_2  and  C_12
REMARK    2  A    between atoms: N_3  and  C_4
REMARK                            x       y       z     vdW  Elec       q    Type
REMARK                         _______ _______ _______ _____ _____    ______ ____
ROOT
ATOM      1  O   UNL     1       2.850   7.184  18.294  0.00  0.00    +0.000 OA
ATOM      2  C   UNL     1       2.240   6.997  19.340  0.00  0.00    +0.000 C 
ATOM      3  N   UNL     1       1.972   5.760  19.887  0.00  0.00    +0.000 N 
ATOM      4  H   UNL     1       1.294   5.708  20.644  0.00  0.00    +0.000 HD
ENDROOT
BRANCH   3   5
ATOM      5  C   UNL     1       2.414   4.516  19.381  0.00  0.00    +0.000 A 
ATOM      6  C   UNL     1       1.557   3.563  18.821  0.00  0.00    +0.000 A 
ATOM      7  C   UNL     1       2.058   2.337  18.376  0.00  0.00    +0.000 A 
ATOM      8  C   UNL     1       3.416   2.064  18.488  0.00  0.00    +0.000 A 
ATOM      9  F   UNL     1       3.884   0.879  18.078  0.00  0.00    +0.000 F 
ATOM     10  C   UNL     1       4.291   3.001  19.017  0.00  0.00    +0.000 A 
ATOM     11  C   UNL     1       3.784   4.223  19.448  0.00  0.00    +0.000 A 
ATOM     12  F   UNL     1       4.628   5.128  19.971  0.00  0.00    +0.000 F 
ENDBRANCH   3   5
BRANCH   2  13
ATOM     13  C   UNL     1       1.650   8.141  20.030  0.00  0.00    +0.000 A 
ATOM     14  C   UNL     1       1.216   8.084  21.406  0.00  0.00    +0.000 A 
ATOM     15  C   UNL     1       0.639   9.256  21.815  0.00  0.00    +0.000 A 
ATOM     16 CL   UNL     1      -0.012   9.588  23.366  0.00  0.00    +0.000 Cl
ATOM     17  S   UNL     1       0.594  10.433  20.603  0.00  0.00    +0.000 S 
ATOM     18  C   UNL     1       1.346   9.378  19.499  0.00  0.00    +0.000 A 
ATOM     19 CL   UNL     1       1.579   9.941  17.887  0.00  0.00    +0.000 Cl
ENDBRANCH   2  13
TORSDOF 2
ENDMDL
MODEL 8
REMARK VINA RESULT:      -6.4      1.586      1.912
REMARK  Name = 
REMARK  2 active torsions:
REMARK  status: ('A' for Active; 'I' for Inactive)
REMARK    1  A    between atoms: C_2  and  C_12
REMARK    2  A    between atoms: N_3  and  C_4
REMARK                            x       y       z     vdW  Elec       q    Type
REMARK                         _______ _______ _______ _____ _____    ______ ____
ROOT
ATOM      1  O   UNL     1       3.028   3.292  16.576  0.00  0.00    +0.000 OA
ATOM      2  C   UNL     1       4.048   3.725  17.099  0.00  0.00    +0.000 C 
ATOM      3  N   UNL     1       4.213   3.933  18.453  0.00  0.00    +0.000 N 
ATOM      4  H   UNL     1       5.016   4.478  18.759  0.00  0.00    +0.000 HD
ENDROOT
BRANCH   3   5
ATOM      5  C   UNL     1       3.274   3.616  19.462  0.00  0.00    +0.000 A 
ATOM      6  C   UNL     1       2.040   4.260  19.596  0.00  0.00    +0.000 A 
ATOM      7  C   UNL     1       1.177   3.921  20.642  0.00  0.00    +0.000 A 
ATOM      8  C   UNL     1       1.547   2.937  21.552  0.00  0.00    +0.000 A 
ATOM      9  F   UNL     1       0.723   2.634  22.562  0.00  0.00    +0.000 F 
ATOM     10  C   UNL     1       2.754   2.267  21.426  0.00  0.00    +0.000 A 
ATOM     11  C   UNL     1       3.602   2.603  20.376  0.00  0.00    +0.000 A 
ATOM     12  F   UNL     1       4.777   1.963  20.258  0.00  0.00    +0.000 F 
ENDBRANCH   3   5
BRANCH   2  13
ATOM     13  C   UNL     1       5.151   4.162  16.248  0.00  0.00    +0.000 A 
ATOM     14  C   UNL     1       5.200   3.884  14.831  0.00  0.00    +0.000 A 
ATOM     15  C   UNL     1       6.358   4.336  14.257  0.00  0.00    +0.000 A 
ATOM     16 CL   UNL     1       6.804   4.194  12.607  0.00  0.00    +0.000 Cl
ATOM     17  S   UNL     1       7.399   5.085  15.358  0.00  0.00    +0.000 S 
ATOM     18  C   UNL     1       6.308   4.805  16.635  0.00  0.00    +0.000 A 
ATOM     19 CL   UNL     1       6.789   5.290  18.218  0.00  0.00    +0.000 Cl
ENDBRANCH   2  13
TORSDOF 2
ENDMDL
MODEL 9
REMARK VINA RESULT:      -6.3      4.975      6.477
REMARK  Name = 
REMARK  2 active torsions:
REMARK  status: ('A' for Active; 'I' for Inactive)
REMARK    1  A    between atoms: C_2  and  C_12
REMARK    2  A    between atoms: N_3  and  C_4
REMARK                            x       y       z     vdW  Elec       q    Type
REMARK                         _______ _______ _______ _____ _____    ______ ____
ROOT
ATOM      1  O   UNL     1       3.479   7.057  19.319  0.00  0.00    +0.000 OA
ATOM      2  C   UNL     1       2.342   6.890  19.744  0.00  0.00    +0.000 C 
ATOM      3  N   UNL     1       1.667   5.688  19.742  0.00  0.00    +0.000 N 
ATOM      4  H   UNL     1       0.667   5.700  19.932  0.00  0.00    +0.000 HD
ENDROOT
BRANCH   3   5
ATOM      5  C   UNL     1       2.191   4.443  19.324  0.00  0.00    +0.000 A 
ATOM      6  C   UNL     1       2.231   4.034  17.987  0.00  0.00    +0.000 A 
ATOM      7  C   UNL     1       2.728   2.772  17.649  0.00  0.00    +0.000 A 
ATOM      8  C   UNL     1       3.185   1.920  18.647  0.00  0.00    +0.000 A 
ATOM      9  F   UNL     1       3.640   0.705  18.316  0.00  0.00    +0.000 F 
ATOM     10  C   UNL     1       3.179   2.311  19.978  0.00  0.00    +0.000 A 
ATOM     11  C   UNL     1       2.692   3.573  20.303  0.00  0.00    +0.000 A 
ATOM     12  F   UNL     1       2.674   3.950  21.592  0.00  0.00    +0.000 F 
ENDBRANCH   3   5
BRANCH   2  13
ATOM     13  C   UNL     1       1.579   8.050  20.198  0.00  0.00    +0.000 A 
ATOM     14  C   UNL     1       1.060   8.165  21.541  0.00  0.00    +0.000 A 
ATOM     15  C   UNL     1       0.326   9.308  21.714  0.00  0.00    +0.000 A 
ATOM     16 CL   UNL     1      -0.465   9.806  23.152  0.00  0.00    +0.000 Cl
ATOM     17  S   UNL     1       0.233  10.256  20.318  0.00  0.00    +0.000 S 
ATOM     18  C   UNL     1       1.175   9.136  19.450  0.00  0.00    +0.000 A 
ATOM     19 CL   UNL     1       1.454   9.452  17.779  0.00  0.00    +0.000 Cl
ENDBRANCH   2  13
TORSDOF 2
ENDMDL
