MODEL 1
REMARK VINA RESULT:      -6.3      0.000      0.000
REMARK  Name = 
REMARK  15 active torsions:
REMARK  status: ('A' for Active; 'I' for Inactive)
REMARK    1  A    between atoms: C_1  and  O_2
REMARK    2  A    between atoms: O_2  and  C_3
REMARK    3  A    between atoms: C_3  and  C_5
REMARK    4  A    between atoms: C_5  and  N_6
REMARK    5  A    between atoms: C_5  and  C_19
REMARK    6  A    between atoms: C_7  and  C_9
REMARK    7  A    between atoms: C_9  and  C_10
REMARK    8  A    between atoms: C_10  and  C_11
REMARK    9  A    between atoms: C_11  and  C_12
REMARK   10  A    between atoms: C_12  and  C_13
REMARK   11  A    between atoms: C_13  and  C_14
REMARK   12  A    between atoms: C_14  and  C_15
REMARK   13  A    between atoms: N_17  and  O_18
REMARK   14  A    between atoms: C_19  and  C_20
REMARK   15  A    between atoms: C_19  and  C_21
REMARK                            x       y       z     vdW  Elec       q    Type
REMARK                         _______ _______ _______ _____ _____    ______ ____
ROOT
ATOM      1  N   UNL     1       5.302   6.158  18.181  0.00  0.00    +0.000 N 
ATOM      2  C   UNL     1       4.018   6.570  18.434  0.00  0.00    +0.000 C 
ATOM      3  O   UNL     1       3.461   7.439  17.765  0.00  0.00    +0.000 OA
ATOM      4  H   UNL     1       5.696   5.386  18.707  0.00  0.00    +0.000 HD
ENDROOT
BRANCH   1   5
ATOM      5  C   UNL     1       6.084   6.698  17.061  0.00  0.00    +0.000 C 
BRANCH   5   6
ATOM      6  C   UNL     1       7.534   7.020  17.488  0.00  0.00    +0.000 C 
ATOM      7  C   UNL     1       7.763   8.530  17.637  0.00  0.00    +0.000 C 
ATOM      8  C   UNL     1       7.935   6.335  18.799  0.00  0.00    +0.000 C 
ENDBRANCH   5   6
BRANCH   5   9
ATOM      9  C   UNL     1       6.042   5.711  15.878  0.00  0.00    +0.000 C 
ATOM     10  O   UNL     1       5.051   5.065  15.554  0.00  0.00    +0.000 OA
BRANCH   9  12
ATOM     11  C   UNL     1       7.275   4.850  14.067  0.00  0.00    +0.000 C 
ATOM     12  O   UNL     1       7.265   5.611  15.277  0.00  0.00    +0.000 OA
ENDBRANCH   9  12
ENDBRANCH   5   9
ENDBRANCH   1   5
BRANCH   2  13
ATOM     13  C   UNL     1       3.357   5.890  19.616  0.00  0.00    +0.000 C 
BRANCH  13  14
ATOM     14  C   UNL     1       1.953   5.408  19.241  0.00  0.00    +0.000 C 
BRANCH  14  15
ATOM     15  C   UNL     1       1.193   4.805  20.417  0.00  0.00    +0.000 C 
BRANCH  15  16
ATOM     16  C   UNL     1       0.831   3.342  20.138  0.00  0.00    +0.000 C 
BRANCH  16  17
ATOM     17  C   UNL     1       2.027   2.428  20.391  0.00  0.00    +0.000 C 
BRANCH  17  18
ATOM     18  C   UNL     1       2.522   1.756  19.112  0.00  0.00    +0.000 C 
BRANCH  18  19
ATOM     19  C   UNL     1       3.706   2.498  18.527  0.00  0.00    +0.000 C 
ATOM     20  O   UNL     1       3.779   2.883  17.363  0.00  0.00    +0.000 OA
ATOM     21  N   UNL     1       4.723   2.710  19.420  0.00  0.00    +0.000 N 
ATOM     22  H   UNL     1       4.719   2.450  20.400  0.00  0.00    +0.000 HD
BRANCH  21  23
ATOM     23  O   UNL     1       5.852   3.404  18.933  0.00  0.00    +0.000 OA
ATOM     24  H   UNL     1       5.440   4.115  18.392  0.00  0.00    +0.000 HD
ENDBRANCH  21  23
ENDBRANCH  18  19
ENDBRANCH  17  18
ENDBRANCH  16  17
ENDBRANCH  15  16
ENDBRANCH  14  15
ENDBRANCH  13  14
ENDBRANCH   2  13
TORSDOF 12
ENDMDL
MODEL 2
REMARK VINA RESULT:      -6.2      2.053      4.542
REMARK  Name = 
REMARK  15 active torsions:
REMARK  status: ('A' for Active; 'I' for Inactive)
REMARK    1  A    between atoms: C_1  and  O_2
REMARK    2  A    between atoms: O_2  and  C_3
REMARK    3  A    between atoms: C_3  and  C_5
REMARK    4  A    between atoms: C_5  and  N_6
REMARK    5  A    between atoms: C_5  and  C_19
REMARK    6  A    between atoms: C_7  and  C_9
REMARK    7  A    between atoms: C_9  and  C_10
REMARK    8  A    between atoms: C_10  and  C_11
REMARK    9  A    between atoms: C_11  and  C_12
REMARK   10  A    between atoms: C_12  and  C_13
REMARK   11  A    between atoms: C_13  and  C_14
REMARK   12  A    between atoms: C_14  and  C_15
REMARK   13  A    between atoms: N_17  and  O_18
REMARK   14  A    between atoms: C_19  and  C_20
REMARK   15  A    between atoms: C_19  and  C_21
REMARK                            x       y       z     vdW  Elec       q    Type
REMARK                         _______ _______ _______ _____ _____    ______ ____
ROOT
ATOM      1  N   UNL     1       3.880   4.317  17.618  0.00  0.00    +0.000 N 
ATOM      2  C   UNL     1       3.158   3.163  17.793  0.00  0.00    +0.000 C 
ATOM      3  O   UNL     1       3.678   2.049  17.758  0.00  0.00    +0.000 OA
ATOM      4  H   UNL     1       3.427   5.217  17.732  0.00  0.00    +0.000 HD
ENDROOT
BRANCH   1   5
ATOM      5  C   UNL     1       5.336   4.299  17.424  0.00  0.00    +0.000 C 
BRANCH   5   6
ATOM      6  C   UNL     1       5.748   5.117  16.179  0.00  0.00    +0.000 C 
ATOM      7  C   UNL     1       5.493   4.343  14.878  0.00  0.00    +0.000 C 
ATOM      8  C   UNL     1       5.034   6.469  16.090  0.00  0.00    +0.000 C 
ENDBRANCH   5   6
BRANCH   5   9
ATOM      9  C   UNL     1       6.034   4.809  18.699  0.00  0.00    +0.000 C 
ATOM     10  O   UNL     1       5.442   5.217  19.693  0.00  0.00    +0.000 OA
BRANCH   9  12
ATOM     11  C   UNL     1       8.067   5.900  19.164  0.00  0.00    +0.000 C 
ATOM     12  O   UNL     1       7.393   4.797  18.555  0.00  0.00    +0.000 OA
ENDBRANCH   9  12
ENDBRANCH   5   9
ENDBRANCH   1   5
BRANCH   2  13
ATOM     13  C   UNL     1       1.672   3.373  18.002  0.00  0.00    +0.000 C 
BRANCH  13  14
ATOM     14  C   UNL     1       1.252   2.886  19.391  0.00  0.00    +0.000 C 
BRANCH  14  15
ATOM     15  C   UNL     1       0.810   4.017  20.313  0.00  0.00    +0.000 C 
BRANCH  15  16
ATOM     16  C   UNL     1       2.012   4.862  20.752  0.00  0.00    +0.000 C 
BRANCH  16  17
ATOM     17  C   UNL     1       1.732   6.349  20.552  0.00  0.00    +0.000 C 
BRANCH  17  18
ATOM     18  C   UNL     1       2.436   6.910  19.318  0.00  0.00    +0.000 C 
BRANCH  18  19
ATOM     19  C   UNL     1       1.950   8.307  18.997  0.00  0.00    +0.000 C 
ATOM     20  O   UNL     1       1.303   9.014  19.766  0.00  0.00    +0.000 OA
ATOM     21  N   UNL     1       2.294   8.739  17.742  0.00  0.00    +0.000 N 
ATOM     22  H   UNL     1       2.851   8.225  17.069  0.00  0.00    +0.000 HD
BRANCH  21  23
ATOM     23  O   UNL     1       1.873  10.039  17.388  0.00  0.00    +0.000 OA
ATOM     24  H   UNL     1       1.197  10.233  18.076  0.00  0.00    +0.000 HD
ENDBRANCH  21  23
ENDBRANCH  18  19
ENDBRANCH  17  18
ENDBRANCH  16  17
ENDBRANCH  15  16
ENDBRANCH  14  15
ENDBRANCH  13  14
ENDBRANCH   2  13
TORSDOF 12
ENDMDL
MODEL 3
REMARK VINA RESULT:      -5.9      1.608      2.723
REMARK  Name = 
REMARK  15 active torsions:
REMARK  status: ('A' for Active; 'I' for Inactive)
REMARK    1  A    between atoms: C_1  and  O_2
REMARK    2  A    between atoms: O_2  and  C_3
REMARK    3  A    between atoms: C_3  and  C_5
REMARK    4  A    between atoms: C_5  and  N_6
REMARK    5  A    between atoms: C_5  and  C_19
REMARK    6  A    between atoms: C_7  and  C_9
REMARK    7  A    between atoms: C_9  and  C_10
REMARK    8  A    between atoms: C_10  and  C_11
REMARK    9  A    between atoms: C_11  and  C_12
REMARK   10  A    between atoms: C_12  and  C_13
REMARK   11  A    between atoms: C_13  and  C_14
REMARK   12  A    between atoms: C_14  and  C_15
REMARK   13  A    between atoms: N_17  and  O_18
REMARK   14  A    between atoms: C_19  and  C_20
REMARK   15  A    between atoms: C_19  and  C_21
REMARK                            x       y       z     vdW  Elec       q    Type
REMARK                         _______ _______ _______ _____ _____    ______ ____
ROOT
ATOM      1  N   UNL     1       4.527   5.760  16.898  0.00  0.00    +0.000 N 
ATOM      2  C   UNL     1       4.015   5.510  18.147  0.00  0.00    +0.000 C 
ATOM      3  O   UNL     1       4.593   4.797  18.966  0.00  0.00    +0.000 OA
ATOM      4  H   UNL     1       4.057   6.414  16.283  0.00  0.00    +0.000 HD
ENDROOT
BRANCH   1   5
ATOM      5  C   UNL     1       5.828   5.227  16.472  0.00  0.00    +0.000 C 
BRANCH   5   6
ATOM      6  C   UNL     1       5.941   5.182  14.932  0.00  0.00    +0.000 C 
ATOM      7  C   UNL     1       7.387   4.951  14.472  0.00  0.00    +0.000 C 
ATOM      8  C   UNL     1       5.052   4.106  14.300  0.00  0.00    +0.000 C 
ENDBRANCH   5   6
BRANCH   5   9
ATOM      9  C   UNL     1       6.959   6.060  17.105  0.00  0.00    +0.000 C 
ATOM     10  O   UNL     1       7.883   5.585  17.758  0.00  0.00    +0.000 OA
BRANCH   9  12
ATOM     11  C   UNL     1       7.659   8.250  17.608  0.00  0.00    +0.000 C 
ATOM     12  O   UNL     1       6.768   7.395  16.889  0.00  0.00    +0.000 OA
ENDBRANCH   9  12
ENDBRANCH   5   9
ENDBRANCH   1   5
BRANCH   2  13
ATOM     13  C   UNL     1       2.673   6.158  18.421  0.00  0.00    +0.000 C 
BRANCH  13  14
ATOM     14  C   UNL     1       2.517   6.459  19.913  0.00  0.00    +0.000 C 
BRANCH  14  15
ATOM     15  C   UNL     1       2.040   5.257  20.720  0.00  0.00    +0.000 C 
BRANCH  15  16
ATOM     16  C   UNL     1       0.940   4.498  19.968  0.00  0.00    +0.000 C 
BRANCH  16  17
ATOM     17  C   UNL     1       1.040   2.997  20.228  0.00  0.00    +0.000 C 
BRANCH  17  18
ATOM     18  C   UNL     1       0.927   2.178  18.945  0.00  0.00    +0.000 C 
BRANCH  18  19
ATOM     19  C   UNL     1       2.102   2.435  18.025  0.00  0.00    +0.000 C 
ATOM     20  O   UNL     1       2.030   3.024  16.950  0.00  0.00    +0.000 OA
ATOM     21  N   UNL     1       3.292   1.942  18.497  0.00  0.00    +0.000 N 
ATOM     22  H   UNL     1       3.432   1.476  19.386  0.00  0.00    +0.000 HD
BRANCH  21  23
ATOM     23  O   UNL     1       4.427   2.158  17.684  0.00  0.00    +0.000 OA
ATOM     24  H   UNL     1       4.736   1.239  17.515  0.00  0.00    +0.000 HD
ENDBRANCH  21  23
ENDBRANCH  18  19
ENDBRANCH  17  18
ENDBRANCH  16  17
ENDBRANCH  15  16
ENDBRANCH  14  15
ENDBRANCH  13  14
ENDBRANCH   2  13
TORSDOF 12
ENDMDL
MODEL 4
REMARK VINA RESULT:      -5.9      1.153      1.349
REMARK  Name = 
REMARK  15 active torsions:
REMARK  status: ('A' for Active; 'I' for Inactive)
REMARK    1  A    between atoms: C_1  and  O_2
REMARK    2  A    between atoms: O_2  and  C_3
REMARK    3  A    between atoms: C_3  and  C_5
REMARK    4  A    between atoms: C_5  and  N_6
REMARK    5  A    between atoms: C_5  and  C_19
REMARK    6  A    between atoms: C_7  and  C_9
REMARK    7  A    between atoms: C_9  and  C_10
REMARK    8  A    between atoms: C_10  and  C_11
REMARK    9  A    between atoms: C_11  and  C_12
REMARK   10  A    between atoms: C_12  and  C_13
REMARK   11  A    between atoms: C_13  and  C_14
REMARK   12  A    between atoms: C_14  and  C_15
REMARK   13  A    between atoms: N_17  and  O_18
REMARK   14  A    between atoms: C_19  and  C_20
REMARK   15  A    between atoms: C_19  and  C_21
REMARK                            x       y       z     vdW  Elec       q    Type
REMARK                         _______ _______ _______ _____ _____    ______ ____
ROOT
ATOM      1  N   UNL     1       4.583   6.031  17.837  0.00  0.00    +0.000 N 
ATOM      2  C   UNL     1       3.406   6.718  18.000  0.00  0.00    +0.000 C 
ATOM      3  O   UNL     1       3.294   7.909  17.715  0.00  0.00    +0.000 OA
ATOM      4  H   UNL     1       4.612   5.033  18.010  0.00  0.00    +0.000 HD
ENDROOT
BRANCH   1   5
ATOM      5  C   UNL     1       5.779   6.666  17.265  0.00  0.00    +0.000 C 
BRANCH   5   6
ATOM      6  C   UNL     1       7.064   6.194  17.982  0.00  0.00    +0.000 C 
ATOM      7  C   UNL     1       8.035   7.355  18.235  0.00  0.00    +0.000 C 
ATOM      8  C   UNL     1       6.781   5.496  19.316  0.00  0.00    +0.000 C 
ENDBRANCH   5   6
BRANCH   5   9
ATOM      9  C   UNL     1       5.835   6.391  15.750  0.00  0.00    +0.000 C 
ATOM     10  O   UNL     1       5.060   6.876  14.932  0.00  0.00    +0.000 OA
BRANCH   9  12
ATOM     11  C   UNL     1       6.418   4.420  14.602  0.00  0.00    +0.000 C 
ATOM     12  O   UNL     1       6.825   5.499  15.448  0.00  0.00    +0.000 OA
ENDBRANCH   9  12
ENDBRANCH   5   9
ENDBRANCH   1   5
BRANCH   2  13
ATOM     13  C   UNL     1       2.272   5.899  18.582  0.00  0.00    +0.000 C 
BRANCH  13  14
ATOM     14  C   UNL     1       2.084   6.222  20.066  0.00  0.00    +0.000 C 
BRANCH  14  15
ATOM     15  C   UNL     1       1.847   4.985  20.924  0.00  0.00    +0.000 C 
BRANCH  15  16
ATOM     16  C   UNL     1       1.092   3.911  20.133  0.00  0.00    +0.000 C 
BRANCH  16  17
ATOM     17  C   UNL     1       1.644   2.521  20.438  0.00  0.00    +0.000 C 
BRANCH  17  18
ATOM     18  C   UNL     1       3.169   2.510  20.519  0.00  0.00    +0.000 C 
BRANCH  18  19
ATOM     19  C   UNL     1       3.789   2.266  19.159  0.00  0.00    +0.000 C 
ATOM     20  O   UNL     1       4.236   3.148  18.429  0.00  0.00    +0.000 OA
ATOM     21  N   UNL     1       3.811   0.946  18.789  0.00  0.00    +0.000 N 
ATOM     22  H   UNL     1       3.491   0.166  19.350  0.00  0.00    +0.000 HD
BRANCH  21  23
ATOM     23  O   UNL     1       4.384   0.657  17.531  0.00  0.00    +0.000 OA
ATOM     24  H   UNL     1       4.012   1.370  16.965  0.00  0.00    +0.000 HD
ENDBRANCH  21  23
ENDBRANCH  18  19
ENDBRANCH  17  18
ENDBRANCH  16  17
ENDBRANCH  15  16
ENDBRANCH  14  15
ENDBRANCH  13  14
ENDBRANCH   2  13
TORSDOF 12
ENDMDL
MODEL 5
REMARK VINA RESULT:      -5.9      1.733      2.844
REMARK  Name = 
REMARK  15 active torsions:
REMARK  status: ('A' for Active; 'I' for Inactive)
REMARK    1  A    between atoms: C_1  and  O_2
REMARK    2  A    between atoms: O_2  and  C_3
REMARK    3  A    between atoms: C_3  and  C_5
REMARK    4  A    between atoms: C_5  and  N_6
REMARK    5  A    between atoms: C_5  and  C_19
REMARK    6  A    between atoms: C_7  and  C_9
REMARK    7  A    between atoms: C_9  and  C_10
REMARK    8  A    between atoms: C_10  and  C_11
REMARK    9  A    between atoms: C_11  and  C_12
REMARK   10  A    between atoms: C_12  and  C_13
REMARK   11  A    between atoms: C_13  and  C_14
REMARK   12  A    between atoms: C_14  and  C_15
REMARK   13  A    between atoms: N_17  and  O_18
REMARK   14  A    between atoms: C_19  and  C_20
REMARK   15  A    between atoms: C_19  and  C_21
REMARK                            x       y       z     vdW  Elec       q    Type
REMARK                         _______ _______ _______ _____ _____    ______ ____
ROOT
ATOM      1  N   UNL     1       5.136   6.253  17.817  0.00  0.00    +0.000 N 
ATOM      2  C   UNL     1       4.532   5.900  18.998  0.00  0.00    +0.000 C 
ATOM      3  O   UNL     1       5.039   5.102  19.785  0.00  0.00    +0.000 OA
ATOM      4  H   UNL     1       4.722   6.972  17.234  0.00  0.00    +0.000 HD
ENDROOT
BRANCH   1   5
ATOM      5  C   UNL     1       6.457   5.734  17.436  0.00  0.00    +0.000 C 
BRANCH   5   6
ATOM      6  C   UNL     1       6.551   5.500  15.912  0.00  0.00    +0.000 C 
ATOM      7  C   UNL     1       6.795   4.023  15.575  0.00  0.00    +0.000 C 
ATOM      8  C   UNL     1       5.304   5.972  15.157  0.00  0.00    +0.000 C 
ENDBRANCH   5   6
BRANCH   5   9
ATOM      9  C   UNL     1       7.554   6.693  17.937  0.00  0.00    +0.000 C 
ATOM     10  O   UNL     1       8.201   6.523  18.965  0.00  0.00    +0.000 OA
BRANCH   9  12
ATOM     11  C   UNL     1       7.993   9.000  17.786  0.00  0.00    +0.000 C 
ATOM     12  O   UNL     1       7.670   7.779  17.117  0.00  0.00    +0.000 OA
ENDBRANCH   9  12
ENDBRANCH   5   9
ENDBRANCH   1   5
BRANCH   2  13
ATOM     13  C   UNL     1       3.183   6.549  19.236  0.00  0.00    +0.000 C 
BRANCH  13  14
ATOM     14  C   UNL     1       2.229   6.243  18.080  0.00  0.00    +0.000 C 
BRANCH  14  15
ATOM     15  C   UNL     1       1.728   4.803  18.082  0.00  0.00    +0.000 C 
BRANCH  15  16
ATOM     16  C   UNL     1       1.247   4.396  19.479  0.00  0.00    +0.000 C 
BRANCH  16  17
ATOM     17  C   UNL     1       0.663   2.986  19.464  0.00  0.00    +0.000 C 
BRANCH  17  18
ATOM     18  C   UNL     1       1.713   1.928  19.130  0.00  0.00    +0.000 C 
BRANCH  18  19
ATOM     19  C   UNL     1       3.019   2.208  19.842  0.00  0.00    +0.000 C 
ATOM     20  O   UNL     1       3.120   2.458  21.040  0.00  0.00    +0.000 OA
ATOM     21  N   UNL     1       4.117   2.164  19.022  0.00  0.00    +0.000 N 
ATOM     22  H   UNL     1       4.113   1.934  18.035  0.00  0.00    +0.000 HD
BRANCH  21  23
ATOM     23  O   UNL     1       5.367   2.411  19.631  0.00  0.00    +0.000 OA
ATOM     24  H   UNL     1       5.174   3.201  20.185  0.00  0.00    +0.000 HD
ENDBRANCH  21  23
ENDBRANCH  18  19
ENDBRANCH  17  18
ENDBRANCH  16  17
ENDBRANCH  15  16
ENDBRANCH  14  15
ENDBRANCH  13  14
ENDBRANCH   2  13
TORSDOF 12
ENDMDL
MODEL 6
REMARK VINA RESULT:      -5.8      4.261      8.108
REMARK  Name = 
REMARK  15 active torsions:
REMARK  status: ('A' for Active; 'I' for Inactive)
REMARK    1  A    between atoms: C_1  and  O_2
REMARK    2  A    between atoms: O_2  and  C_3
REMARK    3  A    between atoms: C_3  and  C_5
REMARK    4  A    between atoms: C_5  and  N_6
REMARK    5  A    between atoms: C_5  and  C_19
REMARK    6  A    between atoms: C_7  and  C_9
REMARK    7  A    between atoms: C_9  and  C_10
REMARK    8  A    between atoms: C_10  and  C_11
REMARK    9  A    between atoms: C_11  and  C_12
REMARK   10  A    between atoms: C_12  and  C_13
REMARK   11  A    between atoms: C_13  and  C_14
REMARK   12  A    between atoms: C_14  and  C_15
REMARK   13  A    between atoms: N_17  and  O_18
REMARK   14  A    between atoms: C_19  and  C_20
REMARK   15  A    between atoms: C_19  and  C_21
REMARK                            x       y       z     vdW  Elec       q    Type
REMARK                         _______ _______ _______ _____ _____    ______ ____
ROOT
ATOM      1  N   UNL     1       7.020   5.988  16.808  0.00  0.00    +0.000 N 
ATOM      2  C   UNL     1       7.560   5.871  18.064  0.00  0.00    +0.000 C 
ATOM      3  O   UNL     1       7.504   4.827  18.712  0.00  0.00    +0.000 OA
ATOM      4  H   UNL     1       7.156   6.841  16.278  0.00  0.00    +0.000 HD
ENDROOT
BRANCH   1   5
ATOM      5  C   UNL     1       6.376   4.853  16.132  0.00  0.00    +0.000 C 
BRANCH   5   6
ATOM      6  C   UNL     1       4.849   4.845  16.375  0.00  0.00    +0.000 C 
ATOM      7  C   UNL     1       4.417   3.662  17.252  0.00  0.00    +0.000 C 
ATOM      8  C   UNL     1       4.342   6.140  17.019  0.00  0.00    +0.000 C 
ENDBRANCH   5   6
BRANCH   5   9
ATOM      9  C   UNL     1       6.715   4.886  14.630  0.00  0.00    +0.000 C 
ATOM     10  O   UNL     1       7.722   5.408  14.162  0.00  0.00    +0.000 OA
BRANCH   9  12
ATOM     11  C   UNL     1       6.185   3.506  12.798  0.00  0.00    +0.000 C 
ATOM     12  O   UNL     1       5.724   4.307  13.888  0.00  0.00    +0.000 OA
ENDBRANCH   9  12
ENDBRANCH   5   9
ENDBRANCH   1   5
BRANCH   2  13
ATOM     13  C   UNL     1       8.203   7.137  18.595  0.00  0.00    +0.000 C 
BRANCH  13  14
ATOM     14  C   UNL     1       7.709   8.357  17.815  0.00  0.00    +0.000 C 
BRANCH  14  15
ATOM     15  C   UNL     1       8.803   9.388  17.560  0.00  0.00    +0.000 C 
BRANCH  15  16
ATOM     16  C   UNL     1       8.606  10.622  18.448  0.00  0.00    +0.000 C 
BRANCH  16  17
ATOM     17  C   UNL     1       9.951  11.205  18.875  0.00  0.00    +0.000 C 
BRANCH  17  18
ATOM     18  C   UNL     1      10.770  11.701  17.685  0.00  0.00    +0.000 C 
BRANCH  18  19
ATOM     19  C   UNL     1      10.557  13.182  17.453  0.00  0.00    +0.000 C 
ATOM     20  O   UNL     1       9.931  13.923  18.206  0.00  0.00    +0.000 OA
ATOM     21  N   UNL     1      11.132  13.649  16.299  0.00  0.00    +0.000 N 
ATOM     22  H   UNL     1      11.687  13.105  15.648  0.00  0.00    +0.000 HD
BRANCH  21  23
ATOM     23  O   UNL     1      10.972  15.026  16.031  0.00  0.00    +0.000 OA
ATOM     24  H   UNL     1      11.516  15.439  16.740  0.00  0.00    +0.000 HD
ENDBRANCH  21  23
ENDBRANCH  18  19
ENDBRANCH  17  18
ENDBRANCH  16  17
ENDBRANCH  15  16
ENDBRANCH  14  15
ENDBRANCH  13  14
ENDBRANCH   2  13
TORSDOF 12
ENDMDL
MODEL 7
REMARK VINA RESULT:      -5.8      4.914      8.817
REMARK  Name = 
REMARK  15 active torsions:
REMARK  status: ('A' for Active; 'I' for Inactive)
REMARK    1  A    between atoms: C_1  and  O_2
REMARK    2  A    between atoms: O_2  and  C_3
REMARK    3  A    between atoms: C_3  and  C_5
REMARK    4  A    between atoms: C_5  and  N_6
REMARK    5  A    between atoms: C_5  and  C_19
REMARK    6  A    between atoms: C_7  and  C_9
REMARK    7  A    between atoms: C_9  and  C_10
REMARK    8  A    between atoms: C_10  and  C_11
REMARK    9  A    between atoms: C_11  and  C_12
REMARK   10  A    between atoms: C_12  and  C_13
REMARK   11  A    between atoms: C_13  and  C_14
REMARK   12  A    between atoms: C_14  and  C_15
REMARK   13  A    between atoms: N_17  and  O_18
REMARK   14  A    between atoms: C_19  and  C_20
REMARK   15  A    between atoms: C_19  and  C_21
REMARK                            x       y       z     vdW  Elec       q    Type
REMARK                         _______ _______ _______ _____ _____    ______ ____
ROOT
ATOM      1  N   UNL     1       6.710   7.450  17.169  0.00  0.00    +0.000 N 
ATOM      2  C   UNL     1       7.730   7.845  17.998  0.00  0.00    +0.000 C 
ATOM      3  O   UNL     1       8.255   7.081  18.806  0.00  0.00    +0.000 OA
ATOM      4  H   UNL     1       6.357   8.089  16.465  0.00  0.00    +0.000 HD
ENDROOT
BRANCH   1   5
ATOM      5  C   UNL     1       6.208   6.070  17.159  0.00  0.00    +0.000 C 
BRANCH   5   6
ATOM      6  C   UNL     1       4.693   6.023  16.856  0.00  0.00    +0.000 C 
ATOM      7  C   UNL     1       4.020   4.803  17.499  0.00  0.00    +0.000 C 
ATOM      8  C   UNL     1       3.954   7.285  17.314  0.00  0.00    +0.000 C 
ENDBRANCH   5   6
BRANCH   5   9
ATOM      9  C   UNL     1       7.019   5.232  16.151  0.00  0.00    +0.000 C 
ATOM     10  O   UNL     1       7.926   4.467  16.463  0.00  0.00    +0.000 OA
BRANCH   9  12
ATOM     11  C   UNL     1       6.389   4.336  14.068  0.00  0.00    +0.000 C 
ATOM     12  O   UNL     1       6.632   5.496  14.868  0.00  0.00    +0.000 OA
ENDBRANCH   9  12
ENDBRANCH   5   9
ENDBRANCH   1   5
BRANCH   2  13
ATOM     13  C   UNL     1       8.132   9.299  17.857  0.00  0.00    +0.000 C 
BRANCH  13  14
ATOM     14  C   UNL     1       9.278   9.634  18.815  0.00  0.00    +0.000 C 
BRANCH  14  15
ATOM     15  C   UNL     1       9.132  11.003  19.468  0.00  0.00    +0.000 C 
BRANCH  15  16
ATOM     16  C   UNL     1      10.469  11.474  20.052  0.00  0.00    +0.000 C 
BRANCH  16  17
ATOM     17  C   UNL     1      10.802  12.886  19.580  0.00  0.00    +0.000 C 
BRANCH  17  18
ATOM     18  C   UNL     1      10.046  13.264  18.308  0.00  0.00    +0.000 C 
BRANCH  18  19
ATOM     19  C   UNL     1      10.853  14.220  17.454  0.00  0.00    +0.000 C 
ATOM     20  O   UNL     1      12.064  14.133  17.266  0.00  0.00    +0.000 OA
ATOM     21  N   UNL     1      10.108  15.223  16.891  0.00  0.00    +0.000 N 
ATOM     22  H   UNL     1       9.105  15.339  16.976  0.00  0.00    +0.000 HD
BRANCH  21  23
ATOM     23  O   UNL     1      10.807  16.143  16.078  0.00  0.00    +0.000 OA
ATOM     24  H   UNL     1      11.664  16.229  16.552  0.00  0.00    +0.000 HD
ENDBRANCH  21  23
ENDBRANCH  18  19
ENDBRANCH  17  18
ENDBRANCH  16  17
ENDBRANCH  15  16
ENDBRANCH  14  15
ENDBRANCH  13  14
ENDBRANCH   2  13
TORSDOF 12
ENDMDL
MODEL 8
REMARK VINA RESULT:      -5.7      1.845      3.036
REMARK  Name = 
REMARK  15 active torsions:
REMARK  status: ('A' for Active; 'I' for Inactive)
REMARK    1  A    between atoms: C_1  and  O_2
REMARK    2  A    between atoms: O_2  and  C_3
REMARK    3  A    between atoms: C_3  and  C_5
REMARK    4  A    between atoms: C_5  and  N_6
REMARK    5  A    between atoms: C_5  and  C_19
REMARK    6  A    between atoms: C_7  and  C_9
REMARK    7  A    between atoms: C_9  and  C_10
REMARK    8  A    between atoms: C_10  and  C_11
REMARK    9  A    between atoms: C_11  and  C_12
REMARK   10  A    between atoms: C_12  and  C_13
REMARK   11  A    between atoms: C_13  and  C_14
REMARK   12  A    between atoms: C_14  and  C_15
REMARK   13  A    between atoms: N_17  and  O_18
REMARK   14  A    between atoms: C_19  and  C_20
REMARK   15  A    between atoms: C_19  and  C_21
REMARK                            x       y       z     vdW  Elec       q    Type
REMARK                         _______ _______ _______ _____ _____    ______ ____
ROOT
ATOM      1  N   UNL     1       5.769   3.972  16.654  0.00  0.00    +0.000 N 
ATOM      2  C   UNL     1       4.459   3.986  17.063  0.00  0.00    +0.000 C 
ATOM      3  O   UNL     1       3.756   4.992  16.988  0.00  0.00    +0.000 OA
ATOM      4  H   UNL     1       6.290   3.102  16.661  0.00  0.00    +0.000 HD
ENDROOT
BRANCH   1   5
ATOM      5  C   UNL     1       6.406   5.150  16.051  0.00  0.00    +0.000 C 
BRANCH   5   6
ATOM      6  C   UNL     1       7.506   5.728  16.971  0.00  0.00    +0.000 C 
ATOM      7  C   UNL     1       7.190   7.165  17.407  0.00  0.00    +0.000 C 
ATOM      8  C   UNL     1       7.741   4.879  18.225  0.00  0.00    +0.000 C 
ENDBRANCH   5   6
BRANCH   5   9
ATOM      9  C   UNL     1       6.957   4.786  14.659  0.00  0.00    +0.000 C 
ATOM     10  O   UNL     1       7.843   5.410  14.084  0.00  0.00    +0.000 OA
BRANCH   9  12
ATOM     11  C   UNL     1       6.385   3.596  12.711  0.00  0.00    +0.000 C 
ATOM     12  O   UNL     1       6.294   3.714  14.132  0.00  0.00    +0.000 OA
ENDBRANCH   9  12
ENDBRANCH   5   9
ENDBRANCH   1   5
BRANCH   2  13
ATOM     13  C   UNL     1       3.964   2.675  17.640  0.00  0.00    +0.000 C 
BRANCH  13  14
ATOM     14  C   UNL     1       4.207   2.627  19.150  0.00  0.00    +0.000 C 
BRANCH  14  15
ATOM     15  C   UNL     1       3.084   1.937  19.917  0.00  0.00    +0.000 C 
BRANCH  15  16
ATOM     16  C   UNL     1       2.811   2.654  21.244  0.00  0.00    +0.000 C 
BRANCH  16  17
ATOM     17  C   UNL     1       1.326   2.972  21.394  0.00  0.00    +0.000 C 
BRANCH  17  18
ATOM     18  C   UNL     1       0.817   3.895  20.289  0.00  0.00    +0.000 C 
BRANCH  18  19
ATOM     19  C   UNL     1       1.537   5.226  20.311  0.00  0.00    +0.000 C 
ATOM     20  O   UNL     1       1.654   5.938  21.305  0.00  0.00    +0.000 OA
ATOM     21  N   UNL     1       2.062   5.592  19.099  0.00  0.00    +0.000 N 
ATOM     22  H   UNL     1       2.032   5.043  18.248  0.00  0.00    +0.000 HD
BRANCH  21  23
ATOM     23  O   UNL     1       2.752   6.823  19.060  0.00  0.00    +0.000 OA
ATOM     24  H   UNL     1       2.187   7.358  18.457  0.00  0.00    +0.000 HD
ENDBRANCH  21  23
ENDBRANCH  18  19
ENDBRANCH  17  18
ENDBRANCH  16  17
ENDBRANCH  15  16
ENDBRANCH  14  15
ENDBRANCH  13  14
ENDBRANCH   2  13
TORSDOF 12
ENDMDL
MODEL 9
REMARK VINA RESULT:      -5.7      1.586      2.638
REMARK  Name = 
REMARK  15 active torsions:
REMARK  status: ('A' for Active; 'I' for Inactive)
REMARK    1  A    between atoms: C_1  and  O_2
REMARK    2  A    between atoms: O_2  and  C_3
REMARK    3  A    between atoms: C_3  and  C_5
REMARK    4  A    between atoms: C_5  and  N_6
REMARK    5  A    between atoms: C_5  and  C_19
REMARK    6  A    between atoms: C_7  and  C_9
REMARK    7  A    between atoms: C_9  and  C_10
REMARK    8  A    between atoms: C_10  and  C_11
REMARK    9  A    between atoms: C_11  and  C_12
REMARK   10  A    between atoms: C_12  and  C_13
REMARK   11  A    between atoms: C_13  and  C_14
REMARK   12  A    between atoms: C_14  and  C_15
REMARK   13  A    between atoms: N_17  and  O_18
REMARK   14  A    between atoms: C_19  and  C_20
REMARK   15  A    between atoms: C_19  and  C_21
REMARK                            x       y       z     vdW  Elec       q    Type
REMARK                         _______ _______ _______ _____ _____    ______ ____
ROOT
ATOM      1  N   UNL     1       5.099   6.284  17.746  0.00  0.00    +0.000 N 
ATOM      2  C   UNL     1       4.507   6.016  18.954  0.00  0.00    +0.000 C 
ATOM      3  O   UNL     1       5.043   5.313  19.810  0.00  0.00    +0.000 OA
ATOM      4  H   UNL     1       4.657   6.929  17.101  0.00  0.00    +0.000 HD
ENDROOT
BRANCH   1   5
ATOM      5  C   UNL     1       6.440   5.785  17.412  0.00  0.00    +0.000 C 
BRANCH   5   6
ATOM      6  C   UNL     1       6.578   5.514  15.896  0.00  0.00    +0.000 C 
ATOM      7  C   UNL     1       6.827   4.028  15.603  0.00  0.00    +0.000 C 
ATOM      8  C   UNL     1       5.355   5.971  15.095  0.00  0.00    +0.000 C 
ENDBRANCH   5   6
BRANCH   5   9
ATOM      9  C   UNL     1       7.502   6.781  17.913  0.00  0.00    +0.000 C 
ATOM     10  O   UNL     1       8.231   6.583  18.880  0.00  0.00    +0.000 OA
BRANCH   9  12
ATOM     11  C   UNL     1       8.057   9.067  17.829  0.00  0.00    +0.000 C 
ATOM     12  O   UNL     1       7.486   7.931  17.176  0.00  0.00    +0.000 OA
ENDBRANCH   9  12
ENDBRANCH   5   9
ENDBRANCH   1   5
BRANCH   2  13
ATOM     13  C   UNL     1       3.133   6.630  19.135  0.00  0.00    +0.000 C 
BRANCH  13  14
ATOM     14  C   UNL     1       2.265   5.748  20.036  0.00  0.00    +0.000 C 
BRANCH  14  15
ATOM     15  C   UNL     1       1.374   4.788  19.256  0.00  0.00    +0.000 C 
BRANCH  15  16
ATOM     16  C   UNL     1       0.600   3.869  20.208  0.00  0.00    +0.000 C 
BRANCH  16  17
ATOM     17  C   UNL     1       1.476   2.709  20.675  0.00  0.00    +0.000 C 
BRANCH  17  18
ATOM     18  C   UNL     1       1.780   1.723  19.550  0.00  0.00    +0.000 C 
BRANCH  18  19
ATOM     19  C   UNL     1       3.165   1.949  18.981  0.00  0.00    +0.000 C 
ATOM     20  O   UNL     1       3.478   1.751  17.810  0.00  0.00    +0.000 OA
ATOM     21  N   UNL     1       4.073   2.404  19.902  0.00  0.00    +0.000 N 
ATOM     22  H   UNL     1       3.879   2.619  20.873  0.00  0.00    +0.000 HD
BRANCH  21  23
ATOM     23  O   UNL     1       5.382   2.640  19.428  0.00  0.00    +0.000 OA
ATOM     24  H   UNL     1       5.499   3.600  19.611  0.00  0.00    +0.000 HD
ENDBRANCH  21  23
ENDBRANCH  18  19
ENDBRANCH  17  18
ENDBRANCH  16  17
ENDBRANCH  15  16
ENDBRANCH  14  15
ENDBRANCH  13  14
ENDBRANCH   2  13
TORSDOF 12
ENDMDL
