MODEL 1
REMARK VINA RESULT:      -8.3      0.000      0.000
REMARK  Name = 
REMARK  8 active torsions:
REMARK  status: ('A' for Active; 'I' for Inactive)
REMARK    1  A    between atoms: C_1  and  O_2
REMARK    2  A    between atoms: O_2  and  C_3
REMARK    3  A    between atoms: C_6  and  C_7
REMARK    4  A    between atoms: C_8  and  C_9
REMARK    5  A    between atoms: N_11  and  C_12
REMARK    6  A    between atoms: C_17  and  C_18
REMARK    7  A    between atoms: C_20  and  S_21
REMARK    8  A    between atoms: S_21  and  N_24
REMARK                            x       y       z     vdW  Elec       q    Type
REMARK                         _______ _______ _______ _____ _____    ______ ____
ROOT
ATOM      1  C   UNL     1       2.609   3.995  19.831  0.00  0.00    +0.000 A 
ATOM      2  C   UNL     1       1.637   4.449  20.720  0.00  0.00    +0.000 A 
ATOM      3  C   UNL     1       1.369   5.833  20.825  0.00  0.00    +0.000 A 
ATOM      4  C   UNL     1       2.097   6.777  20.081  0.00  0.00    +0.000 A 
ATOM      5  C   UNL     1       3.081   6.311  19.199  0.00  0.00    +0.000 A 
ATOM      6  C   UNL     1       3.318   4.930  19.069  0.00  0.00    +0.000 A 
ENDROOT
BRANCH   6   7
ATOM      7  S   UNL     1       4.584   4.300  17.989  0.00  0.00    +0.000 S 
ATOM      8  O   UNL     1       5.737   4.064  18.828  0.00  0.00    +0.000 OA
ATOM      9  O   UNL     1       4.022   3.263  17.142  0.00  0.00    +0.000 OA
BRANCH   7  10
ATOM     10  N   UNL     1       4.983   5.574  16.931  0.00  0.00    +0.000 NA
ATOM     11  C   UNL     1       5.344   5.194  15.524  0.00  0.00    +0.000 C 
ATOM     12  C   UNL     1       6.841   4.950  15.315  0.00  0.00    +0.000 C 
ATOM     13  O   UNL     1       7.628   6.036  15.812  0.00  0.00    +0.000 OA
ATOM     14  C   UNL     1       7.415   6.197  17.217  0.00  0.00    +0.000 C 
ATOM     15  C   UNL     1       5.958   6.551  17.518  0.00  0.00    +0.000 C 
ENDBRANCH   7  10
ENDBRANCH   6   7
BRANCH   1  17
ATOM     16  C   UNL     1       1.726   1.827  19.185  0.00  0.00    +0.000 C 
ATOM     17  O   UNL     1       2.804   2.689  19.503  0.00  0.00    +0.000 OA
ENDBRANCH   1  17
BRANCH   4  18
ATOM     18  C   UNL     1       1.788   8.215  20.172  0.00  0.00    +0.000 C 
ATOM     19  C   UNL     1       1.007   8.765  21.126  0.00  0.00    +0.000 C 
BRANCH  19  20
ATOM     20  C   UNL     1       0.757  10.232  21.149  0.00  0.00    +0.000 C 
ATOM     21  O   UNL     1       0.368  10.777  22.175  0.00  0.00    +0.000 OA
ATOM     22  N   UNL     1       0.975  10.838  19.914  0.00  0.00    +0.000 N 
ATOM     23  H   UNL     1       1.142  10.231  19.132  0.00  0.00    +0.000 HD
BRANCH  22  24
ATOM     24  C   UNL     1       0.899  12.226  19.637  0.00  0.00    +0.000 A 
ATOM     25  C   UNL     1       1.918  13.110  20.010  0.00  0.00    +0.000 A 
ATOM     26  C   UNL     1       1.836  14.476  19.726  0.00  0.00    +0.000 A 
ATOM     27  C   UNL     1       0.737  14.982  19.049  0.00  0.00    +0.000 A 
ATOM     28  C   UNL     1      -0.285  14.119  18.655  0.00  0.00    +0.000 A 
ATOM     29  C   UNL     1      -0.222  12.740  18.943  0.00  0.00    +0.000 A 
ATOM     30  C   UNL     1      -1.376  11.882  18.504  0.00  0.00    +0.000 C 
ENDBRANCH  22  24
ENDBRANCH  19  20
ENDBRANCH   4  18
TORSDOF 6
ENDMDL
MODEL 2
REMARK VINA RESULT:      -8.2      6.145     10.865
REMARK  Name = 
REMARK  8 active torsions:
REMARK  status: ('A' for Active; 'I' for Inactive)
REMARK    1  A    between atoms: C_1  and  O_2
REMARK    2  A    between atoms: O_2  and  C_3
REMARK    3  A    between atoms: C_6  and  C_7
REMARK    4  A    between atoms: C_8  and  C_9
REMARK    5  A    between atoms: N_11  and  C_12
REMARK    6  A    between atoms: C_17  and  C_18
REMARK    7  A    between atoms: C_20  and  S_21
REMARK    8  A    between atoms: S_21  and  N_24
REMARK                            x       y       z     vdW  Elec       q    Type
REMARK                         _______ _______ _______ _____ _____    ______ ____
ROOT
ATOM      1  C   UNL     1      10.510  13.611  18.078  0.00  0.00    +0.000 A 
ATOM      2  C   UNL     1      11.123  12.513  17.480  0.00  0.00    +0.000 A 
ATOM      3  C   UNL     1      10.576  11.221  17.650  0.00  0.00    +0.000 A 
ATOM      4  C   UNL     1       9.444  11.006  18.455  0.00  0.00    +0.000 A 
ATOM      5  C   UNL     1       8.843  12.116  19.063  0.00  0.00    +0.000 A 
ATOM      6  C   UNL     1       9.367  13.405  18.859  0.00  0.00    +0.000 A 
ENDROOT
BRANCH   6   7
ATOM      7  S   UNL     1       8.655  14.835  19.643  0.00  0.00    +0.000 S 
ATOM      8  O   UNL     1       7.626  14.329  20.524  0.00  0.00    +0.000 OA
ATOM      9  O   UNL     1       9.717  15.704  20.116  0.00  0.00    +0.000 OA
BRANCH   7  10
ATOM     10  N   UNL     1       7.874  15.714  18.410  0.00  0.00    +0.000 NA
ATOM     11  C   UNL     1       7.332  17.063  18.784  0.00  0.00    +0.000 C 
ATOM     12  C   UNL     1       5.880  17.032  19.269  0.00  0.00    +0.000 C 
ATOM     13  O   UNL     1       5.032  16.331  18.356  0.00  0.00    +0.000 OA
ATOM     14  C   UNL     1       5.465  14.974  18.222  0.00  0.00    +0.000 C 
ATOM     15  C   UNL     1       6.877  14.900  17.640  0.00  0.00    +0.000 C 
ENDBRANCH   7  10
ENDBRANCH   6   7
BRANCH   1  17
ATOM     16  C   UNL     1      12.119  15.292  17.385  0.00  0.00    +0.000 C 
ATOM     17  O   UNL     1      10.826  14.908  17.817  0.00  0.00    +0.000 OA
ENDBRANCH   1  17
BRANCH   4  18
ATOM     18  C   UNL     1       8.862   9.660  18.600  0.00  0.00    +0.000 C 
ATOM     19  C   UNL     1       8.178   9.019  17.628  0.00  0.00    +0.000 C 
BRANCH  19  20
ATOM     20  C   UNL     1       7.634   7.654  17.858  0.00  0.00    +0.000 C 
ATOM     21  O   UNL     1       8.130   6.926  18.709  0.00  0.00    +0.000 OA
ATOM     22  N   UNL     1       6.585   7.336  16.998  0.00  0.00    +0.000 N 
ATOM     23  H   UNL     1       6.396   7.981  16.252  0.00  0.00    +0.000 HD
BRANCH  22  24
ATOM     24  C   UNL     1       5.813   6.148  17.022  0.00  0.00    +0.000 A 
ATOM     25  C   UNL     1       4.732   5.987  17.896  0.00  0.00    +0.000 A 
ATOM     26  C   UNL     1       3.973   4.814  17.907  0.00  0.00    +0.000 A 
ATOM     27  C   UNL     1       4.273   3.782  17.030  0.00  0.00    +0.000 A 
ATOM     28  C   UNL     1       5.336   3.924  16.140  0.00  0.00    +0.000 A 
ATOM     29  C   UNL     1       6.118   5.097  16.124  0.00  0.00    +0.000 A 
ATOM     30  C   UNL     1       7.261   5.161  15.149  0.00  0.00    +0.000 C 
ENDBRANCH  22  24
ENDBRANCH  19  20
ENDBRANCH   4  18
TORSDOF 6
ENDMDL
MODEL 3
REMARK VINA RESULT:      -8.2      0.839      1.264
REMARK  Name = 
REMARK  8 active torsions:
REMARK  status: ('A' for Active; 'I' for Inactive)
REMARK    1  A    between atoms: C_1  and  O_2
REMARK    2  A    between atoms: O_2  and  C_3
REMARK    3  A    between atoms: C_6  and  C_7
REMARK    4  A    between atoms: C_8  and  C_9
REMARK    5  A    between atoms: N_11  and  C_12
REMARK    6  A    between atoms: C_17  and  C_18
REMARK    7  A    between atoms: C_20  and  S_21
REMARK    8  A    between atoms: S_21  and  N_24
REMARK                            x       y       z     vdW  Elec       q    Type
REMARK                         _______ _______ _______ _____ _____    ______ ____
ROOT
ATOM      1  C   UNL     1       2.520   3.789  19.931  0.00  0.00    +0.000 A 
ATOM      2  C   UNL     1       1.472   4.230  20.735  0.00  0.00    +0.000 A 
ATOM      3  C   UNL     1       1.197   5.612  20.841  0.00  0.00    +0.000 A 
ATOM      4  C   UNL     1       1.993   6.567  20.185  0.00  0.00    +0.000 A 
ATOM      5  C   UNL     1       3.053   6.114  19.390  0.00  0.00    +0.000 A 
ATOM      6  C   UNL     1       3.298   4.735  19.255  0.00  0.00    +0.000 A 
ENDROOT
BRANCH   6   7
ATOM      7  S   UNL     1       4.657   4.121  18.284  0.00  0.00    +0.000 S 
ATOM      8  O   UNL     1       5.559   3.491  19.223  0.00  0.00    +0.000 OA
ATOM      9  O   UNL     1       4.141   3.421  17.123  0.00  0.00    +0.000 OA
BRANCH   7  10
ATOM     10  N   UNL     1       5.455   5.492  17.663  0.00  0.00    +0.000 NA
ATOM     11  C   UNL     1       5.043   5.947  16.293  0.00  0.00    +0.000 C 
ATOM     12  C   UNL     1       5.867   5.327  15.162  0.00  0.00    +0.000 C 
ATOM     13  O   UNL     1       7.272   5.468  15.392  0.00  0.00    +0.000 OA
ATOM     14  C   UNL     1       7.643   4.804  16.603  0.00  0.00    +0.000 C 
ATOM     15  C   UNL     1       6.946   5.430  17.812  0.00  0.00    +0.000 C 
ENDBRANCH   7  10
ENDBRANCH   6   7
BRANCH   1  17
ATOM     16  C   UNL     1       1.771   1.712  18.919  0.00  0.00    +0.000 C 
ATOM     17  O   UNL     1       2.742   2.489  19.598  0.00  0.00    +0.000 OA
ENDBRANCH   1  17
BRANCH   4  18
ATOM     18  C   UNL     1       1.679   8.005  20.275  0.00  0.00    +0.000 C 
ATOM     19  C   UNL     1       0.966   8.566  21.275  0.00  0.00    +0.000 C 
BRANCH  19  20
ATOM     20  C   UNL     1       0.707  10.031  21.292  0.00  0.00    +0.000 C 
ATOM     21  O   UNL     1       0.746  10.653  22.346  0.00  0.00    +0.000 OA
ATOM     22  N   UNL     1       0.395  10.540  20.034  0.00  0.00    +0.000 N 
ATOM     23  H   UNL     1       0.252   9.875  19.296  0.00  0.00    +0.000 HD
BRANCH  22  24
ATOM     24  C   UNL     1       0.177  11.903  19.713  0.00  0.00    +0.000 A 
ATOM     25  C   UNL     1      -0.918  12.614  20.214  0.00  0.00    +0.000 A 
ATOM     26  C   UNL     1      -1.121  13.960  19.896  0.00  0.00    +0.000 A 
ATOM     27  C   UNL     1      -0.218  14.626  19.081  0.00  0.00    +0.000 A 
ATOM     28  C   UNL     1       0.889  13.943  18.580  0.00  0.00    +0.000 A 
ATOM     29  C   UNL     1       1.101  12.582  18.883  0.00  0.00    +0.000 A 
ATOM     30  C   UNL     1       2.308  11.914  18.283  0.00  0.00    +0.000 C 
ENDBRANCH  22  24
ENDBRANCH  19  20
ENDBRANCH   4  18
TORSDOF 6
ENDMDL
MODEL 4
REMARK VINA RESULT:      -8.1      6.343     10.863
REMARK  Name = 
REMARK  8 active torsions:
REMARK  status: ('A' for Active; 'I' for Inactive)
REMARK    1  A    between atoms: C_1  and  O_2
REMARK    2  A    between atoms: O_2  and  C_3
REMARK    3  A    between atoms: C_6  and  C_7
REMARK    4  A    between atoms: C_8  and  C_9
REMARK    5  A    between atoms: N_11  and  C_12
REMARK    6  A    between atoms: C_17  and  C_18
REMARK    7  A    between atoms: C_20  and  S_21
REMARK    8  A    between atoms: S_21  and  N_24
REMARK                            x       y       z     vdW  Elec       q    Type
REMARK                         _______ _______ _______ _____ _____    ______ ____
ROOT
ATOM      1  C   UNL     1      10.664  13.387  18.487  0.00  0.00    +0.000 A 
ATOM      2  C   UNL     1      11.053  12.367  17.620  0.00  0.00    +0.000 A 
ATOM      3  C   UNL     1      10.446  11.094  17.712  0.00  0.00    +0.000 A 
ATOM      4  C   UNL     1       9.483  10.813  18.696  0.00  0.00    +0.000 A 
ATOM      5  C   UNL     1       9.108  11.841  19.571  0.00  0.00    +0.000 A 
ATOM      6  C   UNL     1       9.686  13.119  19.451  0.00  0.00    +0.000 A 
ENDROOT
BRANCH   6   7
ATOM      7  S   UNL     1       9.265  14.441  20.565  0.00  0.00    +0.000 S 
ATOM      8  O   UNL     1      10.453  14.687  21.352  0.00  0.00    +0.000 OA
ATOM      9  O   UNL     1       8.595  15.497  19.828  0.00  0.00    +0.000 OA
BRANCH   7  10
ATOM     10  N   UNL     1       8.083  13.814  21.620  0.00  0.00    +0.000 NA
ATOM     11  C   UNL     1       6.795  14.577  21.719  0.00  0.00    +0.000 C 
ATOM     12  C   UNL     1       6.787  15.637  22.823  0.00  0.00    +0.000 C 
ATOM     13  O   UNL     1       7.205  15.096  24.079  0.00  0.00    +0.000 OA
ATOM     14  C   UNL     1       8.540  14.593  23.980  0.00  0.00    +0.000 C 
ATOM     15  C   UNL     1       8.626  13.448  22.970  0.00  0.00    +0.000 C 
ENDBRANCH   7  10
ENDBRANCH   6   7
BRANCH   1  17
ATOM     16  C   UNL     1      11.164  15.308  17.087  0.00  0.00    +0.000 C 
ATOM     17  O   UNL     1      11.028  14.691  18.355  0.00  0.00    +0.000 OA
ENDBRANCH   1  17
BRANCH   4  18
ATOM     18  C   UNL     1       8.832   9.492  18.764  0.00  0.00    +0.000 C 
ATOM     19  C   UNL     1       8.203   8.902  17.725  0.00  0.00    +0.000 C 
BRANCH  19  20
ATOM     20  C   UNL     1       7.583   7.558  17.879  0.00  0.00    +0.000 C 
ATOM     21  O   UNL     1       8.061   6.742  18.658  0.00  0.00    +0.000 OA
ATOM     22  N   UNL     1       6.488   7.368  17.040  0.00  0.00    +0.000 N 
ATOM     23  H   UNL     1       6.315   8.075  16.349  0.00  0.00    +0.000 HD
BRANCH  22  24
ATOM     24  C   UNL     1       5.644   6.230  17.010  0.00  0.00    +0.000 A 
ATOM     25  C   UNL     1       4.473   6.158  17.773  0.00  0.00    +0.000 A 
ATOM     26  C   UNL     1       3.644   5.034  17.732  0.00  0.00    +0.000 A 
ATOM     27  C   UNL     1       3.964   3.962  16.912  0.00  0.00    +0.000 A 
ATOM     28  C   UNL     1       5.118   4.015  16.132  0.00  0.00    +0.000 A 
ATOM     29  C   UNL     1       5.970   5.138  16.170  0.00  0.00    +0.000 A 
ATOM     30  C   UNL     1       7.207   5.106  15.316  0.00  0.00    +0.000 C 
ENDBRANCH  22  24
ENDBRANCH  19  20
ENDBRANCH   4  18
TORSDOF 6
ENDMDL
MODEL 5
REMARK VINA RESULT:      -8.1      6.400     10.877
REMARK  Name = 
REMARK  8 active torsions:
REMARK  status: ('A' for Active; 'I' for Inactive)
REMARK    1  A    between atoms: C_1  and  O_2
REMARK    2  A    between atoms: O_2  and  C_3
REMARK    3  A    between atoms: C_6  and  C_7
REMARK    4  A    between atoms: C_8  and  C_9
REMARK    5  A    between atoms: N_11  and  C_12
REMARK    6  A    between atoms: C_17  and  C_18
REMARK    7  A    between atoms: C_20  and  S_21
REMARK    8  A    between atoms: S_21  and  N_24
REMARK                            x       y       z     vdW  Elec       q    Type
REMARK                         _______ _______ _______ _____ _____    ______ ____
ROOT
ATOM      1  C   UNL     1      10.425  13.685  18.848  0.00  0.00    +0.000 A 
ATOM      2  C   UNL     1      10.875  12.824  17.849  0.00  0.00    +0.000 A 
ATOM      3  C   UNL     1      10.424  11.485  17.817  0.00  0.00    +0.000 A 
ATOM      4  C   UNL     1       9.560  10.981  18.804  0.00  0.00    +0.000 A 
ATOM      5  C   UNL     1       9.123  11.851  19.811  0.00  0.00    +0.000 A 
ATOM      6  C   UNL     1       9.544  13.194  19.817  0.00  0.00    +0.000 A 
ENDROOT
BRANCH   6   7
ATOM      7  S   UNL     1       9.041  14.321  21.099  0.00  0.00    +0.000 S 
ATOM      8  O   UNL     1      10.226  14.570  21.891  0.00  0.00    +0.000 OA
ATOM      9  O   UNL     1       8.263  15.398  20.515  0.00  0.00    +0.000 OA
BRANCH   7  10
ATOM     10  N   UNL     1       7.949  13.463  22.085  0.00  0.00    +0.000 NA
ATOM     11  C   UNL     1       6.589  14.071  22.271  0.00  0.00    +0.000 C 
ATOM     12  C   UNL     1       6.488  15.000  23.484  0.00  0.00    +0.000 C 
ATOM     13  O   UNL     1       6.979  14.374  24.672  0.00  0.00    +0.000 OA
ATOM     14  C   UNL     1       8.358  14.028  24.513  0.00  0.00    +0.000 C 
ATOM     15  C   UNL     1       8.547  13.014  23.385  0.00  0.00    +0.000 C 
ENDBRANCH   7  10
ENDBRANCH   6   7
BRANCH   1  17
ATOM     16  C   UNL     1      11.907  15.595  18.622  0.00  0.00    +0.000 C 
ATOM     17  O   UNL     1      10.629  15.030  18.856  0.00  0.00    +0.000 OA
ENDBRANCH   1  17
BRANCH   4  18
ATOM     18  C   UNL     1       9.069   9.592  18.744  0.00  0.00    +0.000 C 
ATOM     19  C   UNL     1       8.158   9.147  17.852  0.00  0.00    +0.000 C 
BRANCH  19  20
ATOM     20  C   UNL     1       7.728   7.722  17.856  0.00  0.00    +0.000 C 
ATOM     21  O   UNL     1       8.168   6.946  18.695  0.00  0.00    +0.000 OA
ATOM     22  N   UNL     1       6.851   7.419  16.817  0.00  0.00    +0.000 N 
ATOM     23  H   UNL     1       6.707   8.127  16.121  0.00  0.00    +0.000 HD
BRANCH  22  24
ATOM     24  C   UNL     1       6.207   6.174  16.601  0.00  0.00    +0.000 A 
ATOM     25  C   UNL     1       6.874   5.088  16.024  0.00  0.00    +0.000 A 
ATOM     26  C   UNL     1       6.232   3.863  15.822  0.00  0.00    +0.000 A 
ATOM     27  C   UNL     1       4.910   3.698  16.208  0.00  0.00    +0.000 A 
ATOM     28  C   UNL     1       4.229   4.761  16.798  0.00  0.00    +0.000 A 
ATOM     29  C   UNL     1       4.860   6.006  16.999  0.00  0.00    +0.000 A 
ATOM     30  C   UNL     1       4.047   7.108  17.620  0.00  0.00    +0.000 C 
ENDBRANCH  22  24
ENDBRANCH  19  20
ENDBRANCH   4  18
TORSDOF 6
ENDMDL
MODEL 6
REMARK VINA RESULT:      -8.0      6.139     10.813
REMARK  Name = 
REMARK  8 active torsions:
REMARK  status: ('A' for Active; 'I' for Inactive)
REMARK    1  A    between atoms: C_1  and  O_2
REMARK    2  A    between atoms: O_2  and  C_3
REMARK    3  A    between atoms: C_6  and  C_7
REMARK    4  A    between atoms: C_8  and  C_9
REMARK    5  A    between atoms: N_11  and  C_12
REMARK    6  A    between atoms: C_17  and  C_18
REMARK    7  A    between atoms: C_20  and  S_21
REMARK    8  A    between atoms: S_21  and  N_24
REMARK                            x       y       z     vdW  Elec       q    Type
REMARK                         _______ _______ _______ _____ _____    ______ ____
ROOT
ATOM      1  C   UNL     1      10.675  13.916  18.080  0.00  0.00    +0.000 A 
ATOM      2  C   UNL     1      11.496  12.816  17.842  0.00  0.00    +0.000 A 
ATOM      3  C   UNL     1      10.978  11.508  17.976  0.00  0.00    +0.000 A 
ATOM      4  C   UNL     1       9.655  11.285  18.393  0.00  0.00    +0.000 A 
ATOM      5  C   UNL     1       8.841  12.398  18.643  0.00  0.00    +0.000 A 
ATOM      6  C   UNL     1       9.349  13.699  18.469  0.00  0.00    +0.000 A 
ENDROOT
BRANCH   6   7
ATOM      7  S   UNL     1       8.360  15.138  18.811  0.00  0.00    +0.000 S 
ATOM      8  O   UNL     1       8.924  15.729  20.005  0.00  0.00    +0.000 OA
ATOM      9  O   UNL     1       8.176  15.897  17.589  0.00  0.00    +0.000 OA
BRANCH   7  10
ATOM     10  N   UNL     1       6.809  14.563  19.219  0.00  0.00    +0.000 NA
ATOM     11  C   UNL     1       5.706  14.852  18.243  0.00  0.00    +0.000 C 
ATOM     12  C   UNL     1       4.964  16.162  18.519  0.00  0.00    +0.000 C 
ATOM     13  O   UNL     1       4.533  16.249  19.880  0.00  0.00    +0.000 OA
ATOM     14  C   UNL     1       5.662  16.205  20.759  0.00  0.00    +0.000 C 
ATOM     15  C   UNL     1       6.410  14.877  20.630  0.00  0.00    +0.000 C 
ENDBRANCH   7  10
ENDBRANCH   6   7
BRANCH   1  17
ATOM     16  C   UNL     1      12.256  15.544  17.214  0.00  0.00    +0.000 C 
ATOM     17  O   UNL     1      11.005  15.203  17.786  0.00  0.00    +0.000 OA
ENDBRANCH   1  17
BRANCH   4  18
ATOM     18  C   UNL     1       9.113   9.918  18.499  0.00  0.00    +0.000 C 
ATOM     19  C   UNL     1       8.262   9.368  17.607  0.00  0.00    +0.000 C 
BRANCH  19  20
ATOM     20  C   UNL     1       7.774   7.973  17.786  0.00  0.00    +0.000 C 
ATOM     21  O   UNL     1       8.199   7.283  18.704  0.00  0.00    +0.000 OA
ATOM     22  N   UNL     1       6.866   7.587  16.803  0.00  0.00    +0.000 N 
ATOM     23  H   UNL     1       6.736   8.214  16.030  0.00  0.00    +0.000 HD
BRANCH  22  24
ATOM     24  C   UNL     1       6.168   6.355  16.746  0.00  0.00    +0.000 A 
ATOM     25  C   UNL     1       6.790   5.172  16.332  0.00  0.00    +0.000 A 
ATOM     26  C   UNL     1       6.095   3.960  16.286  0.00  0.00    +0.000 A 
ATOM     27  C   UNL     1       4.763   3.907  16.668  0.00  0.00    +0.000 A 
ATOM     28  C   UNL     1       4.124   5.070  17.097  0.00  0.00    +0.000 A 
ATOM     29  C   UNL     1       4.809   6.302  17.139  0.00  0.00    +0.000 A 
ATOM     30  C   UNL     1       4.041   7.513  17.592  0.00  0.00    +0.000 C 
ENDBRANCH  22  24
ENDBRANCH  19  20
ENDBRANCH   4  18
TORSDOF 6
ENDMDL
MODEL 7
REMARK VINA RESULT:      -7.9      1.570      1.813
REMARK  Name = 
REMARK  8 active torsions:
REMARK  status: ('A' for Active; 'I' for Inactive)
REMARK    1  A    between atoms: C_1  and  O_2
REMARK    2  A    between atoms: O_2  and  C_3
REMARK    3  A    between atoms: C_6  and  C_7
REMARK    4  A    between atoms: C_8  and  C_9
REMARK    5  A    between atoms: N_11  and  C_12
REMARK    6  A    between atoms: C_17  and  C_18
REMARK    7  A    between atoms: C_20  and  S_21
REMARK    8  A    between atoms: S_21  and  N_24
REMARK                            x       y       z     vdW  Elec       q    Type
REMARK                         _______ _______ _______ _____ _____    ______ ____
ROOT
ATOM      1  C   UNL     1       2.216   3.889  19.764  0.00  0.00    +0.000 A 
ATOM      2  C   UNL     1       1.179   4.355  20.570  0.00  0.00    +0.000 A 
ATOM      3  C   UNL     1       1.036   5.742  20.803  0.00  0.00    +0.000 A 
ATOM      4  C   UNL     1       1.951   6.669  20.276  0.00  0.00    +0.000 A 
ATOM      5  C   UNL     1       2.998   6.189  19.479  0.00  0.00    +0.000 A 
ATOM      6  C   UNL     1       3.113   4.812  19.216  0.00  0.00    +0.000 A 
ENDROOT
BRANCH   6   7
ATOM      7  S   UNL     1       4.449   4.159  18.239  0.00  0.00    +0.000 S 
ATOM      8  O   UNL     1       5.281   3.413  19.158  0.00  0.00    +0.000 OA
ATOM      9  O   UNL     1       3.914   3.565  17.028  0.00  0.00    +0.000 OA
BRANCH   7  10
ATOM     10  N   UNL     1       5.356   5.502  17.716  0.00  0.00    +0.000 NA
ATOM     11  C   UNL     1       5.062   6.020  16.339  0.00  0.00    +0.000 C 
ATOM     12  C   UNL     1       5.926   5.389  15.244  0.00  0.00    +0.000 C 
ATOM     13  O   UNL     1       7.317   5.448  15.569  0.00  0.00    +0.000 OA
ATOM     14  C   UNL     1       7.572   4.730  16.779  0.00  0.00    +0.000 C 
ATOM     15  C   UNL     1       6.829   5.356  17.960  0.00  0.00    +0.000 C 
ENDBRANCH   7  10
ENDBRANCH   6   7
BRANCH   1  17
ATOM     16  C   UNL     1       1.239   1.936  18.701  0.00  0.00    +0.000 C 
ATOM     17  O   UNL     1       2.325   2.611  19.311  0.00  0.00    +0.000 OA
ENDBRANCH   1  17
BRANCH   4  18
ATOM     18  C   UNL     1       1.775   8.116  20.498  0.00  0.00    +0.000 C 
ATOM     19  C   UNL     1       0.664   8.674  21.025  0.00  0.00    +0.000 C 
BRANCH  19  20
ATOM     20  C   UNL     1       0.578  10.146  21.225  0.00  0.00    +0.000 C 
ATOM     21  O   UNL     1       1.530  10.765  21.685  0.00  0.00    +0.000 OA
ATOM     22  N   UNL     1      -0.667  10.668  20.878  0.00  0.00    +0.000 N 
ATOM     23  H   UNL     1      -1.393  10.010  20.663  0.00  0.00    +0.000 HD
BRANCH  22  24
ATOM     24  C   UNL     1      -1.031  12.038  20.882  0.00  0.00    +0.000 A 
ATOM     25  C   UNL     1      -0.692  12.895  19.829  0.00  0.00    +0.000 A 
ATOM     26  C   UNL     1      -1.062  14.243  19.839  0.00  0.00    +0.000 A 
ATOM     27  C   UNL     1      -1.792  14.756  20.900  0.00  0.00    +0.000 A 
ATOM     28  C   UNL     1      -2.153  13.919  21.955  0.00  0.00    +0.000 A 
ATOM     29  C   UNL     1      -1.779  12.559  21.964  0.00  0.00    +0.000 A 
ATOM     30  C   UNL     1      -2.188  11.731  23.150  0.00  0.00    +0.000 C 
ENDBRANCH  22  24
ENDBRANCH  19  20
ENDBRANCH   4  18
TORSDOF 6
ENDMDL
MODEL 8
REMARK VINA RESULT:      -7.9      6.263     10.932
REMARK  Name = 
REMARK  8 active torsions:
REMARK  status: ('A' for Active; 'I' for Inactive)
REMARK    1  A    between atoms: C_1  and  O_2
REMARK    2  A    between atoms: O_2  and  C_3
REMARK    3  A    between atoms: C_6  and  C_7
REMARK    4  A    between atoms: C_8  and  C_9
REMARK    5  A    between atoms: N_11  and  C_12
REMARK    6  A    between atoms: C_17  and  C_18
REMARK    7  A    between atoms: C_20  and  S_21
REMARK    8  A    between atoms: S_21  and  N_24
REMARK                            x       y       z     vdW  Elec       q    Type
REMARK                         _______ _______ _______ _____ _____    ______ ____
ROOT
ATOM      1  C   UNL     1      10.588  13.879  18.219  0.00  0.00    +0.000 A 
ATOM      2  C   UNL     1      11.332  12.874  17.605  0.00  0.00    +0.000 A 
ATOM      3  C   UNL     1      10.886  11.534  17.659  0.00  0.00    +0.000 A 
ATOM      4  C   UNL     1       9.723  11.178  18.363  0.00  0.00    +0.000 A 
ATOM      5  C   UNL     1       8.989  12.195  18.988  0.00  0.00    +0.000 A 
ATOM      6  C   UNL     1       9.415  13.533  18.898  0.00  0.00    +0.000 A 
ENDROOT
BRANCH   6   7
ATOM      7  S   UNL     1       8.532  14.848  19.709  0.00  0.00    +0.000 S 
ATOM      8  O   UNL     1       7.483  14.206  20.471  0.00  0.00    +0.000 OA
ATOM      9  O   UNL     1       9.480  15.761  20.319  0.00  0.00    +0.000 OA
BRANCH   7  10
ATOM     10  N   UNL     1       7.778  15.746  18.473  0.00  0.00    +0.000 NA
ATOM     11  C   UNL     1       7.552  17.205  18.743  0.00  0.00    +0.000 C 
ATOM     12  C   UNL     1       6.195  17.512  19.382  0.00  0.00    +0.000 C 
ATOM     13  O   UNL     1       5.120  16.913  18.654  0.00  0.00    +0.000 OA
ATOM     14  C   UNL     1       5.269  15.490  18.634  0.00  0.00    +0.000 C 
ATOM     15  C   UNL     1       6.555  15.080  17.915  0.00  0.00    +0.000 C 
ENDBRANCH   7  10
ENDBRANCH   6   7
BRANCH   1  17
ATOM     16  C   UNL     1      12.114  15.736  17.870  0.00  0.00    +0.000 C 
ATOM     17  O   UNL     1      10.811  15.211  18.058  0.00  0.00    +0.000 OA
ENDBRANCH   1  17
BRANCH   4  18
ATOM     18  C   UNL     1       9.248   9.783  18.385  0.00  0.00    +0.000 C 
ATOM     19  C   UNL     1       8.116   9.357  17.785  0.00  0.00    +0.000 C 
BRANCH  19  20
ATOM     20  C   UNL     1       7.718   7.924  17.848  0.00  0.00    +0.000 C 
ATOM     21  O   UNL     1       8.212   7.182  18.688  0.00  0.00    +0.000 OA
ATOM     22  N   UNL     1       6.802   7.572  16.860  0.00  0.00    +0.000 N 
ATOM     23  H   UNL     1       6.610   8.257  16.151  0.00  0.00    +0.000 HD
BRANCH  22  24
ATOM     24  C   UNL     1       6.177   6.309  16.709  0.00  0.00    +0.000 A 
ATOM     25  C   UNL     1       6.873   5.192  16.235  0.00  0.00    +0.000 A 
ATOM     26  C   UNL     1       6.248   3.949  16.096  0.00  0.00    +0.000 A 
ATOM     27  C   UNL     1       4.915   3.798  16.445  0.00  0.00    +0.000 A 
ATOM     28  C   UNL     1       4.203   4.893  16.934  0.00  0.00    +0.000 A 
ATOM     29  C   UNL     1       4.816   6.155  17.069  0.00  0.00    +0.000 A 
ATOM     30  C   UNL     1       3.972   7.289  17.581  0.00  0.00    +0.000 C 
ENDBRANCH  22  24
ENDBRANCH  19  20
ENDBRANCH   4  18
TORSDOF 6
ENDMDL
MODEL 9
REMARK VINA RESULT:      -7.9      1.443      1.671
REMARK  Name = 
REMARK  8 active torsions:
REMARK  status: ('A' for Active; 'I' for Inactive)
REMARK    1  A    between atoms: C_1  and  O_2
REMARK    2  A    between atoms: O_2  and  C_3
REMARK    3  A    between atoms: C_6  and  C_7
REMARK    4  A    between atoms: C_8  and  C_9
REMARK    5  A    between atoms: N_11  and  C_12
REMARK    6  A    between atoms: C_17  and  C_18
REMARK    7  A    between atoms: C_20  and  S_21
REMARK    8  A    between atoms: S_21  and  N_24
REMARK                            x       y       z     vdW  Elec       q    Type
REMARK                         _______ _______ _______ _____ _____    ______ ____
ROOT
ATOM      1  C   UNL     1       2.525   4.680  20.238  0.00  0.00    +0.000 A 
ATOM      2  C   UNL     1       1.634   5.461  20.972  0.00  0.00    +0.000 A 
ATOM      3  C   UNL     1       1.404   6.805  20.601  0.00  0.00    +0.000 A 
ATOM      4  C   UNL     1       2.093   7.395  19.528  0.00  0.00    +0.000 A 
ATOM      5  C   UNL     1       2.996   6.606  18.805  0.00  0.00    +0.000 A 
ATOM      6  C   UNL     1       3.193   5.257  19.153  0.00  0.00    +0.000 A 
ENDROOT
BRANCH   6   7
ATOM      7  S   UNL     1       4.358   4.231  18.283  0.00  0.00    +0.000 S 
ATOM      8  O   UNL     1       5.228   3.676  19.296  0.00  0.00    +0.000 OA
ATOM      9  O   UNL     1       3.648   3.395  17.333  0.00  0.00    +0.000 OA
BRANCH   7  10
ATOM     10  N   UNL     1       5.302   5.285  17.333  0.00  0.00    +0.000 NA
ATOM     11  C   UNL     1       5.368   4.989  15.863  0.00  0.00    +0.000 C 
ATOM     12  C   UNL     1       6.531   4.075  15.468  0.00  0.00    +0.000 C 
ATOM     13  O   UNL     1       7.775   4.546  15.992  0.00  0.00    +0.000 OA
ATOM     14  C   UNL     1       7.727   4.580  17.422  0.00  0.00    +0.000 C 
ATOM     15  C   UNL     1       6.658   5.556  17.914  0.00  0.00    +0.000 C 
ENDBRANCH   7  10
ENDBRANCH   6   7
BRANCH   1  17
ATOM     16  C   UNL     1       2.189   2.645  21.519  0.00  0.00    +0.000 C 
ATOM     17  O   UNL     1       2.667   3.335  20.378  0.00  0.00    +0.000 OA
ENDBRANCH   1  17
BRANCH   4  18
ATOM     18  C   UNL     1       1.822   8.788  19.128  0.00  0.00    +0.000 C 
ATOM     19  C   UNL     1       0.866   9.565  19.682  0.00  0.00    +0.000 C 
BRANCH  19  20
ATOM     20  C   UNL     1       0.670  10.967  19.224  0.00  0.00    +0.000 C 
ATOM     21  O   UNL     1      -0.227  11.240  18.436  0.00  0.00    +0.000 OA
ATOM     22  N   UNL     1       1.613  11.847  19.752  0.00  0.00    +0.000 N 
ATOM     23  H   UNL     1       2.378  11.443  20.261  0.00  0.00    +0.000 HD
BRANCH  22  24
ATOM     24  C   UNL     1       1.642  13.251  19.567  0.00  0.00    +0.000 A 
ATOM     25  C   UNL     1       2.324  13.842  18.498  0.00  0.00    +0.000 A 
ATOM     26  C   UNL     1       2.342  15.229  18.322  0.00  0.00    +0.000 A 
ATOM     27  C   UNL     1       1.662  16.052  19.207  0.00  0.00    +0.000 A 
ATOM     28  C   UNL     1       0.964  15.486  20.273  0.00  0.00    +0.000 A 
ATOM     29  C   UNL     1       0.945  14.090  20.470  0.00  0.00    +0.000 A 
ATOM     30  C   UNL     1       0.188  13.562  21.657  0.00  0.00    +0.000 C 
ENDBRANCH  22  24
ENDBRANCH  19  20
ENDBRANCH   4  18
TORSDOF 6
ENDMDL
