MODEL 1
REMARK VINA RESULT:      -7.0      0.000      0.000
REMARK  Name = 
REMARK  4 active torsions:
REMARK  status: ('A' for Active; 'I' for Inactive)
REMARK    1  A    between atoms: C_2  and  C_3
REMARK    2  A    between atoms: N_5  and  C_6
REMARK    3  A    between atoms: C_9  and  S_10
REMARK    4  A    between atoms: S_10  and  N_13
REMARK                            x       y       z     vdW  Elec       q    Type
REMARK                         _______ _______ _______ _____ _____    ______ ____
ROOT
ATOM      1  C   UNL     1       5.980   4.244  14.777  0.00  0.00    +0.000 A 
ATOM      2  C   UNL     1       5.538   5.567  14.910  0.00  0.00    +0.000 A 
ATOM      3  C   UNL     1       4.895   5.999  16.078  0.00  0.00    +0.000 A 
ATOM      4  C   UNL     1       4.678   5.105  17.126  0.00  0.00    +0.000 A 
ATOM      5  C   UNL     1       5.133   3.788  17.019  0.00  0.00    +0.000 A 
ATOM      6  C   UNL     1       5.765   3.357  15.842  0.00  0.00    +0.000 A 
ENDROOT
BRANCH   1   9
ATOM      7  C   UNL     1       6.028   3.343  12.449  0.00  0.00    +0.000 C 
ATOM      8  O   UNL     1       4.837   3.422  12.177  0.00  0.00    +0.000 OA
ATOM      9  N   UNL     1       6.635   3.749  13.621  0.00  0.00    +0.000 N 
ATOM     10  H   UNL     1       7.646   3.737  13.650  0.00  0.00    +0.000 HD
BRANCH   7  12
ATOM     11  C   UNL     1       6.862   1.503  11.059  0.00  0.00    +0.000 C 
ATOM     12  C   UNL     1       6.989   2.775  11.460  0.00  0.00    +0.000 C 
ENDBRANCH   7  12
ENDBRANCH   1   9
BRANCH   4  13
ATOM     13  S   UNL     1       4.032   5.713  18.675  0.00  0.00    +0.000 S 
ATOM     14  O   UNL     1       5.072   5.519  19.667  0.00  0.00    +0.000 OA
ATOM     15  O   UNL     1       3.500   7.035  18.414  0.00  0.00    +0.000 OA
BRANCH  13  16
ATOM     16  N   UNL     1       2.742   4.715  19.072  0.00  0.00    +0.000 NA
ATOM     17  C   UNL     1       1.797   4.245  18.038  0.00  0.00    +0.000 C 
ATOM     18  C   UNL     1       2.102   2.797  17.607  0.00  0.00    +0.000 C 
ATOM     19  N   UNL     1       2.321   1.838  18.701  0.00  0.00    +0.000 NA
ATOM     20  C   UNL     1       3.182   2.371  19.767  0.00  0.00    +0.000 C 
ATOM     21  C   UNL     1       2.821   3.791  20.221  0.00  0.00    +0.000 C 
ATOM     22  H   UNL     1       2.750   0.994  18.318  0.00  0.00    +0.000 HD
ENDBRANCH  13  16
ENDBRANCH   4  13
TORSDOF 4
ENDMDL
MODEL 2
REMARK VINA RESULT:      -7.0      4.224      8.216
REMARK  Name = 
REMARK  4 active torsions:
REMARK  status: ('A' for Active; 'I' for Inactive)
REMARK    1  A    between atoms: C_2  and  C_3
REMARK    2  A    between atoms: N_5  and  C_6
REMARK    3  A    between atoms: C_9  and  S_10
REMARK    4  A    between atoms: S_10  and  N_13
REMARK                            x       y       z     vdW  Elec       q    Type
REMARK                         _______ _______ _______ _____ _____    ______ ____
ROOT
ATOM      1  C   UNL     1       1.392   8.277  19.949  0.00  0.00    +0.000 A 
ATOM      2  C   UNL     1       1.531   7.070  20.645  0.00  0.00    +0.000 A 
ATOM      3  C   UNL     1       2.276   6.010  20.110  0.00  0.00    +0.000 A 
ATOM      4  C   UNL     1       2.884   6.144  18.863  0.00  0.00    +0.000 A 
ATOM      5  C   UNL     1       2.774   7.350  18.164  0.00  0.00    +0.000 A 
ATOM      6  C   UNL     1       2.016   8.404  18.699  0.00  0.00    +0.000 A 
ENDROOT
BRANCH   1   9
ATOM      7  C   UNL     1       0.744   9.936  21.698  0.00  0.00    +0.000 C 
ATOM      8  O   UNL     1       1.537   9.623  22.577  0.00  0.00    +0.000 OA
ATOM      9  N   UNL     1       0.651   9.383  20.437  0.00  0.00    +0.000 N 
ATOM     10  H   UNL     1       0.031   9.833  19.775  0.00  0.00    +0.000 HD
BRANCH   7  12
ATOM     11  C   UNL     1      -1.100  10.945  22.961  0.00  0.00    +0.000 C 
ATOM     12  C   UNL     1      -0.246  11.027  21.932  0.00  0.00    +0.000 C 
ENDBRANCH   7  12
ENDBRANCH   1   9
BRANCH   4  13
ATOM     13  S   UNL     1       3.982   4.863  18.281  0.00  0.00    +0.000 S 
ATOM     14  O   UNL     1       4.432   4.134  19.450  0.00  0.00    +0.000 OA
ATOM     15  O   UNL     1       3.290   4.179  17.207  0.00  0.00    +0.000 OA
BRANCH  13  16
ATOM     16  N   UNL     1       5.308   5.645  17.613  0.00  0.00    +0.000 NA
ATOM     17  C   UNL     1       6.587   5.739  18.349  0.00  0.00    +0.000 C 
ATOM     18  C   UNL     1       7.609   4.701  17.845  0.00  0.00    +0.000 C 
ATOM     19  N   UNL     1       7.761   4.612  16.384  0.00  0.00    +0.000 NA
ATOM     20  C   UNL     1       6.475   4.626  15.671  0.00  0.00    +0.000 C 
ATOM     21  C   UNL     1       5.498   5.707  16.150  0.00  0.00    +0.000 C 
ATOM     22  H   UNL     1       8.258   3.750  16.156  0.00  0.00    +0.000 HD
ENDBRANCH  13  16
ENDBRANCH   4  13
TORSDOF 4
ENDMDL
MODEL 3
REMARK VINA RESULT:      -6.9      4.814      7.619
REMARK  Name = 
REMARK  4 active torsions:
REMARK  status: ('A' for Active; 'I' for Inactive)
REMARK    1  A    between atoms: C_2  and  C_3
REMARK    2  A    between atoms: N_5  and  C_6
REMARK    3  A    between atoms: C_9  and  S_10
REMARK    4  A    between atoms: S_10  and  N_13
REMARK                            x       y       z     vdW  Elec       q    Type
REMARK                         _______ _______ _______ _____ _____    ______ ____
ROOT
ATOM      1  C   UNL     1       1.171   9.643  18.733  0.00  0.00    +0.000 A 
ATOM      2  C   UNL     1       1.907   8.943  17.768  0.00  0.00    +0.000 A 
ATOM      3  C   UNL     1       2.510   7.714  18.071  0.00  0.00    +0.000 A 
ATOM      4  C   UNL     1       2.390   7.176  19.351  0.00  0.00    +0.000 A 
ATOM      5  C   UNL     1       1.640   7.850  20.320  0.00  0.00    +0.000 A 
ATOM      6  C   UNL     1       1.049   9.086  20.014  0.00  0.00    +0.000 A 
ENDROOT
BRANCH   1   9
ATOM      7  C   UNL     1       0.772  12.070  19.163  0.00  0.00    +0.000 C 
ATOM      8  O   UNL     1       1.618  12.263  20.028  0.00  0.00    +0.000 OA
ATOM      9  N   UNL     1       0.540  10.888  18.487  0.00  0.00    +0.000 N 
ATOM     10  H   UNL     1      -0.108  10.916  17.710  0.00  0.00    +0.000 HD
BRANCH   7  12
ATOM     11  C   UNL     1       0.325  14.436  18.706  0.00  0.00    +0.000 C 
ATOM     12  C   UNL     1      -0.130  13.176  18.732  0.00  0.00    +0.000 C 
ENDBRANCH   7  12
ENDBRANCH   1   9
BRANCH   4  13
ATOM     13  S   UNL     1       2.999   5.528  19.669  0.00  0.00    +0.000 S 
ATOM     14  O   UNL     1       4.446   5.601  19.628  0.00  0.00    +0.000 OA
ATOM     15  O   UNL     1       2.318   5.055  20.857  0.00  0.00    +0.000 OA
BRANCH  13  16
ATOM     16  N   UNL     1       2.488   4.580  18.381  0.00  0.00    +0.000 NA
ATOM     17  C   UNL     1       3.460   4.003  17.428  0.00  0.00    +0.000 C 
ATOM     18  C   UNL     1       3.735   2.517  17.730  0.00  0.00    +0.000 C 
ATOM     19  N   UNL     1       2.546   1.681  17.956  0.00  0.00    +0.000 NA
ATOM     20  C   UNL     1       1.549   2.324  18.825  0.00  0.00    +0.000 C 
ATOM     21  C   UNL     1       1.247   3.784  18.467  0.00  0.00    +0.000 C 
ATOM     22  H   UNL     1       2.839   0.799  18.382  0.00  0.00    +0.000 HD
ENDBRANCH  13  16
ENDBRANCH   4  13
TORSDOF 4
ENDMDL
MODEL 4
REMARK VINA RESULT:      -6.8      4.483      7.423
REMARK  Name = 
REMARK  4 active torsions:
REMARK  status: ('A' for Active; 'I' for Inactive)
REMARK    1  A    between atoms: C_2  and  C_3
REMARK    2  A    between atoms: N_5  and  C_6
REMARK    3  A    between atoms: C_9  and  S_10
REMARK    4  A    between atoms: S_10  and  N_13
REMARK                            x       y       z     vdW  Elec       q    Type
REMARK                         _______ _______ _______ _____ _____    ______ ____
ROOT
ATOM      1  C   UNL     1       1.265   9.312  19.272  0.00  0.00    +0.000 A 
ATOM      2  C   UNL     1       1.348   8.323  20.260  0.00  0.00    +0.000 A 
ATOM      3  C   UNL     1       2.074   7.144  20.042  0.00  0.00    +0.000 A 
ATOM      4  C   UNL     1       2.721   6.938  18.824  0.00  0.00    +0.000 A 
ATOM      5  C   UNL     1       2.668   7.925  17.836  0.00  0.00    +0.000 A 
ATOM      6  C   UNL     1       1.928   9.098  18.055  0.00  0.00    +0.000 A 
ENDROOT
BRANCH   1   9
ATOM      7  C   UNL     1      -0.613  10.879  18.771  0.00  0.00    +0.000 C 
ATOM      8  O   UNL     1      -1.260  10.180  18.002  0.00  0.00    +0.000 OA
ATOM      9  N   UNL     1       0.546  10.523  19.432  0.00  0.00    +0.000 N 
ATOM     10  H   UNL     1       0.897  11.162  20.134  0.00  0.00    +0.000 HD
BRANCH   7  12
ATOM     11  C   UNL     1      -0.728  13.279  18.279  0.00  0.00    +0.000 C 
ATOM     12  C   UNL     1      -1.063  12.265  19.089  0.00  0.00    +0.000 C 
ENDBRANCH   7  12
ENDBRANCH   1   9
BRANCH   4  13
ATOM     13  S   UNL     1       3.795   5.526  18.631  0.00  0.00    +0.000 S 
ATOM     14  O   UNL     1       4.916   5.960  17.822  0.00  0.00    +0.000 OA
ATOM     15  O   UNL     1       4.009   4.982  19.957  0.00  0.00    +0.000 OA
BRANCH  13  16
ATOM     16  N   UNL     1       2.927   4.390  17.751  0.00  0.00    +0.000 NA
ATOM     17  C   UNL     1       3.565   3.144  17.278  0.00  0.00    +0.000 C 
ATOM     18  C   UNL     1       3.206   1.945  18.178  0.00  0.00    +0.000 C 
ATOM     19  N   UNL     1       1.780   1.802  18.511  0.00  0.00    +0.000 NA
ATOM     20  C   UNL     1       1.145   3.076  18.878  0.00  0.00    +0.000 C 
ATOM     21  C   UNL     1       1.469   4.240  17.932  0.00  0.00    +0.000 C 
ATOM     22  H   UNL     1       1.687   1.148  19.291  0.00  0.00    +0.000 HD
ENDBRANCH  13  16
ENDBRANCH   4  13
TORSDOF 4
ENDMDL
MODEL 5
REMARK VINA RESULT:      -6.8      1.634      2.115
REMARK  Name = 
REMARK  4 active torsions:
REMARK  status: ('A' for Active; 'I' for Inactive)
REMARK    1  A    between atoms: C_2  and  C_3
REMARK    2  A    between atoms: N_5  and  C_6
REMARK    3  A    between atoms: C_9  and  S_10
REMARK    4  A    between atoms: S_10  and  N_13
REMARK                            x       y       z     vdW  Elec       q    Type
REMARK                         _______ _______ _______ _____ _____    ______ ____
ROOT
ATOM      1  C   UNL     1       5.990   5.454  15.856  0.00  0.00    +0.000 A 
ATOM      2  C   UNL     1       6.065   4.464  16.844  0.00  0.00    +0.000 A 
ATOM      3  C   UNL     1       5.241   4.511  17.977  0.00  0.00    +0.000 A 
ATOM      4  C   UNL     1       4.337   5.560  18.139  0.00  0.00    +0.000 A 
ATOM      5  C   UNL     1       4.234   6.544  17.152  0.00  0.00    +0.000 A 
ATOM      6  C   UNL     1       5.070   6.499  16.025  0.00  0.00    +0.000 A 
ENDROOT
BRANCH   1   9
ATOM      7  C   UNL     1       6.674   4.614  13.606  0.00  0.00    +0.000 C 
ATOM      8  O   UNL     1       5.800   3.774  13.430  0.00  0.00    +0.000 OA
ATOM      9  N   UNL     1       6.796   5.461  14.690  0.00  0.00    +0.000 N 
ATOM     10  H   UNL     1       7.497   6.190  14.635  0.00  0.00    +0.000 HD
BRANCH   7  12
ATOM     11  C   UNL     1       8.509   5.912  12.627  0.00  0.00    +0.000 C 
ATOM     12  C   UNL     1       7.743   4.814  12.586  0.00  0.00    +0.000 C 
ENDBRANCH   7  12
ENDBRANCH   1   9
BRANCH   4  13
ATOM     13  S   UNL     1       3.166   5.507  19.485  0.00  0.00    +0.000 S 
ATOM     14  O   UNL     1       3.821   4.825  20.583  0.00  0.00    +0.000 OA
ATOM     15  O   UNL     1       2.662   6.856  19.650  0.00  0.00    +0.000 OA
BRANCH  13  16
ATOM     16  N   UNL     1       1.890   4.549  18.964  0.00  0.00    +0.000 NA
ATOM     17  C   UNL     1       1.929   3.881  17.646  0.00  0.00    +0.000 C 
ATOM     18  C   UNL     1       2.305   2.392  17.775  0.00  0.00    +0.000 C 
ATOM     19  N   UNL     1       1.580   1.639  18.810  0.00  0.00    +0.000 NA
ATOM     20  C   UNL     1       1.467   2.370  20.080  0.00  0.00    +0.000 C 
ATOM     21  C   UNL     1       1.032   3.834  19.930  0.00  0.00    +0.000 C 
ATOM     22  H   UNL     1       2.067   0.756  18.977  0.00  0.00    +0.000 HD
ENDBRANCH  13  16
ENDBRANCH   4  13
TORSDOF 4
ENDMDL
MODEL 6
REMARK VINA RESULT:      -6.8      3.896      5.586
REMARK  Name = 
REMARK  4 active torsions:
REMARK  status: ('A' for Active; 'I' for Inactive)
REMARK    1  A    between atoms: C_2  and  C_3
REMARK    2  A    between atoms: N_5  and  C_6
REMARK    3  A    between atoms: C_9  and  S_10
REMARK    4  A    between atoms: S_10  and  N_13
REMARK                            x       y       z     vdW  Elec       q    Type
REMARK                         _______ _______ _______ _____ _____    ______ ____
ROOT
ATOM      1  C   UNL     1       7.272   7.560  17.726  0.00  0.00    +0.000 A 
ATOM      2  C   UNL     1       7.711   6.484  18.507  0.00  0.00    +0.000 A 
ATOM      3  C   UNL     1       6.866   5.399  18.782  0.00  0.00    +0.000 A 
ATOM      4  C   UNL     1       5.564   5.386  18.284  0.00  0.00    +0.000 A 
ATOM      5  C   UNL     1       5.118   6.442  17.484  0.00  0.00    +0.000 A 
ATOM      6  C   UNL     1       5.964   7.530  17.222  0.00  0.00    +0.000 A 
ENDROOT
BRANCH   1   9
ATOM      7  C   UNL     1       8.684   9.532  18.320  0.00  0.00    +0.000 C 
ATOM      8  O   UNL     1       8.697   9.411  19.538  0.00  0.00    +0.000 OA
ATOM      9  N   UNL     1       8.079   8.684  17.414  0.00  0.00    +0.000 N 
ATOM     10  H   UNL     1       8.261   8.845  16.431  0.00  0.00    +0.000 HD
BRANCH   7  12
ATOM     11  C   UNL     1      10.347  11.333  18.327  0.00  0.00    +0.000 C 
ATOM     12  C   UNL     1       9.379  10.680  17.670  0.00  0.00    +0.000 C 
ENDBRANCH   7  12
ENDBRANCH   1   9
BRANCH   4  13
ATOM     13  S   UNL     1       4.566   3.919  18.482  0.00  0.00    +0.000 S 
ATOM     14  O   UNL     1       4.506   3.276  17.184  0.00  0.00    +0.000 OA
ATOM     15  O   UNL     1       5.091   3.211  19.632  0.00  0.00    +0.000 OA
BRANCH  13  16
ATOM     16  N   UNL     1       3.022   4.449  18.872  0.00  0.00    +0.000 NA
ATOM     17  C   UNL     1       1.837   3.932  18.156  0.00  0.00    +0.000 C 
ATOM     18  C   UNL     1       1.104   2.852  18.976  0.00  0.00    +0.000 C 
ATOM     19  N   UNL     1       0.857   3.181  20.389  0.00  0.00    +0.000 NA
ATOM     20  C   UNL     1       2.022   3.790  21.049  0.00  0.00    +0.000 C 
ATOM     21  C   UNL     1       2.697   4.904  20.239  0.00  0.00    +0.000 C 
ATOM     22  H   UNL     1       0.602   2.327  20.887  0.00  0.00    +0.000 HD
ENDBRANCH  13  16
ENDBRANCH   4  13
TORSDOF 4
ENDMDL
MODEL 7
REMARK VINA RESULT:      -6.8      4.480      7.676
REMARK  Name = 
REMARK  4 active torsions:
REMARK  status: ('A' for Active; 'I' for Inactive)
REMARK    1  A    between atoms: C_2  and  C_3
REMARK    2  A    between atoms: N_5  and  C_6
REMARK    3  A    between atoms: C_9  and  S_10
REMARK    4  A    between atoms: S_10  and  N_13
REMARK                            x       y       z     vdW  Elec       q    Type
REMARK                         _______ _______ _______ _____ _____    ______ ____
ROOT
ATOM      1  C   UNL     1       1.527   9.191  19.008  0.00  0.00    +0.000 A 
ATOM      2  C   UNL     1       1.592   8.214  20.009  0.00  0.00    +0.000 A 
ATOM      3  C   UNL     1       2.278   7.009  19.799  0.00  0.00    +0.000 A 
ATOM      4  C   UNL     1       2.900   6.766  18.575  0.00  0.00    +0.000 A 
ATOM      5  C   UNL     1       2.864   7.740  17.574  0.00  0.00    +0.000 A 
ATOM      6  C   UNL     1       2.166   8.939  17.785  0.00  0.00    +0.000 A 
ENDROOT
BRANCH   1   9
ATOM      7  C   UNL     1      -0.374  10.761  18.615  0.00  0.00    +0.000 C 
ATOM      8  O   UNL     1      -1.117  10.023  17.980  0.00  0.00    +0.000 OA
ATOM      9  N   UNL     1       0.849  10.427  19.161  0.00  0.00    +0.000 N 
ATOM     10  H   UNL     1       1.290  11.107  19.768  0.00  0.00    +0.000 HD
BRANCH   7  12
ATOM     11  C   UNL     1       0.045  13.174  18.501  0.00  0.00    +0.000 C 
ATOM     12  C   UNL     1      -0.765  12.175  18.879  0.00  0.00    +0.000 C 
ENDBRANCH   7  12
ENDBRANCH   1   9
BRANCH   4  13
ATOM     13  S   UNL     1       3.926   5.317  18.387  0.00  0.00    +0.000 S 
ATOM     14  O   UNL     1       4.381   4.951  19.714  0.00  0.00    +0.000 OA
ATOM     15  O   UNL     1       3.174   4.377  17.580  0.00  0.00    +0.000 OA
BRANCH  13  16
ATOM     16  N   UNL     1       5.263   5.798  17.493  0.00  0.00    +0.000 NA
ATOM     17  C   UNL     1       6.564   6.051  18.146  0.00  0.00    +0.000 C 
ATOM     18  C   UNL     1       7.529   4.863  17.966  0.00  0.00    +0.000 C 
ATOM     19  N   UNL     1       7.636   4.328  16.599  0.00  0.00    +0.000 NA
ATOM     20  C   UNL     1       6.332   4.185  15.936  0.00  0.00    +0.000 C 
ATOM     21  C   UNL     1       5.412   5.404  16.078  0.00  0.00    +0.000 C 
ATOM     22  H   UNL     1       8.092   3.415  16.637  0.00  0.00    +0.000 HD
ENDBRANCH  13  16
ENDBRANCH   4  13
TORSDOF 4
ENDMDL
MODEL 8
REMARK VINA RESULT:      -6.8      4.655      7.874
REMARK  Name = 
REMARK  4 active torsions:
REMARK  status: ('A' for Active; 'I' for Inactive)
REMARK    1  A    between atoms: C_2  and  C_3
REMARK    2  A    between atoms: N_5  and  C_6
REMARK    3  A    between atoms: C_9  and  S_10
REMARK    4  A    between atoms: S_10  and  N_13
REMARK                            x       y       z     vdW  Elec       q    Type
REMARK                         _______ _______ _______ _____ _____    ______ ____
ROOT
ATOM      1  C   UNL     1       1.006   9.419  19.344  0.00  0.00    +0.000 A 
ATOM      2  C   UNL     1       1.264   8.442  20.315  0.00  0.00    +0.000 A 
ATOM      3  C   UNL     1       2.071   7.333  20.026  0.00  0.00    +0.000 A 
ATOM      4  C   UNL     1       2.623   7.184  18.755  0.00  0.00    +0.000 A 
ATOM      5  C   UNL     1       2.394   8.161  17.781  0.00  0.00    +0.000 A 
ATOM      6  C   UNL     1       1.575   9.263  18.072  0.00  0.00    +0.000 A 
ENDROOT
BRANCH   1   9
ATOM      7  C   UNL     1       0.375  11.498  20.573  0.00  0.00    +0.000 C 
ATOM      8  O   UNL     1       1.302  11.551  21.371  0.00  0.00    +0.000 OA
ATOM      9  N   UNL     1       0.198  10.560  19.575  0.00  0.00    +0.000 N 
ATOM     10  H   UNL     1      -0.550  10.721  18.912  0.00  0.00    +0.000 HD
BRANCH   7  12
ATOM     11  C   UNL     1      -1.111  13.109  19.474  0.00  0.00    +0.000 C 
ATOM     12  C   UNL     1      -0.708  12.523  20.609  0.00  0.00    +0.000 C 
ENDBRANCH   7  12
ENDBRANCH   1   9
BRANCH   4  13
ATOM     13  S   UNL     1       3.798   5.873  18.458  0.00  0.00    +0.000 S 
ATOM     14  O   UNL     1       4.829   6.421  17.600  0.00  0.00    +0.000 OA
ATOM     15  O   UNL     1       4.135   5.317  19.753  0.00  0.00    +0.000 OA
BRANCH  13  16
ATOM     16  N   UNL     1       2.977   4.690  17.596  0.00  0.00    +0.000 NA
ATOM     17  C   UNL     1       3.686   3.507  17.063  0.00  0.00    +0.000 C 
ATOM     18  C   UNL     1       3.466   2.267  17.952  0.00  0.00    +0.000 C 
ATOM     19  N   UNL     1       2.075   2.006  18.351  0.00  0.00    +0.000 NA
ATOM     20  C   UNL     1       1.362   3.219  18.778  0.00  0.00    +0.000 C 
ATOM     21  C   UNL     1       1.547   4.422  17.845  0.00  0.00    +0.000 C 
ATOM     22  H   UNL     1       2.073   1.332  19.119  0.00  0.00    +0.000 HD
ENDBRANCH  13  16
ENDBRANCH   4  13
TORSDOF 4
ENDMDL
MODEL 9
REMARK VINA RESULT:      -6.7      3.867      7.816
REMARK  Name = 
REMARK  4 active torsions:
REMARK  status: ('A' for Active; 'I' for Inactive)
REMARK    1  A    between atoms: C_2  and  C_3
REMARK    2  A    between atoms: N_5  and  C_6
REMARK    3  A    between atoms: C_9  and  S_10
REMARK    4  A    between atoms: S_10  and  N_13
REMARK                            x       y       z     vdW  Elec       q    Type
REMARK                         _______ _______ _______ _____ _____    ______ ____
ROOT
ATOM      1  C   UNL     1       1.798   7.111  20.375  0.00  0.00    +0.000 A 
ATOM      2  C   UNL     1       1.725   5.824  20.921  0.00  0.00    +0.000 A 
ATOM      3  C   UNL     1       2.027   4.693  20.148  0.00  0.00    +0.000 A 
ATOM      4  C   UNL     1       2.398   4.841  18.813  0.00  0.00    +0.000 A 
ATOM      5  C   UNL     1       2.499   6.120  18.259  0.00  0.00    +0.000 A 
ATOM      6  C   UNL     1       2.183   7.247  19.033  0.00  0.00    +0.000 A 
ENDROOT
BRANCH   1   9
ATOM      7  C   UNL     1       0.270   8.655  21.606  0.00  0.00    +0.000 C 
ATOM      8  O   UNL     1      -0.755   7.986  21.581  0.00  0.00    +0.000 OA
ATOM      9  N   UNL     1       1.504   8.291  21.104  0.00  0.00    +0.000 N 
ATOM     10  H   UNL     1       2.289   8.896  21.312  0.00  0.00    +0.000 HD
BRANCH   7  12
ATOM     11  C   UNL     1      -0.687  10.337  23.112  0.00  0.00    +0.000 C 
ATOM     12  C   UNL     1       0.272  10.006  22.237  0.00  0.00    +0.000 C 
ENDBRANCH   7  12
ENDBRANCH   1   9
BRANCH   4  13
ATOM     13  S   UNL     1       2.962   3.415  17.898  0.00  0.00    +0.000 S 
ATOM     14  O   UNL     1       2.867   2.279  18.793  0.00  0.00    +0.000 OA
ATOM     15  O   UNL     1       2.250   3.422  16.637  0.00  0.00    +0.000 OA
BRANCH  13  16
ATOM     16  N   UNL     1       4.586   3.681  17.565  0.00  0.00    +0.000 NA
ATOM     17  C   UNL     1       5.020   4.179  16.244  0.00  0.00    +0.000 C 
ATOM     18  C   UNL     1       5.323   5.690  16.278  0.00  0.00    +0.000 C 
ATOM     19  N   UNL     1       6.160   6.148  17.399  0.00  0.00    +0.000 NA
ATOM     20  C   UNL     1       5.770   5.555  18.686  0.00  0.00    +0.000 C 
ATOM     21  C   UNL     1       5.534   4.040  18.640  0.00  0.00    +0.000 C 
ATOM     22  H   UNL     1       6.092   7.165  17.467  0.00  0.00    +0.000 HD
ENDBRANCH  13  16
ENDBRANCH   4  13
TORSDOF 4
ENDMDL
