MODEL 1
REMARK VINA RESULT:      -8.3      0.000      0.000
REMARK  Name = 
REMARK  6 active torsions:
REMARK  status: ('A' for Active; 'I' for Inactive)
REMARK    1  A    between atoms: C_1  and  N_2
REMARK    2  A    between atoms: N_2  and  C_3
REMARK    3  A    between atoms: C_8  and  C_9
REMARK    4  A    between atoms: N_11  and  C_12
REMARK    5  A    between atoms: C_12  and  C_13
REMARK    6  A    between atoms: C_13  and  C_14
REMARK                            x       y       z     vdW  Elec       q    Type
REMARK                         _______ _______ _______ _____ _____    ______ ____
ROOT
ATOM      1  C   UNL     1       3.549   7.324  17.277  0.00  0.00    +0.000 C 
ENDROOT
BRANCH   1   2
ATOM      2  C   UNL     1       4.426   6.053  17.511  0.00  0.00    +0.000 C 
ATOM      3  C   UNL     1       5.693   6.395  18.354  0.00  0.00    +0.000 C 
ATOM      4  C   UNL     1       6.576   5.170  18.593  0.00  0.00    +0.000 C 
ATOM      5  C   UNL     1       6.997   4.564  17.277  0.00  0.00    +0.000 C 
ATOM      6  O   UNL     1       8.143   4.152  17.103  0.00  0.00    +0.000 OA
ATOM      7  C   UNL     1       5.916   4.341  16.243  0.00  0.00    +0.000 C 
ATOM      8  C   UNL     1       4.969   5.537  16.139  0.00  0.00    +0.000 C 
BRANCH   2   9
ATOM      9  C   UNL     1       3.513   5.032  18.241  0.00  0.00    +0.000 A 
ATOM     10  C   UNL     1       3.553   4.856  19.635  0.00  0.00    +0.000 A 
ATOM     11  C   UNL     1       2.705   3.946  20.279  0.00  0.00    +0.000 A 
ATOM     12  C   UNL     1       1.811   3.174  19.544  0.00  0.00    +0.000 A 
ATOM     13  C   UNL     1       1.782   3.294  18.161  0.00  0.00    +0.000 A 
ATOM     14  C   UNL     1       2.635   4.196  17.519  0.00  0.00    +0.000 A 
ENDBRANCH   2   9
ENDBRANCH   1   2
BRANCH   1  17
ATOM     15  C   UNL     1       1.956   8.894  18.301  0.00  0.00    +0.000 C 
ATOM     16  O   UNL     1       2.052   9.675  17.357  0.00  0.00    +0.000 OA
ATOM     17  N   UNL     1       2.611   7.675  18.335  0.00  0.00    +0.000 N 
ATOM     18  H   UNL     1       2.626   7.198  19.233  0.00  0.00    +0.000 HD
BRANCH  15  24
ATOM     19  C   UNL     1       0.171  10.291  19.512  0.00  0.00    +0.000 A 
ATOM     20  C   UNL     1      -0.582  10.452  20.692  0.00  0.00    +0.000 A 
ATOM     21  C   UNL     1      -0.307   9.720  21.852  0.00  0.00    +0.000 A 
ATOM     22  C   UNL     1       0.710   8.776  21.853  0.00  0.00    +0.000 A 
ATOM     23  C   UNL     1       1.427   8.542  20.682  0.00  0.00    +0.000 A 
ATOM     24  C   UNL     1       1.147   9.264  19.505  0.00  0.00    +0.000 A 
BRANCH  19  26
ATOM     25  C   UNL     1      -1.522  11.208  17.984  0.00  0.00    +0.000 C 
ATOM     26  N   UNL     1      -0.119  11.043  18.348  0.00  0.00    +0.000 N 
ATOM     27  H   UNL     1       0.333  11.959  18.422  0.00  0.00    +0.000 HD
ENDBRANCH  19  26
ENDBRANCH  15  24
ENDBRANCH   1  17
TORSDOF 5
ENDMDL
MODEL 2
REMARK VINA RESULT:      -8.3      1.666      3.474
REMARK  Name = 
REMARK  6 active torsions:
REMARK  status: ('A' for Active; 'I' for Inactive)
REMARK    1  A    between atoms: C_1  and  N_2
REMARK    2  A    between atoms: N_2  and  C_3
REMARK    3  A    between atoms: C_8  and  C_9
REMARK    4  A    between atoms: N_11  and  C_12
REMARK    5  A    between atoms: C_12  and  C_13
REMARK    6  A    between atoms: C_13  and  C_14
REMARK                            x       y       z     vdW  Elec       q    Type
REMARK                         _______ _______ _______ _____ _____    ______ ____
ROOT
ATOM      1  C   UNL     1       3.229   7.044  18.132  0.00  0.00    +0.000 C 
ENDROOT
BRANCH   1   2
ATOM      2  C   UNL     1       3.354   5.500  18.323  0.00  0.00    +0.000 C 
ATOM      3  C   UNL     1       2.161   4.755  17.650  0.00  0.00    +0.000 C 
ATOM      4  C   UNL     1       2.251   3.239  17.828  0.00  0.00    +0.000 C 
ATOM      5  C   UNL     1       2.301   2.887  19.294  0.00  0.00    +0.000 C 
ATOM      6  O   UNL     1       1.671   1.928  19.740  0.00  0.00    +0.000 OA
ATOM      7  C   UNL     1       3.273   3.658  20.157  0.00  0.00    +0.000 C 
ATOM      8  C   UNL     1       3.251   5.156  19.845  0.00  0.00    +0.000 C 
BRANCH   2   9
ATOM      9  C   UNL     1       4.711   5.097  17.686  0.00  0.00    +0.000 A 
ATOM     10  C   UNL     1       4.806   4.618  16.368  0.00  0.00    +0.000 A 
ATOM     11  C   UNL     1       6.042   4.281  15.803  0.00  0.00    +0.000 A 
ATOM     12  C   UNL     1       7.212   4.396  16.547  0.00  0.00    +0.000 A 
ATOM     13  C   UNL     1       7.143   4.824  17.865  0.00  0.00    +0.000 A 
ATOM     14  C   UNL     1       5.908   5.151  18.432  0.00  0.00    +0.000 A 
ENDBRANCH   2   9
ENDBRANCH   1   2
BRANCH   1  17
ATOM     15  C   UNL     1       1.697   8.929  18.521  0.00  0.00    +0.000 C 
ATOM     16  O   UNL     1       1.954   9.422  17.424  0.00  0.00    +0.000 OA
ATOM     17  N   UNL     1       2.231   7.725  18.946  0.00  0.00    +0.000 N 
ATOM     18  H   UNL     1       2.116   7.506  19.932  0.00  0.00    +0.000 HD
BRANCH  15  24
ATOM     19  C   UNL     1      -0.257  10.498  19.092  0.00  0.00    +0.000 A 
ATOM     20  C   UNL     1      -1.061  11.034  20.116  0.00  0.00    +0.000 A 
ATOM     21  C   UNL     1      -0.756  10.853  21.469  0.00  0.00    +0.000 A 
ATOM     22  C   UNL     1       0.348  10.097  21.837  0.00  0.00    +0.000 A 
ATOM     23  C   UNL     1       1.123   9.495  20.850  0.00  0.00    +0.000 A 
ATOM     24  C   UNL     1       0.814   9.660  19.485  0.00  0.00    +0.000 A 
BRANCH  19  26
ATOM     25  C   UNL     1      -1.877  10.215  17.265  0.00  0.00    +0.000 C 
ATOM     26  N   UNL     1      -0.579  10.694  17.727  0.00  0.00    +0.000 N 
ATOM     27  H   UNL     1      -0.472  11.687  17.499  0.00  0.00    +0.000 HD
ENDBRANCH  19  26
ENDBRANCH  15  24
ENDBRANCH   1  17
TORSDOF 5
ENDMDL
MODEL 3
REMARK VINA RESULT:      -8.3      1.885      3.520
REMARK  Name = 
REMARK  6 active torsions:
REMARK  status: ('A' for Active; 'I' for Inactive)
REMARK    1  A    between atoms: C_1  and  N_2
REMARK    2  A    between atoms: N_2  and  C_3
REMARK    3  A    between atoms: C_8  and  C_9
REMARK    4  A    between atoms: N_11  and  C_12
REMARK    5  A    between atoms: C_12  and  C_13
REMARK    6  A    between atoms: C_13  and  C_14
REMARK                            x       y       z     vdW  Elec       q    Type
REMARK                         _______ _______ _______ _____ _____    ______ ____
ROOT
ATOM      1  C   UNL     1       2.852   7.214  18.537  0.00  0.00    +0.000 C 
ENDROOT
BRANCH   1   2
ATOM      2  C   UNL     1       3.069   5.669  18.599  0.00  0.00    +0.000 C 
ATOM      3  C   UNL     1       2.001   4.920  17.745  0.00  0.00    +0.000 C 
ATOM      4  C   UNL     1       2.183   3.402  17.792  0.00  0.00    +0.000 C 
ATOM      5  C   UNL     1       2.120   2.913  19.218  0.00  0.00    +0.000 C 
ATOM      6  O   UNL     1       1.522   1.878  19.510  0.00  0.00    +0.000 OA
ATOM      7  C   UNL     1       2.949   3.656  20.240  0.00  0.00    +0.000 C 
ATOM      8  C   UNL     1       2.849   5.172  20.064  0.00  0.00    +0.000 C 
BRANCH   2   9
ATOM      9  C   UNL     1       4.505   5.416  18.066  0.00  0.00    +0.000 A 
ATOM     10  C   UNL     1       5.622   5.376  18.918  0.00  0.00    +0.000 A 
ATOM     11  C   UNL     1       6.907   5.125  18.421  0.00  0.00    +0.000 A 
ATOM     12  C   UNL     1       7.111   4.925  17.060  0.00  0.00    +0.000 A 
ATOM     13  C   UNL     1       6.032   5.003  16.190  0.00  0.00    +0.000 A 
ATOM     14  C   UNL     1       4.751   5.264  16.685  0.00  0.00    +0.000 A 
ENDBRANCH   2   9
ENDBRANCH   1   2
BRANCH   1  17
ATOM     15  C   UNL     1       1.328   8.958  19.366  0.00  0.00    +0.000 C 
ATOM     16  O   UNL     1       1.241   9.472  18.252  0.00  0.00    +0.000 OA
ATOM     17  N   UNL     1       2.055   7.805  19.604  0.00  0.00    +0.000 N 
ATOM     18  H   UNL     1       2.226   7.576  20.580  0.00  0.00    +0.000 HD
BRANCH  15  24
ATOM     19  C   UNL     1       0.452  11.003  20.653  0.00  0.00    +0.000 A 
ATOM     20  C   UNL     1      -0.265  11.452  21.779  0.00  0.00    +0.000 A 
ATOM     21  C   UNL     1      -0.638  10.588  22.814  0.00  0.00    +0.000 A 
ATOM     22  C   UNL     1      -0.334   9.236  22.734  0.00  0.00    +0.000 A 
ATOM     23  C   UNL     1       0.312   8.748  21.601  0.00  0.00    +0.000 A 
ATOM     24  C   UNL     1       0.678   9.609  20.547  0.00  0.00    +0.000 A 
BRANCH  19  26
ATOM     25  C   UNL     1       1.862  12.874  19.911  0.00  0.00    +0.000 C 
ATOM     26  N   UNL     1       0.824  11.892  19.617  0.00  0.00    +0.000 N 
ATOM     27  H   UNL     1       1.082  11.349  18.788  0.00  0.00    +0.000 HD
ENDBRANCH  19  26
ENDBRANCH  15  24
ENDBRANCH   1  17
TORSDOF 5
ENDMDL
MODEL 4
REMARK VINA RESULT:      -8.3      1.832      3.577
REMARK  Name = 
REMARK  6 active torsions:
REMARK  status: ('A' for Active; 'I' for Inactive)
REMARK    1  A    between atoms: C_1  and  N_2
REMARK    2  A    between atoms: N_2  and  C_3
REMARK    3  A    between atoms: C_8  and  C_9
REMARK    4  A    between atoms: N_11  and  C_12
REMARK    5  A    between atoms: C_12  and  C_13
REMARK    6  A    between atoms: C_13  and  C_14
REMARK                            x       y       z     vdW  Elec       q    Type
REMARK                         _______ _______ _______ _____ _____    ______ ____
ROOT
ATOM      1  C   UNL     1       2.903   7.135  18.542  0.00  0.00    +0.000 C 
ENDROOT
BRANCH   1   2
ATOM      2  C   UNL     1       3.085   5.585  18.601  0.00  0.00    +0.000 C 
ATOM      3  C   UNL     1       1.989   4.861  17.761  0.00  0.00    +0.000 C 
ATOM      4  C   UNL     1       2.137   3.339  17.806  0.00  0.00    +0.000 C 
ATOM      5  C   UNL     1       2.082   2.851  19.233  0.00  0.00    +0.000 C 
ATOM      6  O   UNL     1       1.465   1.830  19.533  0.00  0.00    +0.000 OA
ATOM      7  C   UNL     1       2.941   3.575  20.244  0.00  0.00    +0.000 C 
ATOM      8  C   UNL     1       2.873   5.093  20.070  0.00  0.00    +0.000 C 
BRANCH   2   9
ATOM      9  C   UNL     1       4.508   5.300  18.050  0.00  0.00    +0.000 A 
ATOM     10  C   UNL     1       4.737   4.975  16.702  0.00  0.00    +0.000 A 
ATOM     11  C   UNL     1       6.031   4.744  16.218  0.00  0.00    +0.000 A 
ATOM     12  C   UNL     1       7.125   4.811  17.073  0.00  0.00    +0.000 A 
ATOM     13  C   UNL     1       6.925   5.086  18.419  0.00  0.00    +0.000 A 
ATOM     14  C   UNL     1       5.633   5.308  18.903  0.00  0.00    +0.000 A 
ENDBRANCH   2   9
ENDBRANCH   1   2
BRANCH   1  17
ATOM     15  C   UNL     1       1.377   8.891  19.342  0.00  0.00    +0.000 C 
ATOM     16  O   UNL     1       1.299   9.393  18.222  0.00  0.00    +0.000 OA
ATOM     17  N   UNL     1       2.099   7.739  19.597  0.00  0.00    +0.000 N 
ATOM     18  H   UNL     1       2.263   7.520  20.576  0.00  0.00    +0.000 HD
BRANCH  15  24
ATOM     19  C   UNL     1       0.540  10.956  20.623  0.00  0.00    +0.000 A 
ATOM     20  C   UNL     1      -0.189  11.422  21.734  0.00  0.00    +0.000 A 
ATOM     21  C   UNL     1      -0.619  10.563  22.752  0.00  0.00    +0.000 A 
ATOM     22  C   UNL     1      -0.361   9.202  22.668  0.00  0.00    +0.000 A 
ATOM     23  C   UNL     1       0.296   8.700  21.548  0.00  0.00    +0.000 A 
ATOM     24  C   UNL     1       0.719   9.555  20.511  0.00  0.00    +0.000 A 
BRANCH  19  26
ATOM     25  C   UNL     1      -0.048  12.636  18.929  0.00  0.00    +0.000 C 
ATOM     26  N   UNL     1       0.970  11.839  19.604  0.00  0.00    +0.000 N 
ATOM     27  H   UNL     1       1.700  12.451  19.980  0.00  0.00    +0.000 HD
ENDBRANCH  19  26
ENDBRANCH  15  24
ENDBRANCH   1  17
TORSDOF 5
ENDMDL
MODEL 5
REMARK VINA RESULT:      -8.2      1.774      3.418
REMARK  Name = 
REMARK  6 active torsions:
REMARK  status: ('A' for Active; 'I' for Inactive)
REMARK    1  A    between atoms: C_1  and  N_2
REMARK    2  A    between atoms: N_2  and  C_3
REMARK    3  A    between atoms: C_8  and  C_9
REMARK    4  A    between atoms: N_11  and  C_12
REMARK    5  A    between atoms: C_12  and  C_13
REMARK    6  A    between atoms: C_13  and  C_14
REMARK                            x       y       z     vdW  Elec       q    Type
REMARK                         _______ _______ _______ _____ _____    ______ ____
ROOT
ATOM      1  C   UNL     1       3.032   7.293  18.133  0.00  0.00    +0.000 C 
ENDROOT
BRANCH   1   2
ATOM      2  C   UNL     1       3.154   5.767  18.444  0.00  0.00    +0.000 C 
ATOM      3  C   UNL     1       2.047   4.956  17.703  0.00  0.00    +0.000 C 
ATOM      4  C   UNL     1       2.135   3.458  17.995  0.00  0.00    +0.000 C 
ATOM      5  C   UNL     1       2.034   3.207  19.479  0.00  0.00    +0.000 C 
ATOM      6  O   UNL     1       1.372   2.270  19.923  0.00  0.00    +0.000 OA
ATOM      7  C   UNL     1       2.901   4.054  20.383  0.00  0.00    +0.000 C 
ATOM      8  C   UNL     1       2.895   5.526  19.966  0.00  0.00    +0.000 C 
BRANCH   2   9
ATOM      9  C   UNL     1       4.575   5.348  17.981  0.00  0.00    +0.000 A 
ATOM     10  C   UNL     1       5.695   5.445  18.824  0.00  0.00    +0.000 A 
ATOM     11  C   UNL     1       6.966   5.040  18.396  0.00  0.00    +0.000 A 
ATOM     12  C   UNL     1       7.152   4.546  17.109  0.00  0.00    +0.000 A 
ATOM     13  C   UNL     1       6.072   4.480  16.240  0.00  0.00    +0.000 A 
ATOM     14  C   UNL     1       4.806   4.893  16.665  0.00  0.00    +0.000 A 
ENDBRANCH   2   9
ENDBRANCH   1   2
BRANCH   1  17
ATOM     15  C   UNL     1       1.587   9.267  18.393  0.00  0.00    +0.000 C 
ATOM     16  O   UNL     1       1.995   9.757  17.342  0.00  0.00    +0.000 OA
ATOM     17  N   UNL     1       1.995   8.025  18.848  0.00  0.00    +0.000 N 
ATOM     18  H   UNL     1       1.758   7.799  19.810  0.00  0.00    +0.000 HD
BRANCH  15  24
ATOM     19  C   UNL     1      -0.516  10.686  18.797  0.00  0.00    +0.000 A 
ATOM     20  C   UNL     1      -1.352  11.285  19.761  0.00  0.00    +0.000 A 
ATOM     21  C   UNL     1      -0.998  11.348  21.112  0.00  0.00    +0.000 A 
ATOM     22  C   UNL     1       0.192  10.781  21.546  0.00  0.00    +0.000 A 
ATOM     23  C   UNL     1       1.007  10.120  20.631  0.00  0.00    +0.000 A 
ATOM     24  C   UNL     1       0.651  10.038  19.270  0.00  0.00    +0.000 A 
BRANCH  19  26
ATOM     25  C   UNL     1      -2.140   9.960  17.101  0.00  0.00    +0.000 C 
ATOM     26  N   UNL     1      -0.889  10.634  17.433  0.00  0.00    +0.000 N 
ATOM     27  H   UNL     1      -0.893  11.584  17.052  0.00  0.00    +0.000 HD
ENDBRANCH  19  26
ENDBRANCH  15  24
ENDBRANCH   1  17
TORSDOF 5
ENDMDL
MODEL 6
REMARK VINA RESULT:      -8.1      1.650      3.335
REMARK  Name = 
REMARK  6 active torsions:
REMARK  status: ('A' for Active; 'I' for Inactive)
REMARK    1  A    between atoms: C_1  and  N_2
REMARK    2  A    between atoms: N_2  and  C_3
REMARK    3  A    between atoms: C_8  and  C_9
REMARK    4  A    between atoms: N_11  and  C_12
REMARK    5  A    between atoms: C_12  and  C_13
REMARK    6  A    between atoms: C_13  and  C_14
REMARK                            x       y       z     vdW  Elec       q    Type
REMARK                         _______ _______ _______ _____ _____    ______ ____
ROOT
ATOM      1  C   UNL     1       3.348   6.885  18.024  0.00  0.00    +0.000 C 
ENDROOT
BRANCH   1   2
ATOM      2  C   UNL     1       3.527   5.336  18.110  0.00  0.00    +0.000 C 
ATOM      3  C   UNL     1       2.301   4.597  17.490  0.00  0.00    +0.000 C 
ATOM      4  C   UNL     1       2.444   3.076  17.567  0.00  0.00    +0.000 C 
ATOM      5  C   UNL     1       2.623   2.640  19.000  0.00  0.00    +0.000 C 
ATOM      6  O   UNL     1       2.056   1.638  19.435  0.00  0.00    +0.000 OA
ATOM      7  C   UNL     1       3.643   3.388  19.828  0.00  0.00    +0.000 C 
ATOM      8  C   UNL     1       3.557   4.900  19.611  0.00  0.00    +0.000 C 
BRANCH   2   9
ATOM      9  C   UNL     1       4.836   5.013  17.342  0.00  0.00    +0.000 A 
ATOM     10  C   UNL     1       6.082   4.932  17.989  0.00  0.00    +0.000 A 
ATOM     11  C   UNL     1       7.250   4.617  17.282  0.00  0.00    +0.000 A 
ATOM     12  C   UNL     1       7.205   4.394  15.911  0.00  0.00    +0.000 A 
ATOM     13  C   UNL     1       5.996   4.511  15.238  0.00  0.00    +0.000 A 
ATOM     14  C   UNL     1       4.833   4.835  15.942  0.00  0.00    +0.000 A 
ENDBRANCH   2   9
ENDBRANCH   1   2
BRANCH   1  17
ATOM     15  C   UNL     1       1.855   8.726  18.686  0.00  0.00    +0.000 C 
ATOM     16  O   UNL     1       2.045   9.318  17.625  0.00  0.00    +0.000 OA
ATOM     17  N   UNL     1       2.408   7.487  18.961  0.00  0.00    +0.000 N 
ATOM     18  H   UNL     1       2.355   7.177  19.928  0.00  0.00    +0.000 HD
BRANCH  15  24
ATOM     19  C   UNL     1       0.357  10.594  19.618  0.00  0.00    +0.000 A 
ATOM     20  C   UNL     1      -0.452  11.013  20.691  0.00  0.00    +0.000 A 
ATOM     21  C   UNL     1      -0.495  10.317  21.904  0.00  0.00    +0.000 A 
ATOM     22  C   UNL     1       0.249   9.156  22.064  0.00  0.00    +0.000 A 
ATOM     23  C   UNL     1       1.005   8.676  20.998  0.00  0.00    +0.000 A 
ATOM     24  C   UNL     1       1.041   9.363  19.768  0.00  0.00    +0.000 A 
BRANCH  19  26
ATOM     25  C   UNL     1       0.230  12.762  18.466  0.00  0.00    +0.000 C 
ATOM     26  N   UNL     1       0.390  11.313  18.399  0.00  0.00    +0.000 N 
ATOM     27  H   UNL     1       1.253  11.080  17.898  0.00  0.00    +0.000 HD
ENDBRANCH  19  26
ENDBRANCH  15  24
ENDBRANCH   1  17
TORSDOF 5
ENDMDL
MODEL 7
REMARK VINA RESULT:      -7.9      1.586      3.293
REMARK  Name = 
REMARK  6 active torsions:
REMARK  status: ('A' for Active; 'I' for Inactive)
REMARK    1  A    between atoms: C_1  and  N_2
REMARK    2  A    between atoms: N_2  and  C_3
REMARK    3  A    between atoms: C_8  and  C_9
REMARK    4  A    between atoms: N_11  and  C_12
REMARK    5  A    between atoms: C_12  and  C_13
REMARK    6  A    between atoms: C_13  and  C_14
REMARK                            x       y       z     vdW  Elec       q    Type
REMARK                         _______ _______ _______ _____ _____    ______ ____
ROOT
ATOM      1  C   UNL     1       3.190   7.009  17.705  0.00  0.00    +0.000 C 
ENDROOT
BRANCH   1   2
ATOM      2  C   UNL     1       3.878   5.649  18.046  0.00  0.00    +0.000 C 
ATOM      3  C   UNL     1       3.644   4.605  16.912  0.00  0.00    +0.000 C 
ATOM      4  C   UNL     1       4.300   3.258  17.221  0.00  0.00    +0.000 C 
ATOM      5  C   UNL     1       3.776   2.709  18.525  0.00  0.00    +0.000 C 
ATOM      6  O   UNL     1       3.512   1.515  18.653  0.00  0.00    +0.000 OA
ATOM      7  C   UNL     1       3.738   3.653  19.706  0.00  0.00    +0.000 C 
ATOM      8  C   UNL     1       3.208   5.034  19.318  0.00  0.00    +0.000 C 
BRANCH   2   9
ATOM      9  C   UNL     1       5.386   5.965  18.230  0.00  0.00    +0.000 A 
ATOM     10  C   UNL     1       6.095   6.776  17.327  0.00  0.00    +0.000 A 
ATOM     11  C   UNL     1       7.451   7.068  17.522  0.00  0.00    +0.000 A 
ATOM     12  C   UNL     1       8.136   6.543  18.612  0.00  0.00    +0.000 A 
ATOM     13  C   UNL     1       7.472   5.703  19.495  0.00  0.00    +0.000 A 
ATOM     14  C   UNL     1       6.122   5.404  19.295  0.00  0.00    +0.000 A 
ENDBRANCH   2   9
ENDBRANCH   1   2
BRANCH   1  17
ATOM     15  C   UNL     1       1.771   8.830  18.555  0.00  0.00    +0.000 C 
ATOM     16  O   UNL     1       1.957   9.505  17.544  0.00  0.00    +0.000 OA
ATOM     17  N   UNL     1       2.290   7.557  18.712  0.00  0.00    +0.000 N 
ATOM     18  H   UNL     1       2.248   7.167  19.650  0.00  0.00    +0.000 HD
BRANCH  15  24
ATOM     19  C   UNL     1       0.143  10.519  19.604  0.00  0.00    +0.000 A 
ATOM     20  C   UNL     1      -0.594  10.870  20.752  0.00  0.00    +0.000 A 
ATOM     21  C   UNL     1      -0.408  10.224  21.979  0.00  0.00    +0.000 A 
ATOM     22  C   UNL     1       0.500   9.180  22.083  0.00  0.00    +0.000 A 
ATOM     23  C   UNL     1       1.193   8.762  20.950  0.00  0.00    +0.000 A 
ATOM     24  C   UNL     1       1.000   9.397  19.707  0.00  0.00    +0.000 A 
BRANCH  19  26
ATOM     25  C   UNL     1      -0.647  12.519  18.413  0.00  0.00    +0.000 C 
ATOM     26  N   UNL     1      -0.057  11.186  18.371  0.00  0.00    +0.000 N 
ATOM     27  H   UNL     1       0.830  11.213  17.860  0.00  0.00    +0.000 HD
ENDBRANCH  19  26
ENDBRANCH  15  24
ENDBRANCH   1  17
TORSDOF 5
ENDMDL
MODEL 8
REMARK VINA RESULT:      -7.9      0.835      1.300
REMARK  Name = 
REMARK  6 active torsions:
REMARK  status: ('A' for Active; 'I' for Inactive)
REMARK    1  A    between atoms: C_1  and  N_2
REMARK    2  A    between atoms: N_2  and  C_3
REMARK    3  A    between atoms: C_8  and  C_9
REMARK    4  A    between atoms: N_11  and  C_12
REMARK    5  A    between atoms: C_12  and  C_13
REMARK    6  A    between atoms: C_13  and  C_14
REMARK                            x       y       z     vdW  Elec       q    Type
REMARK                         _______ _______ _______ _____ _____    ______ ____
ROOT
ATOM      1  C   UNL     1       3.577   7.227  17.251  0.00  0.00    +0.000 C 
ENDROOT
BRANCH   1   2
ATOM      2  C   UNL     1       4.449   5.947  17.449  0.00  0.00    +0.000 C 
ATOM      3  C   UNL     1       5.568   6.191  18.508  0.00  0.00    +0.000 C 
ATOM      4  C   UNL     1       6.445   4.955  18.717  0.00  0.00    +0.000 C 
ATOM      5  C   UNL     1       7.072   4.532  17.412  0.00  0.00    +0.000 C 
ATOM      6  O   UNL     1       8.243   4.161  17.360  0.00  0.00    +0.000 OA
ATOM      7  C   UNL     1       6.162   4.434  16.209  0.00  0.00    +0.000 C 
ATOM      8  C   UNL     1       5.203   5.623  16.118  0.00  0.00    +0.000 C 
BRANCH   2   9
ATOM      9  C   UNL     1       3.472   4.828  17.898  0.00  0.00    +0.000 A 
ATOM     10  C   UNL     1       3.200   3.707  17.096  0.00  0.00    +0.000 A 
ATOM     11  C   UNL     1       2.332   2.696  17.528  0.00  0.00    +0.000 A 
ATOM     12  C   UNL     1       1.700   2.790  18.763  0.00  0.00    +0.000 A 
ATOM     13  C   UNL     1       1.916   3.908  19.557  0.00  0.00    +0.000 A 
ATOM     14  C   UNL     1       2.775   4.921  19.121  0.00  0.00    +0.000 A 
ENDBRANCH   2   9
ENDBRANCH   1   2
BRANCH   1  17
ATOM     15  C   UNL     1       1.916   8.723  18.279  0.00  0.00    +0.000 C 
ATOM     16  O   UNL     1       1.609   9.202  17.188  0.00  0.00    +0.000 OA
ATOM     17  N   UNL     1       2.839   7.701  18.415  0.00  0.00    +0.000 N 
ATOM     18  H   UNL     1       3.166   7.515  19.359  0.00  0.00    +0.000 HD
BRANCH  15  24
ATOM     19  C   UNL     1       0.864  10.612  19.667  0.00  0.00    +0.000 A 
ATOM     20  C   UNL     1       0.239  10.958  20.882  0.00  0.00    +0.000 A 
ATOM     21  C   UNL     1       0.178  10.072  21.963  0.00  0.00    +0.000 A 
ATOM     22  C   UNL     1       0.712   8.796  21.846  0.00  0.00    +0.000 A 
ATOM     23  C   UNL     1       1.274   8.399  20.636  0.00  0.00    +0.000 A 
ATOM     24  C   UNL     1       1.326   9.280  19.537  0.00  0.00    +0.000 A 
BRANCH  19  26
ATOM     25  C   UNL     1       1.971  12.533  18.606  0.00  0.00    +0.000 C 
ATOM     26  N   UNL     1       0.919  11.522  18.585  0.00  0.00    +0.000 N 
ATOM     27  H   UNL     1       0.959  10.995  17.708  0.00  0.00    +0.000 HD
ENDBRANCH  19  26
ENDBRANCH  15  24
ENDBRANCH   1  17
TORSDOF 5
ENDMDL
MODEL 9
REMARK VINA RESULT:      -7.9      1.192      1.619
REMARK  Name = 
REMARK  6 active torsions:
REMARK  status: ('A' for Active; 'I' for Inactive)
REMARK    1  A    between atoms: C_1  and  N_2
REMARK    2  A    between atoms: N_2  and  C_3
REMARK    3  A    between atoms: C_8  and  C_9
REMARK    4  A    between atoms: N_11  and  C_12
REMARK    5  A    between atoms: C_12  and  C_13
REMARK    6  A    between atoms: C_13  and  C_14
REMARK                            x       y       z     vdW  Elec       q    Type
REMARK                         _______ _______ _______ _____ _____    ______ ____
ROOT
ATOM      1  C   UNL     1       2.894   7.421  17.927  0.00  0.00    +0.000 C 
ENDROOT
BRANCH   1   2
ATOM      2  C   UNL     1       3.742   6.126  18.131  0.00  0.00    +0.000 C 
ATOM      3  C   UNL     1       4.907   6.374  19.137  0.00  0.00    +0.000 C 
ATOM      4  C   UNL     1       5.762   5.124  19.351  0.00  0.00    +0.000 C 
ATOM      5  C   UNL     1       6.327   4.646  18.037  0.00  0.00    +0.000 C 
ATOM      6  O   UNL     1       7.487   4.244  17.951  0.00  0.00    +0.000 OA
ATOM      7  C   UNL     1       5.368   4.534  16.873  0.00  0.00    +0.000 C 
ATOM      8  C   UNL     1       4.435   5.742  16.783  0.00  0.00    +0.000 C 
BRANCH   2   9
ATOM      9  C   UNL     1       2.757   5.046  18.652  0.00  0.00    +0.000 A 
ATOM     10  C   UNL     1       2.020   4.223  17.783  0.00  0.00    +0.000 A 
ATOM     11  C   UNL     1       1.153   3.239  18.273  0.00  0.00    +0.000 A 
ATOM     12  C   UNL     1       0.987   3.064  19.642  0.00  0.00    +0.000 A 
ATOM     13  C   UNL     1       1.668   3.891  20.524  0.00  0.00    +0.000 A 
ATOM     14  C   UNL     1       2.526   4.880  20.035  0.00  0.00    +0.000 A 
ENDBRANCH   2   9
ENDBRANCH   1   2
BRANCH   1  17
ATOM     15  C   UNL     1       1.375   9.045  18.979  0.00  0.00    +0.000 C 
ATOM     16  O   UNL     1       1.190   9.628  17.912  0.00  0.00    +0.000 OA
ATOM     17  N   UNL     1       2.156   7.908  19.086  0.00  0.00    +0.000 N 
ATOM     18  H   UNL     1       2.406   7.621  20.029  0.00  0.00    +0.000 HD
BRANCH  15  24
ATOM     19  C   UNL     1       0.656  10.973  20.519  0.00  0.00    +0.000 A 
ATOM     20  C   UNL     1      -0.009  11.329  21.709  0.00  0.00    +0.000 A 
ATOM     21  C   UNL     1      -0.417  10.372  22.645  0.00  0.00    +0.000 A 
ATOM     22  C   UNL     1      -0.201   9.024  22.399  0.00  0.00    +0.000 A 
ATOM     23  C   UNL     1       0.391   8.634  21.200  0.00  0.00    +0.000 A 
ATOM     24  C   UNL     1       0.790   9.590  20.245  0.00  0.00    +0.000 A 
BRANCH  19  26
ATOM     25  C   UNL     1       1.110  13.340  20.038  0.00  0.00    +0.000 C 
ATOM     26  N   UNL     1       1.064  11.954  19.584  0.00  0.00    +0.000 N 
ATOM     27  H   UNL     1       1.971  11.685  19.193  0.00  0.00    +0.000 HD
ENDBRANCH  19  26
ENDBRANCH  15  24
ENDBRANCH   1  17
TORSDOF 5
ENDMDL
