MODEL 1
REMARK VINA RESULT:      -7.7      0.000      0.000
REMARK  Name = 
REMARK  7 active torsions:
REMARK  status: ('A' for Active; 'I' for Inactive)
REMARK    1  A    between atoms: C_1  and  N_2
REMARK    2  A    between atoms: C_5  and  C_6
REMARK    3  A    between atoms: C_7  and  O_8
REMARK    4  A    between atoms: C_10  and  O_11
REMARK    5  A    between atoms: C_16  and  C_17
REMARK    6  A    between atoms: C_18  and  C_19
REMARK    7  A    between atoms: C_27  and  O_28
REMARK                            x       y       z     vdW  Elec       q    Type
REMARK                         _______ _______ _______ _____ _____    ______ ____
ROOT
ATOM      1  C   UNL     1       8.863  13.183  21.952  0.00  0.00    +0.000 A 
ATOM      2  C   UNL     1       9.374  14.464  22.300  0.00  0.00    +0.000 A 
ATOM      3  C   UNL     1      10.384  15.070  21.561  0.00  0.00    +0.000 A 
ATOM      4  C   UNL     1      10.924  14.460  20.436  0.00  0.00    +0.000 A 
ATOM      5  C   UNL     1      10.457  13.204  20.055  0.00  0.00    +0.000 A 
ATOM      6  C   UNL     1      10.999  12.518  18.868  0.00  0.00    +0.000 A 
ATOM      7  O   UNL     1      11.870  12.982  18.138  0.00  0.00    +0.000 OA
ATOM      8  C   UNL     1      10.477  11.191  18.581  0.00  0.00    +0.000 A 
ATOM      9  C   UNL     1       9.550  10.653  19.361  0.00  0.00    +0.000 A 
ATOM     10  O   UNL     1       8.971  11.316  20.436  0.00  0.00    +0.000 OA
ATOM     11  C   UNL     1       9.438  12.566  20.810  0.00  0.00    +0.000 A 
ENDROOT
BRANCH   1  16
ATOM     12  C   UNL     1       6.408  13.005  26.211  0.00  0.00    +0.000 C 
ATOM     13  N   UNL     1       7.429  13.585  25.323  0.00  0.00    +0.000 NA
ATOM     14  C   UNL     1       8.451  12.529  25.083  0.00  0.00    +0.000 C 
ATOM     15  C   UNL     1       8.173  11.622  23.905  0.00  0.00    +0.000 C 
ATOM     16  C   UNL     1       7.740  12.402  22.664  0.00  0.00    +0.000 C 
ATOM     17  C   UNL     1       6.470  13.201  22.993  0.00  0.00    +0.000 C 
ATOM     18  C   UNL     1       6.710  14.169  24.146  0.00  0.00    +0.000 C 
BRANCH  17  19
ATOM     19  O   UNL     1       5.933  13.856  21.844  0.00  0.00    +0.000 OA
ATOM     20  H   UNL     1       6.543  13.720  21.099  0.00  0.00    +0.000 HD
ENDBRANCH  17  19
ENDBRANCH   1  16
BRANCH   2  21
ATOM     21  O   UNL     1       9.047  15.306  23.310  0.00  0.00    +0.000 OA
ATOM     22  H   UNL     1       9.606  15.287  24.101  0.00  0.00    +0.000 HD
ENDBRANCH   2  21
BRANCH   4  23
ATOM     23  O   UNL     1      11.890  15.134  19.750  0.00  0.00    +0.000 OA
ATOM     24  H   UNL     1      12.110  15.960  20.211  0.00  0.00    +0.000 HD
ENDBRANCH   4  23
BRANCH   9  25
ATOM     25  C   UNL     1       8.987   9.333  19.095  0.00  0.00    +0.000 C 
ATOM     26  C   UNL     1       8.255   9.020  18.014  0.00  0.00    +0.000 C 
BRANCH  26  27
ATOM     27  C   UNL     1       7.670   7.682  17.853  0.00  0.00    +0.000 A 
ATOM     28  C   UNL     1       6.651   7.470  16.917  0.00  0.00    +0.000 A 
ATOM     29  C   UNL     1       6.061   6.209  16.787  0.00  0.00    +0.000 A 
ATOM     30  C   UNL     1       6.489   5.151  17.587  0.00  0.00    +0.000 A 
ATOM     31  C   UNL     1       7.507   5.352  18.516  0.00  0.00    +0.000 A 
ATOM     32  C   UNL     1       8.095   6.615  18.653  0.00  0.00    +0.000 A 
ENDBRANCH  26  27
ENDBRANCH   9  25
TORSDOF 6
ENDMDL
MODEL 2
REMARK VINA RESULT:      -7.6      8.225     10.335
REMARK  Name = 
REMARK  7 active torsions:
REMARK  status: ('A' for Active; 'I' for Inactive)
REMARK    1  A    between atoms: C_1  and  N_2
REMARK    2  A    between atoms: C_5  and  C_6
REMARK    3  A    between atoms: C_7  and  O_8
REMARK    4  A    between atoms: C_10  and  O_11
REMARK    5  A    between atoms: C_16  and  C_17
REMARK    6  A    between atoms: C_18  and  C_19
REMARK    7  A    between atoms: C_27  and  O_28
REMARK                            x       y       z     vdW  Elec       q    Type
REMARK                         _______ _______ _______ _____ _____    ______ ____
ROOT
ATOM      1  C   UNL     1      -1.187  11.082  19.555  0.00  0.00    +0.000 A 
ATOM      2  C   UNL     1      -2.029  12.047  20.176  0.00  0.00    +0.000 A 
ATOM      3  C   UNL     1      -2.064  12.201  21.556  0.00  0.00    +0.000 A 
ATOM      4  C   UNL     1      -1.263  11.434  22.392  0.00  0.00    +0.000 A 
ATOM      5  C   UNL     1      -0.422  10.474  21.832  0.00  0.00    +0.000 A 
ATOM      6  C   UNL     1       0.448   9.637  22.678  0.00  0.00    +0.000 A 
ATOM      7  O   UNL     1       0.507   9.717  23.901  0.00  0.00    +0.000 OA
ATOM      8  C   UNL     1       1.255   8.634  22.000  0.00  0.00    +0.000 A 
ATOM      9  C   UNL     1       1.199   8.509  20.682  0.00  0.00    +0.000 A 
ATOM     10  O   UNL     1       0.446   9.341  19.862  0.00  0.00    +0.000 OA
ATOM     11  C   UNL     1      -0.388  10.294  20.424  0.00  0.00    +0.000 A 
ENDROOT
BRANCH   1  16
ATOM     12  C   UNL     1      -3.853  10.361  15.484  0.00  0.00    +0.000 C 
ATOM     13  N   UNL     1      -3.731  10.622  16.928  0.00  0.00    +0.000 NA
ATOM     14  C   UNL     1      -3.079   9.428  17.534  0.00  0.00    +0.000 C 
ATOM     15  C   UNL     1      -1.568   9.466  17.562  0.00  0.00    +0.000 C 
ATOM     16  C   UNL     1      -1.032  10.814  18.044  0.00  0.00    +0.000 C 
ATOM     17  C   UNL     1      -1.544  11.919  17.109  0.00  0.00    +0.000 C 
ATOM     18  C   UNL     1      -3.068  11.957  17.081  0.00  0.00    +0.000 C 
BRANCH  17  19
ATOM     19  O   UNL     1      -0.981  13.193  17.421  0.00  0.00    +0.000 OA
ATOM     20  H   UNL     1      -1.572  13.884  17.073  0.00  0.00    +0.000 HD
ENDBRANCH  17  19
ENDBRANCH   1  16
BRANCH   2  21
ATOM     21  O   UNL     1      -2.896  12.943  19.643  0.00  0.00    +0.000 OA
ATOM     22  H   UNL     1      -2.710  13.882  19.793  0.00  0.00    +0.000 HD
ENDBRANCH   2  21
BRANCH   4  23
ATOM     23  O   UNL     1      -1.336  11.667  23.733  0.00  0.00    +0.000 OA
ATOM     24  H   UNL     1      -0.763  11.045  24.210  0.00  0.00    +0.000 HD
ENDBRANCH   4  23
BRANCH   9  25
ATOM     25  C   UNL     1       2.007   7.529  19.963  0.00  0.00    +0.000 C 
ATOM     26  C   UNL     1       2.396   7.652  18.684  0.00  0.00    +0.000 C 
BRANCH  26  27
ATOM     27  C   UNL     1       3.156   6.588  18.014  0.00  0.00    +0.000 A 
ATOM     28  C   UNL     1       4.294   6.906  17.262  0.00  0.00    +0.000 A 
ATOM     29  C   UNL     1       4.997   5.904  16.588  0.00  0.00    +0.000 A 
ATOM     30  C   UNL     1       4.574   4.579  16.665  0.00  0.00    +0.000 A 
ATOM     31  C   UNL     1       3.447   4.253  17.417  0.00  0.00    +0.000 A 
ATOM     32  C   UNL     1       2.736   5.256  18.087  0.00  0.00    +0.000 A 
ENDBRANCH  26  27
ENDBRANCH   9  25
TORSDOF 6
ENDMDL
MODEL 3
REMARK VINA RESULT:      -7.3      1.421      1.560
REMARK  Name = 
REMARK  7 active torsions:
REMARK  status: ('A' for Active; 'I' for Inactive)
REMARK    1  A    between atoms: C_1  and  N_2
REMARK    2  A    between atoms: C_5  and  C_6
REMARK    3  A    between atoms: C_7  and  O_8
REMARK    4  A    between atoms: C_10  and  O_11
REMARK    5  A    between atoms: C_16  and  C_17
REMARK    6  A    between atoms: C_18  and  C_19
REMARK    7  A    between atoms: C_27  and  O_28
REMARK                            x       y       z     vdW  Elec       q    Type
REMARK                         _______ _______ _______ _____ _____    ______ ____
ROOT
ATOM      1  C   UNL     1       9.028  14.196  20.637  0.00  0.00    +0.000 A 
ATOM      2  C   UNL     1       9.568  15.512  20.644  0.00  0.00    +0.000 A 
ATOM      3  C   UNL     1      10.533  15.908  19.725  0.00  0.00    +0.000 A 
ATOM      4  C   UNL     1      10.998  15.041  18.744  0.00  0.00    +0.000 A 
ATOM      5  C   UNL     1      10.500  13.741  18.697  0.00  0.00    +0.000 A 
ATOM      6  C   UNL     1      10.962  12.785  17.673  0.00  0.00    +0.000 A 
ATOM      7  O   UNL     1      11.788  13.049  16.804  0.00  0.00    +0.000 OA
ATOM      8  C   UNL     1      10.414  11.439  17.737  0.00  0.00    +0.000 A 
ATOM      9  C   UNL     1       9.535  11.118  18.675  0.00  0.00    +0.000 A 
ATOM     10  O   UNL     1       9.029  12.025  19.597  0.00  0.00    +0.000 OA
ATOM     11  C   UNL     1       9.527  13.318  19.640  0.00  0.00    +0.000 A 
ENDROOT
BRANCH   1  16
ATOM     12  C   UNL     1       6.683  15.191  24.845  0.00  0.00    +0.000 C 
ATOM     13  N   UNL     1       7.663  15.515  23.797  0.00  0.00    +0.000 NA
ATOM     14  C   UNL     1       8.712  14.459  23.836  0.00  0.00    +0.000 C 
ATOM     15  C   UNL     1       8.434  13.246  22.976  0.00  0.00    +0.000 C 
ATOM     16  C   UNL     1       7.947  13.627  21.579  0.00  0.00    +0.000 C 
ATOM     17  C   UNL     1       6.661  14.457  21.705  0.00  0.00    +0.000 C 
ATOM     18  C   UNL     1       6.898  15.720  22.525  0.00  0.00    +0.000 C 
BRANCH  17  19
ATOM     19  O   UNL     1       6.076  14.742  20.435  0.00  0.00    +0.000 OA
ATOM     20  H   UNL     1       5.148  14.451  20.451  0.00  0.00    +0.000 HD
ENDBRANCH  17  19
ENDBRANCH   1  16
BRANCH   2  21
ATOM     21  O   UNL     1       9.310  16.574  21.446  0.00  0.00    +0.000 OA
ATOM     22  H   UNL     1       8.613  17.185  21.161  0.00  0.00    +0.000 HD
ENDBRANCH   2  21
BRANCH   4  23
ATOM     23  O   UNL     1      11.923  15.516  17.862  0.00  0.00    +0.000 OA
ATOM     24  H   UNL     1      11.492  16.085  17.203  0.00  0.00    +0.000 HD
ENDBRANCH   4  23
BRANCH   9  25
ATOM     25  C   UNL     1       8.948   9.784  18.760  0.00  0.00    +0.000 C 
ATOM     26  C   UNL     1       8.347   9.149  17.742  0.00  0.00    +0.000 C 
BRANCH  26  27
ATOM     27  C   UNL     1       7.724   7.831  17.928  0.00  0.00    +0.000 A 
ATOM     28  C   UNL     1       6.566   7.496  17.216  0.00  0.00    +0.000 A 
ATOM     29  C   UNL     1       5.944   6.261  17.420  0.00  0.00    +0.000 A 
ATOM     30  C   UNL     1       6.480   5.350  18.329  0.00  0.00    +0.000 A 
ATOM     31  C   UNL     1       7.635   5.672  19.036  0.00  0.00    +0.000 A 
ATOM     32  C   UNL     1       8.256   6.912  18.839  0.00  0.00    +0.000 A 
ENDBRANCH  26  27
ENDBRANCH   9  25
TORSDOF 6
ENDMDL
MODEL 4
REMARK VINA RESULT:      -7.2      6.017      8.359
REMARK  Name = 
REMARK  7 active torsions:
REMARK  status: ('A' for Active; 'I' for Inactive)
REMARK    1  A    between atoms: C_1  and  N_2
REMARK    2  A    between atoms: C_5  and  C_6
REMARK    3  A    between atoms: C_7  and  O_8
REMARK    4  A    between atoms: C_10  and  O_11
REMARK    5  A    between atoms: C_16  and  C_17
REMARK    6  A    between atoms: C_18  and  C_19
REMARK    7  A    between atoms: C_27  and  O_28
REMARK                            x       y       z     vdW  Elec       q    Type
REMARK                         _______ _______ _______ _____ _____    ______ ____
ROOT
ATOM      1  C   UNL     1       1.498  13.592  19.263  0.00  0.00    +0.000 A 
ATOM      2  C   UNL     1       0.599  14.636  19.617  0.00  0.00    +0.000 A 
ATOM      3  C   UNL     1      -0.776  14.436  19.637  0.00  0.00    +0.000 A 
ATOM      4  C   UNL     1      -1.334  13.200  19.333  0.00  0.00    +0.000 A 
ATOM      5  C   UNL     1      -0.494  12.146  18.979  0.00  0.00    +0.000 A 
ATOM      6  C   UNL     1      -1.038  10.816  18.650  0.00  0.00    +0.000 A 
ATOM      7  O   UNL     1      -2.233  10.535  18.666  0.00  0.00    +0.000 OA
ATOM      8  C   UNL     1      -0.081   9.796  18.250  0.00  0.00    +0.000 A 
ATOM      9  C   UNL     1       1.213  10.073  18.203  0.00  0.00    +0.000 A 
ATOM     10  O   UNL     1       1.752  11.296  18.586  0.00  0.00    +0.000 OA
ATOM     11  C   UNL     1       0.912  12.341  18.938  0.00  0.00    +0.000 A 
ENDROOT
BRANCH   1  16
ATOM     12  C   UNL     1       5.196  16.836  19.221  0.00  0.00    +0.000 C 
ATOM     13  N   UNL     1       3.764  16.499  19.263  0.00  0.00    +0.000 NA
ATOM     14  C   UNL     1       3.434  15.828  17.976  0.00  0.00    +0.000 C 
ATOM     15  C   UNL     1       3.622  14.328  17.967  0.00  0.00    +0.000 C 
ATOM     16  C   UNL     1       3.038  13.664  19.215  0.00  0.00    +0.000 C 
ATOM     17  C   UNL     1       3.723  14.248  20.459  0.00  0.00    +0.000 C 
ATOM     18  C   UNL     1       3.522  15.757  20.542  0.00  0.00    +0.000 C 
BRANCH  17  19
ATOM     19  O   UNL     1       3.320  13.586  21.657  0.00  0.00    +0.000 OA
ATOM     20  H   UNL     1       2.459  13.160  21.499  0.00  0.00    +0.000 HD
ENDBRANCH  17  19
ENDBRANCH   1  16
BRANCH   2  21
ATOM     21  O   UNL     1       0.829  15.922  19.976  0.00  0.00    +0.000 OA
ATOM     22  H   UNL     1       1.419  16.441  19.408  0.00  0.00    +0.000 HD
ENDBRANCH   2  21
BRANCH   4  23
ATOM     23  O   UNL     1      -2.689  13.079  19.405  0.00  0.00    +0.000 OA
ATOM     24  H   UNL     1      -3.114  13.821  18.945  0.00  0.00    +0.000 HD
ENDBRANCH   4  23
BRANCH   9  25
ATOM     25  C   UNL     1       2.206   9.072  17.826  0.00  0.00    +0.000 C 
ATOM     26  C   UNL     1       2.151   7.776  18.172  0.00  0.00    +0.000 C 
BRANCH  26  27
ATOM     27  C   UNL     1       3.225   6.844  17.804  0.00  0.00    +0.000 A 
ATOM     28  C   UNL     1       4.381   7.319  17.173  0.00  0.00    +0.000 A 
ATOM     29  C   UNL     1       5.389   6.433  16.783  0.00  0.00    +0.000 A 
ATOM     30  C   UNL     1       5.253   5.068  17.028  0.00  0.00    +0.000 A 
ATOM     31  C   UNL     1       4.109   4.587  17.661  0.00  0.00    +0.000 A 
ATOM     32  C   UNL     1       3.095   5.472  18.046  0.00  0.00    +0.000 A 
ENDBRANCH  26  27
ENDBRANCH   9  25
TORSDOF 6
ENDMDL
MODEL 5
REMARK VINA RESULT:      -7.2      7.883     10.695
REMARK  Name = 
REMARK  7 active torsions:
REMARK  status: ('A' for Active; 'I' for Inactive)
REMARK    1  A    between atoms: C_1  and  N_2
REMARK    2  A    between atoms: C_5  and  C_6
REMARK    3  A    between atoms: C_7  and  O_8
REMARK    4  A    between atoms: C_10  and  O_11
REMARK    5  A    between atoms: C_16  and  C_17
REMARK    6  A    between atoms: C_18  and  C_19
REMARK    7  A    between atoms: C_27  and  O_28
REMARK                            x       y       z     vdW  Elec       q    Type
REMARK                         _______ _______ _______ _____ _____    ______ ____
ROOT
ATOM      1  C   UNL     1       2.822   4.162  18.425  0.00  0.00    +0.000 A 
ATOM      2  C   UNL     1       3.553   2.985  18.099  0.00  0.00    +0.000 A 
ATOM      3  C   UNL     1       4.667   3.027  17.270  0.00  0.00    +0.000 A 
ATOM      4  C   UNL     1       5.131   4.224  16.739  0.00  0.00    +0.000 A 
ATOM      5  C   UNL     1       4.448   5.403  17.028  0.00  0.00    +0.000 A 
ATOM      6  C   UNL     1       4.904   6.698  16.488  0.00  0.00    +0.000 A 
ATOM      7  O   UNL     1       5.889   6.840  15.772  0.00  0.00    +0.000 OA
ATOM      8  C   UNL     1       4.096   7.864  16.812  0.00  0.00    +0.000 A 
ATOM      9  C   UNL     1       3.015   7.741  17.567  0.00  0.00    +0.000 A 
ATOM     10  O   UNL     1       2.616   6.544  18.149  0.00  0.00    +0.000 OA
ATOM     11  C   UNL     1       3.298   5.374  17.859  0.00  0.00    +0.000 A 
ENDROOT
BRANCH   1  16
ATOM     12  C   UNL     1       0.879   2.218  22.504  0.00  0.00    +0.000 C 
ATOM     13  N   UNL     1       1.941   2.315  21.490  0.00  0.00    +0.000 NA
ATOM     14  C   UNL     1       1.344   1.903  20.190  0.00  0.00    +0.000 C 
ATOM     15  C   UNL     1       0.705   3.019  19.394  0.00  0.00    +0.000 C 
ATOM     16  C   UNL     1       1.585   4.268  19.340  0.00  0.00    +0.000 C 
ATOM     17  C   UNL     1       1.848   4.759  20.771  0.00  0.00    +0.000 C 
ATOM     18  C   UNL     1       2.537   3.685  21.605  0.00  0.00    +0.000 C 
BRANCH  17  19
ATOM     19  O   UNL     1       2.559   5.996  20.795  0.00  0.00    +0.000 OA
ATOM     20  H   UNL     1       3.490   5.820  20.574  0.00  0.00    +0.000 HD
ENDBRANCH  17  19
ENDBRANCH   1  16
BRANCH   2  21
ATOM     21  O   UNL     1       3.368   1.694  18.469  0.00  0.00    +0.000 OA
ATOM     22  H   UNL     1       4.155   1.192  18.728  0.00  0.00    +0.000 HD
ENDBRANCH   2  21
BRANCH   4  23
ATOM     23  O   UNL     1       6.249   4.183  15.959  0.00  0.00    +0.000 OA
ATOM     24  H   UNL     1       6.015   3.902  15.059  0.00  0.00    +0.000 HD
ENDBRANCH   4  23
BRANCH   9  25
ATOM     25  C   UNL     1       2.190   8.889  17.930  0.00  0.00    +0.000 C 
ATOM     26  C   UNL     1       1.369   8.933  18.991  0.00  0.00    +0.000 C 
BRANCH  26  27
ATOM     27  C   UNL     1       0.523  10.106  19.251  0.00  0.00    +0.000 A 
ATOM     28  C   UNL     1       0.796  10.940  20.342  0.00  0.00    +0.000 A 
ATOM     29  C   UNL     1      -0.029  12.034  20.620  0.00  0.00    +0.000 A 
ATOM     30  C   UNL     1      -1.127  12.306  19.806  0.00  0.00    +0.000 A 
ATOM     31  C   UNL     1      -1.402  11.485  18.714  0.00  0.00    +0.000 A 
ATOM     32  C   UNL     1      -0.582  10.385  18.438  0.00  0.00    +0.000 A 
ENDBRANCH  26  27
ENDBRANCH   9  25
TORSDOF 6
ENDMDL
MODEL 6
REMARK VINA RESULT:      -7.2      8.472     10.362
REMARK  Name = 
REMARK  7 active torsions:
REMARK  status: ('A' for Active; 'I' for Inactive)
REMARK    1  A    between atoms: C_1  and  N_2
REMARK    2  A    between atoms: C_5  and  C_6
REMARK    3  A    between atoms: C_7  and  O_8
REMARK    4  A    between atoms: C_10  and  O_11
REMARK    5  A    between atoms: C_16  and  C_17
REMARK    6  A    between atoms: C_18  and  C_19
REMARK    7  A    between atoms: C_27  and  O_28
REMARK                            x       y       z     vdW  Elec       q    Type
REMARK                         _______ _______ _______ _____ _____    ______ ____
ROOT
ATOM      1  C   UNL     1      -1.174  11.072  19.539  0.00  0.00    +0.000 A 
ATOM      2  C   UNL     1      -2.017  12.007  20.201  0.00  0.00    +0.000 A 
ATOM      3  C   UNL     1      -2.024  12.128  21.585  0.00  0.00    +0.000 A 
ATOM      4  C   UNL     1      -1.191  11.355  22.384  0.00  0.00    +0.000 A 
ATOM      5  C   UNL     1      -0.348  10.424  21.782  0.00  0.00    +0.000 A 
ATOM      6  C   UNL     1       0.556   9.582  22.589  0.00  0.00    +0.000 A 
ATOM      7  O   UNL     1       0.642   9.634  23.811  0.00  0.00    +0.000 OA
ATOM      8  C   UNL     1       1.364   8.610  21.868  0.00  0.00    +0.000 A 
ATOM      9  C   UNL     1       1.280   8.515  20.550  0.00  0.00    +0.000 A 
ATOM     10  O   UNL     1       0.495   9.353  19.767  0.00  0.00    +0.000 OA
ATOM     11  C   UNL     1      -0.342  10.278  20.370  0.00  0.00    +0.000 A 
ENDROOT
BRANCH   1  16
ATOM     12  C   UNL     1      -3.920  10.418  15.510  0.00  0.00    +0.000 C 
ATOM     13  N   UNL     1      -3.769  10.644  16.956  0.00  0.00    +0.000 NA
ATOM     14  C   UNL     1      -3.090   9.444  17.519  0.00  0.00    +0.000 C 
ATOM     15  C   UNL     1      -1.579   9.500  17.516  0.00  0.00    +0.000 C 
ATOM     16  C   UNL     1      -1.049  10.843  18.018  0.00  0.00    +0.000 C 
ATOM     17  C   UNL     1      -1.594  11.964  17.122  0.00  0.00    +0.000 C 
ATOM     18  C   UNL     1      -3.119  11.983  17.128  0.00  0.00    +0.000 C 
BRANCH  17  19
ATOM     19  O   UNL     1      -1.040  13.237  17.453  0.00  0.00    +0.000 OA
ATOM     20  H   UNL     1      -1.642  13.683  18.075  0.00  0.00    +0.000 HD
ENDBRANCH  17  19
ENDBRANCH   1  16
BRANCH   2  21
ATOM     21  O   UNL     1      -2.911  12.900  19.709  0.00  0.00    +0.000 OA
ATOM     22  H   UNL     1      -3.224  13.591  20.313  0.00  0.00    +0.000 HD
ENDBRANCH   2  21
BRANCH   4  23
ATOM     23  O   UNL     1      -1.237  11.555  23.732  0.00  0.00    +0.000 OA
ATOM     24  H   UNL     1      -0.623  10.950  24.179  0.00  0.00    +0.000 HD
ENDBRANCH   4  23
BRANCH   9  25
ATOM     25  C   UNL     1       2.088   7.567  19.789  0.00  0.00    +0.000 C 
ATOM     26  C   UNL     1       2.037   6.233  19.935  0.00  0.00    +0.000 C 
BRANCH  26  27
ATOM     27  C   UNL     1       2.932   5.349  19.175  0.00  0.00    +0.000 A 
ATOM     28  C   UNL     1       2.439   4.621  18.086  0.00  0.00    +0.000 A 
ATOM     29  C   UNL     1       3.273   3.747  17.384  0.00  0.00    +0.000 A 
ATOM     30  C   UNL     1       4.607   3.600  17.761  0.00  0.00    +0.000 A 
ATOM     31  C   UNL     1       5.108   4.327  18.838  0.00  0.00    +0.000 A 
ATOM     32  C   UNL     1       4.272   5.197  19.547  0.00  0.00    +0.000 A 
ENDBRANCH  26  27
ENDBRANCH   9  25
TORSDOF 6
ENDMDL
MODEL 7
REMARK VINA RESULT:      -7.1      6.263      8.684
REMARK  Name = 
REMARK  7 active torsions:
REMARK  status: ('A' for Active; 'I' for Inactive)
REMARK    1  A    between atoms: C_1  and  N_2
REMARK    2  A    between atoms: C_5  and  C_6
REMARK    3  A    between atoms: C_7  and  O_8
REMARK    4  A    between atoms: C_10  and  O_11
REMARK    5  A    between atoms: C_16  and  C_17
REMARK    6  A    between atoms: C_18  and  C_19
REMARK    7  A    between atoms: C_27  and  O_28
REMARK                            x       y       z     vdW  Elec       q    Type
REMARK                         _______ _______ _______ _____ _____    ______ ____
ROOT
ATOM      1  C   UNL     1       0.784  12.448  20.783  0.00  0.00    +0.000 A 
ATOM      2  C   UNL     1      -0.022  13.179  21.700  0.00  0.00    +0.000 A 
ATOM      3  C   UNL     1      -0.865  12.538  22.599  0.00  0.00    +0.000 A 
ATOM      4  C   UNL     1      -0.942  11.152  22.658  0.00  0.00    +0.000 A 
ATOM      5  C   UNL     1      -0.174  10.392  21.779  0.00  0.00    +0.000 A 
ATOM      6  C   UNL     1      -0.221   8.918  21.805  0.00  0.00    +0.000 A 
ATOM      7  O   UNL     1      -0.912   8.263  22.579  0.00  0.00    +0.000 OA
ATOM      8  C   UNL     1       0.585   8.218  20.817  0.00  0.00    +0.000 A 
ATOM      9  C   UNL     1       1.327   8.898  19.955  0.00  0.00    +0.000 A 
ATOM     10  O   UNL     1       1.446  10.283  19.967  0.00  0.00    +0.000 OA
ATOM     11  C   UNL     1       0.680  11.034  20.843  0.00  0.00    +0.000 A 
ENDROOT
BRANCH   1  16
ATOM     12  C   UNL     1       2.017  16.665  18.569  0.00  0.00    +0.000 C 
ATOM     13  N   UNL     1       1.201  15.883  19.512  0.00  0.00    +0.000 NA
ATOM     14  C   UNL     1       0.433  14.893  18.708  0.00  0.00    +0.000 C 
ATOM     15  C   UNL     1       1.134  13.574  18.472  0.00  0.00    +0.000 C 
ATOM     16  C   UNL     1       1.773  13.022  19.747  0.00  0.00    +0.000 C 
ATOM     17  C   UNL     1       2.788  14.042  20.280  0.00  0.00    +0.000 C 
ATOM     18  C   UNL     1       2.122  15.380  20.581  0.00  0.00    +0.000 C 
BRANCH  17  19
ATOM     19  O   UNL     1       3.518  13.542  21.400  0.00  0.00    +0.000 OA
ATOM     20  H   UNL     1       2.892  13.381  22.128  0.00  0.00    +0.000 HD
ENDBRANCH  17  19
ENDBRANCH   1  16
BRANCH   2  21
ATOM     21  O   UNL     1      -0.152  14.514  21.899  0.00  0.00    +0.000 OA
ATOM     22  H   UNL     1      -1.051  14.859  22.005  0.00  0.00    +0.000 HD
ENDBRANCH   2  21
BRANCH   4  23
ATOM     23  O   UNL     1      -1.772  10.601  23.589  0.00  0.00    +0.000 OA
ATOM     24  H   UNL     1      -1.998   9.691  23.335  0.00  0.00    +0.000 HD
ENDBRANCH   4  23
BRANCH   9  25
ATOM     25  C   UNL     1       2.164   8.232  18.962  0.00  0.00    +0.000 C 
ATOM     26  C   UNL     1       2.487   6.930  18.987  0.00  0.00    +0.000 C 
BRANCH  26  27
ATOM     27  C   UNL     1       3.390   6.349  17.983  0.00  0.00    +0.000 A 
ATOM     28  C   UNL     1       3.417   4.965  17.780  0.00  0.00    +0.000 A 
ATOM     29  C   UNL     1       4.302   4.402  16.857  0.00  0.00    +0.000 A 
ATOM     30  C   UNL     1       5.161   5.220  16.124  0.00  0.00    +0.000 A 
ATOM     31  C   UNL     1       5.136   6.599  16.314  0.00  0.00    +0.000 A 
ATOM     32  C   UNL     1       4.255   7.164  17.244  0.00  0.00    +0.000 A 
ENDBRANCH  26  27
ENDBRANCH   9  25
TORSDOF 6
ENDMDL
MODEL 8
REMARK VINA RESULT:      -7.0      6.094      8.432
REMARK  Name = 
REMARK  7 active torsions:
REMARK  status: ('A' for Active; 'I' for Inactive)
REMARK    1  A    between atoms: C_1  and  N_2
REMARK    2  A    between atoms: C_5  and  C_6
REMARK    3  A    between atoms: C_7  and  O_8
REMARK    4  A    between atoms: C_10  and  O_11
REMARK    5  A    between atoms: C_16  and  C_17
REMARK    6  A    between atoms: C_18  and  C_19
REMARK    7  A    between atoms: C_27  and  O_28
REMARK                            x       y       z     vdW  Elec       q    Type
REMARK                         _______ _______ _______ _____ _____    ______ ____
ROOT
ATOM      1  C   UNL     1       1.553  14.032  19.441  0.00  0.00    +0.000 A 
ATOM      2  C   UNL     1       0.816  15.164  19.889  0.00  0.00    +0.000 A 
ATOM      3  C   UNL     1      -0.564  15.116  20.049  0.00  0.00    +0.000 A 
ATOM      4  C   UNL     1      -1.283  13.953  19.800  0.00  0.00    +0.000 A 
ATOM      5  C   UNL     1      -0.605  12.819  19.359  0.00  0.00    +0.000 A 
ATOM      6  C   UNL     1      -1.325  11.561  19.083  0.00  0.00    +0.000 A 
ATOM      7  O   UNL     1      -2.535  11.413  19.221  0.00  0.00    +0.000 OA
ATOM      8  C   UNL     1      -0.532  10.448  18.584  0.00  0.00    +0.000 A 
ATOM      9  C   UNL     1       0.774  10.582  18.406  0.00  0.00    +0.000 A 
ATOM     10  O   UNL     1       1.481  11.732  18.735  0.00  0.00    +0.000 OA
ATOM     11  C   UNL     1       0.802  12.858  19.174  0.00  0.00    +0.000 A 
ENDROOT
BRANCH   1  16
ATOM     12  C   UNL     1       5.579  16.844  19.137  0.00  0.00    +0.000 C 
ATOM     13  N   UNL     1       4.128  16.667  19.315  0.00  0.00    +0.000 NA
ATOM     14  C   UNL     1       3.597  16.100  18.045  0.00  0.00    +0.000 C 
ATOM     15  C   UNL     1       3.608  14.591  17.960  0.00  0.00    +0.000 C 
ATOM     16  C   UNL     1       3.079  13.935  19.236  0.00  0.00    +0.000 C 
ATOM     17  C   UNL     1       3.947  14.378  20.423  0.00  0.00    +0.000 C 
ATOM     18  C   UNL     1       3.931  15.894  20.584  0.00  0.00    +0.000 C 
BRANCH  17  19
ATOM     19  O   UNL     1       3.591  13.706  21.631  0.00  0.00    +0.000 OA
ATOM     20  H   UNL     1       2.621  13.636  21.669  0.00  0.00    +0.000 HD
ENDBRANCH  17  19
ENDBRANCH   1  16
BRANCH   2  21
ATOM     21  O   UNL     1       1.223  16.412  20.226  0.00  0.00    +0.000 OA
ATOM     22  H   UNL     1       1.369  17.040  19.503  0.00  0.00    +0.000 HD
ENDBRANCH   2  21
BRANCH   4  23
ATOM     23  O   UNL     1      -2.629  13.981  20.011  0.00  0.00    +0.000 OA
ATOM     24  H   UNL     1      -2.828  14.475  20.823  0.00  0.00    +0.000 HD
ENDBRANCH   4  23
BRANCH   9  25
ATOM     25  C   UNL     1       1.606   9.483  17.926  0.00  0.00    +0.000 C 
ATOM     26  C   UNL     1       1.818   8.339  18.595  0.00  0.00    +0.000 C 
BRANCH  26  27
ATOM     27  C   UNL     1       2.722   7.306  18.070  0.00  0.00    +0.000 A 
ATOM     28  C   UNL     1       2.420   5.951  18.250  0.00  0.00    +0.000 A 
ATOM     29  C   UNL     1       3.296   4.964  17.790  0.00  0.00    +0.000 A 
ATOM     30  C   UNL     1       4.476   5.324  17.141  0.00  0.00    +0.000 A 
ATOM     31  C   UNL     1       4.781   6.670  16.952  0.00  0.00    +0.000 A 
ATOM     32  C   UNL     1       3.909   7.660  17.418  0.00  0.00    +0.000 A 
ENDBRANCH  26  27
ENDBRANCH   9  25
TORSDOF 6
ENDMDL
MODEL 9
REMARK VINA RESULT:      -6.8      6.141      8.752
REMARK  Name = 
REMARK  7 active torsions:
REMARK  status: ('A' for Active; 'I' for Inactive)
REMARK    1  A    between atoms: C_1  and  N_2
REMARK    2  A    between atoms: C_5  and  C_6
REMARK    3  A    between atoms: C_7  and  O_8
REMARK    4  A    between atoms: C_10  and  O_11
REMARK    5  A    between atoms: C_16  and  C_17
REMARK    6  A    between atoms: C_18  and  C_19
REMARK    7  A    between atoms: C_27  and  O_28
REMARK                            x       y       z     vdW  Elec       q    Type
REMARK                         _______ _______ _______ _____ _____    ______ ____
ROOT
ATOM      1  C   UNL     1       1.193  13.975  21.143  0.00  0.00    +0.000 A 
ATOM      2  C   UNL     1       0.702  15.146  21.786  0.00  0.00    +0.000 A 
ATOM      3  C   UNL     1      -0.369  15.095  22.670  0.00  0.00    +0.000 A 
ATOM      4  C   UNL     1      -0.996  13.895  22.982  0.00  0.00    +0.000 A 
ATOM      5  C   UNL     1      -0.552  12.721  22.376  0.00  0.00    +0.000 A 
ATOM      6  C   UNL     1      -1.185  11.423  22.677  0.00  0.00    +0.000 A 
ATOM      7  O   UNL     1      -2.115  11.274  23.462  0.00  0.00    +0.000 OA
ATOM      8  C   UNL     1      -0.677  10.264  21.959  0.00  0.00    +0.000 A 
ATOM      9  C   UNL     1       0.315  10.396  21.090  0.00  0.00    +0.000 A 
ATOM     10  O   UNL     1       0.975  11.596  20.854  0.00  0.00    +0.000 OA
ATOM     11  C   UNL     1       0.530  12.760  21.458  0.00  0.00    +0.000 A 
ENDROOT
BRANCH   1  16
ATOM     12  C   UNL     1       4.422  16.790  18.725  0.00  0.00    +0.000 C 
ATOM     13  N   UNL     1       3.290  16.612  19.648  0.00  0.00    +0.000 NA
ATOM     14  C   UNL     1       2.169  16.033  18.859  0.00  0.00    +0.000 C 
ATOM     15  C   UNL     1       2.143  14.522  18.792  0.00  0.00    +0.000 C 
ATOM     16  C   UNL     1       2.377  13.879  20.159  0.00  0.00    +0.000 C 
ATOM     17  C   UNL     1       3.740  14.335  20.700  0.00  0.00    +0.000 C 
ATOM     18  C   UNL     1       3.802  15.852  20.833  0.00  0.00    +0.000 C 
BRANCH  17  19
ATOM     19  O   UNL     1       4.084  13.674  21.918  0.00  0.00    +0.000 OA
ATOM     20  H   UNL     1       4.909  14.064  22.256  0.00  0.00    +0.000 HD
ENDBRANCH  17  19
ENDBRANCH   1  16
BRANCH   2  21
ATOM     21  O   UNL     1       1.105  16.437  21.707  0.00  0.00    +0.000 OA
ATOM     22  H   UNL     1       1.401  16.756  20.841  0.00  0.00    +0.000 HD
ENDBRANCH   2  21
BRANCH   4  23
ATOM     23  O   UNL     1      -2.020  13.927  23.881  0.00  0.00    +0.000 OA
ATOM     24  H   UNL     1      -2.859  14.098  23.422  0.00  0.00    +0.000 HD
ENDBRANCH   4  23
BRANCH   9  25
ATOM     25  C   UNL     1       0.864   9.255  20.365  0.00  0.00    +0.000 C 
ATOM     26  C   UNL     1       1.281   8.116  20.940  0.00  0.00    +0.000 C 
BRANCH  26  27
ATOM     27  C   UNL     1       1.883   7.037  20.143  0.00  0.00    +0.000 A 
ATOM     28  C   UNL     1       2.458   7.321  18.899  0.00  0.00    +0.000 A 
ATOM     29  C   UNL     1       2.994   6.294  18.117  0.00  0.00    +0.000 A 
ATOM     30  C   UNL     1       2.966   4.978  18.576  0.00  0.00    +0.000 A 
ATOM     31  C   UNL     1       2.401   4.688  19.816  0.00  0.00    +0.000 A 
ATOM     32  C   UNL     1       1.857   5.714  20.597  0.00  0.00    +0.000 A 
ENDBRANCH  26  27
ENDBRANCH   9  25
TORSDOF 6
ENDMDL
