MODEL 1
REMARK VINA RESULT:      -8.3      0.000      0.000
REMARK  Name = 
REMARK  8 active torsions:
REMARK  status: ('A' for Active; 'I' for Inactive)
REMARK    1  A    between atoms: C_1  and  O_2
REMARK    2  A    between atoms: O_2  and  C_3
REMARK    3  A    between atoms: C_6  and  C_7
REMARK    4  A    between atoms: C_7  and  C_8
REMARK    5  A    between atoms: C_8  and  N_9
REMARK    6  A    between atoms: N_13  and  C_14
REMARK    7  A    between atoms: N_22  and  C_23
REMARK    8  A    between atoms: C_23  and  C_24
REMARK                            x       y       z     vdW  Elec       q    Type
REMARK                         _______ _______ _______ _____ _____    ______ ____
ROOT
ATOM      1  N   UNL     1      -0.047   9.745  20.711  0.00  0.00    +0.000 NA
ATOM      2  C   UNL     1       0.793   8.553  20.888  0.00  0.00    +0.000 C 
ATOM      3  C   UNL     1       2.006   8.463  19.963  0.00  0.00    +0.000 C 
ATOM      4  C   UNL     1       1.675   8.806  18.514  0.00  0.00    +0.000 C 
ATOM      5  N   UNL     1       2.263   8.330  17.448  0.00  0.00    +0.000 NA
ATOM      6  C   UNL     1       0.661   9.920  18.306  0.00  0.00    +0.000 C 
ATOM      7  C   UNL     1      -0.479   9.820  19.308  0.00  0.00    +0.000 C 
ENDROOT
BRANCH   5   8
ATOM      8  C   UNL     1       3.347   7.536  17.587  0.00  0.00    +0.000 A 
ATOM      9  N   UNL     1       4.618   7.876  17.577  0.00  0.00    +0.000 NA
ATOM     10  C   UNL     1       5.339   6.723  17.573  0.00  0.00    +0.000 A 
ATOM     11  C   UNL     1       6.731   6.556  17.544  0.00  0.00    +0.000 A 
ATOM     12  C   UNL     1       7.248   5.263  17.435  0.00  0.00    +0.000 A 
ATOM     13  C   UNL     1       6.392   4.167  17.338  0.00  0.00    +0.000 A 
ATOM     14  C   UNL     1       4.999   4.316  17.402  0.00  0.00    +0.000 A 
ATOM     15  C   UNL     1       4.501   5.617  17.554  0.00  0.00    +0.000 A 
ATOM     16  N   UNL     1       3.233   6.158  17.697  0.00  0.00    +0.000 N 
BRANCH  16  17
ATOM     17  C   UNL     1       1.996   5.390  17.752  0.00  0.00    +0.000 C 
BRANCH  17  18
ATOM     18  C   UNL     1       1.794   4.428  18.911  0.00  0.00    +0.000 A 
ATOM     19  C   UNL     1       1.314   3.112  18.803  0.00  0.00    +0.000 A 
ATOM     20  C   UNL     1       1.234   2.284  19.932  0.00  0.00    +0.000 A 
ATOM     21  C   UNL     1       1.611   2.772  21.176  0.00  0.00    +0.000 A 
ATOM     22  F   UNL     1       1.550   1.972  22.249  0.00  0.00    +0.000 F 
ATOM     23  C   UNL     1       2.055   4.077  21.323  0.00  0.00    +0.000 A 
ATOM     24  C   UNL     1       2.141   4.899  20.197  0.00  0.00    +0.000 A 
ENDBRANCH  17  18
ENDBRANCH  16  17
ENDBRANCH   5   8
BRANCH   1  25
ATOM     25  C   UNL     1       0.615  10.956  21.238  0.00  0.00    +0.000 C 
BRANCH  25  26
ATOM     26  C   UNL     1      -0.126  12.265  20.912  0.00  0.00    +0.000 C 
BRANCH  26  30
ATOM     27  C   UNL     1      -4.018  12.531  22.778  0.00  0.00    +0.000 A 
ATOM     28  C   UNL     1      -2.905  12.126  23.514  0.00  0.00    +0.000 A 
ATOM     29  C   UNL     1      -1.651  12.034  22.909  0.00  0.00    +0.000 A 
ATOM     30  C   UNL     1      -1.494  12.335  21.550  0.00  0.00    +0.000 A 
ATOM     31  C   UNL     1      -2.622  12.704  20.805  0.00  0.00    +0.000 A 
ATOM     32  C   UNL     1      -3.878  12.804  21.416  0.00  0.00    +0.000 A 
BRANCH  27  34
ATOM     33  C   UNL     1      -6.281  13.207  22.809  0.00  0.00    +0.000 C 
ATOM     34  O   UNL     1      -5.191  12.584  23.479  0.00  0.00    +0.000 OA
ENDBRANCH  27  34
ENDBRANCH  26  30
ENDBRANCH  25  26
ENDBRANCH   1  25
TORSDOF 7
ENDMDL
MODEL 2
REMARK VINA RESULT:      -8.1      2.314      3.063
REMARK  Name = 
REMARK  8 active torsions:
REMARK  status: ('A' for Active; 'I' for Inactive)
REMARK    1  A    between atoms: C_1  and  O_2
REMARK    2  A    between atoms: O_2  and  C_3
REMARK    3  A    between atoms: C_6  and  C_7
REMARK    4  A    between atoms: C_7  and  C_8
REMARK    5  A    between atoms: C_8  and  N_9
REMARK    6  A    between atoms: N_13  and  C_14
REMARK    7  A    between atoms: N_22  and  C_23
REMARK    8  A    between atoms: C_23  and  C_24
REMARK                            x       y       z     vdW  Elec       q    Type
REMARK                         _______ _______ _______ _____ _____    ______ ____
ROOT
ATOM      1  N   UNL     1       1.161   9.475  19.128  0.00  0.00    +0.000 NA
ATOM      2  C   UNL     1       2.300   9.378  18.205  0.00  0.00    +0.000 C 
ATOM      3  C   UNL     1       2.761   7.957  17.881  0.00  0.00    +0.000 C 
ATOM      4  C   UNL     1       2.859   7.068  19.117  0.00  0.00    +0.000 C 
ATOM      5  N   UNL     1       3.683   6.070  19.294  0.00  0.00    +0.000 NA
ATOM      6  C   UNL     1       1.790   7.280  20.178  0.00  0.00    +0.000 C 
ATOM      7  C   UNL     1       1.490   8.759  20.369  0.00  0.00    +0.000 C 
ENDROOT
BRANCH   5   8
ATOM      8  C   UNL     1       4.475   5.674  18.273  0.00  0.00    +0.000 A 
ATOM      9  N   UNL     1       5.621   6.186  17.880  0.00  0.00    +0.000 NA
ATOM     10  C   UNL     1       5.953   5.571  16.712  0.00  0.00    +0.000 A 
ATOM     11  C   UNL     1       7.071   5.781  15.894  0.00  0.00    +0.000 A 
ATOM     12  C   UNL     1       7.147   5.102  14.676  0.00  0.00    +0.000 A 
ATOM     13  C   UNL     1       6.118   4.248  14.279  0.00  0.00    +0.000 A 
ATOM     14  C   UNL     1       5.011   4.001  15.103  0.00  0.00    +0.000 A 
ATOM     15  C   UNL     1       4.975   4.659  16.340  0.00  0.00    +0.000 A 
ATOM     16  N   UNL     1       4.105   4.645  17.419  0.00  0.00    +0.000 N 
BRANCH  16  17
ATOM     17  C   UNL     1       2.906   3.821  17.519  0.00  0.00    +0.000 C 
BRANCH  17  18
ATOM     18  C   UNL     1       2.467   3.351  18.896  0.00  0.00    +0.000 A 
ATOM     19  C   UNL     1       3.297   2.744  19.852  0.00  0.00    +0.000 A 
ATOM     20  C   UNL     1       2.803   2.413  21.122  0.00  0.00    +0.000 A 
ATOM     21  C   UNL     1       1.474   2.667  21.436  0.00  0.00    +0.000 A 
ATOM     22  F   UNL     1       1.012   2.365  22.656  0.00  0.00    +0.000 F 
ATOM     23  C   UNL     1       0.619   3.231  20.503  0.00  0.00    +0.000 A 
ATOM     24  C   UNL     1       1.113   3.567  19.240  0.00  0.00    +0.000 A 
ENDBRANCH  17  18
ENDBRANCH  16  17
ENDBRANCH   5   8
BRANCH   1  25
ATOM     25  C   UNL     1      -0.100   9.068  18.475  0.00  0.00    +0.000 C 
BRANCH  25  26
ATOM     26  C   UNL     1      -0.583  10.044  17.386  0.00  0.00    +0.000 C 
BRANCH  26  30
ATOM     27  C   UNL     1      -4.489  11.718  18.188  0.00  0.00    +0.000 A 
ATOM     28  C   UNL     1      -3.427  11.944  19.063  0.00  0.00    +0.000 A 
ATOM     29  C   UNL     1      -2.169  11.398  18.808  0.00  0.00    +0.000 A 
ATOM     30  C   UNL     1      -1.957  10.604  17.673  0.00  0.00    +0.000 A 
ATOM     31  C   UNL     1      -3.035  10.347  16.817  0.00  0.00    +0.000 A 
ATOM     32  C   UNL     1      -4.295  10.904  17.071  0.00  0.00    +0.000 A 
BRANCH  27  34
ATOM     33  C   UNL     1      -6.847  11.672  18.051  0.00  0.00    +0.000 C 
ATOM     34  O   UNL     1      -5.672  12.306  18.544  0.00  0.00    +0.000 OA
ENDBRANCH  27  34
ENDBRANCH  26  30
ENDBRANCH  25  26
ENDBRANCH   1  25
TORSDOF 7
ENDMDL
MODEL 3
REMARK VINA RESULT:      -8.0      1.073      1.516
REMARK  Name = 
REMARK  8 active torsions:
REMARK  status: ('A' for Active; 'I' for Inactive)
REMARK    1  A    between atoms: C_1  and  O_2
REMARK    2  A    between atoms: O_2  and  C_3
REMARK    3  A    between atoms: C_6  and  C_7
REMARK    4  A    between atoms: C_7  and  C_8
REMARK    5  A    between atoms: C_8  and  N_9
REMARK    6  A    between atoms: N_13  and  C_14
REMARK    7  A    between atoms: N_22  and  C_23
REMARK    8  A    between atoms: C_23  and  C_24
REMARK                            x       y       z     vdW  Elec       q    Type
REMARK                         _______ _______ _______ _____ _____    ______ ____
ROOT
ATOM      1  N   UNL     1       0.029   9.520  20.902  0.00  0.00    +0.000 NA
ATOM      2  C   UNL     1       0.887   8.330  20.980  0.00  0.00    +0.000 C 
ATOM      3  C   UNL     1       2.079   8.319  20.024  0.00  0.00    +0.000 C 
ATOM      4  C   UNL     1       1.710   8.752  18.609  0.00  0.00    +0.000 C 
ATOM      5  N   UNL     1       2.279   8.356  17.501  0.00  0.00    +0.000 NA
ATOM      6  C   UNL     1       0.678   9.864  18.499  0.00  0.00    +0.000 C 
ATOM      7  C   UNL     1      -0.437   9.682  19.517  0.00  0.00    +0.000 C 
ENDROOT
BRANCH   5   8
ATOM      8  C   UNL     1       3.376   7.569  17.562  0.00  0.00    +0.000 A 
ATOM      9  N   UNL     1       4.640   7.917  17.450  0.00  0.00    +0.000 NA
ATOM     10  C   UNL     1       5.366   6.768  17.400  0.00  0.00    +0.000 A 
ATOM     11  C   UNL     1       6.752   6.608  17.265  0.00  0.00    +0.000 A 
ATOM     12  C   UNL     1       7.267   5.317  17.128  0.00  0.00    +0.000 A 
ATOM     13  C   UNL     1       6.413   4.215  17.108  0.00  0.00    +0.000 A 
ATOM     14  C   UNL     1       5.028   4.357  17.279  0.00  0.00    +0.000 A 
ATOM     15  C   UNL     1       4.536   5.656  17.457  0.00  0.00    +0.000 A 
ATOM     16  N   UNL     1       3.279   6.192  17.694  0.00  0.00    +0.000 N 
BRANCH  16  17
ATOM     17  C   UNL     1       2.055   5.418  17.852  0.00  0.00    +0.000 C 
BRANCH  17  18
ATOM     18  C   UNL     1       1.909   4.541  19.085  0.00  0.00    +0.000 A 
ATOM     19  C   UNL     1       2.407   4.845  20.363  0.00  0.00    +0.000 A 
ATOM     20  C   UNL     1       2.154   3.996  21.450  0.00  0.00    +0.000 A 
ATOM     21  C   UNL     1       1.423   2.830  21.263  0.00  0.00    +0.000 A 
ATOM     22  F   UNL     1       1.169   2.032  22.308  0.00  0.00    +0.000 F 
ATOM     23  C   UNL     1       0.949   2.483  20.008  0.00  0.00    +0.000 A 
ATOM     24  C   UNL     1       1.195   3.332  18.926  0.00  0.00    +0.000 A 
ENDBRANCH  17  18
ENDBRANCH  16  17
ENDBRANCH   5   8
BRANCH   1  25
ATOM     25  C   UNL     1       0.688  10.702  21.493  0.00  0.00    +0.000 C 
BRANCH  25  26
ATOM     26  C   UNL     1       0.061  12.043  21.072  0.00  0.00    +0.000 C 
BRANCH  26  30
ATOM     27  C   UNL     1      -2.669  13.680  24.000  0.00  0.00    +0.000 A 
ATOM     28  C   UNL     1      -1.505  14.367  23.654  0.00  0.00    +0.000 A 
ATOM     29  C   UNL     1      -0.622  13.834  22.714  0.00  0.00    +0.000 A 
ATOM     30  C   UNL     1      -0.885  12.597  22.114  0.00  0.00    +0.000 A 
ATOM     31  C   UNL     1      -2.035  11.892  22.493  0.00  0.00    +0.000 A 
ATOM     32  C   UNL     1      -2.924  12.433  23.430  0.00  0.00    +0.000 A 
BRANCH  27  34
ATOM     33  C   UNL     1      -3.302  15.714  25.022  0.00  0.00    +0.000 C 
ATOM     34  O   UNL     1      -3.456  14.302  24.930  0.00  0.00    +0.000 OA
ENDBRANCH  27  34
ENDBRANCH  26  30
ENDBRANCH  25  26
ENDBRANCH   1  25
TORSDOF 7
ENDMDL
MODEL 4
REMARK VINA RESULT:      -8.0      2.436      3.562
REMARK  Name = 
REMARK  8 active torsions:
REMARK  status: ('A' for Active; 'I' for Inactive)
REMARK    1  A    between atoms: C_1  and  O_2
REMARK    2  A    between atoms: O_2  and  C_3
REMARK    3  A    between atoms: C_6  and  C_7
REMARK    4  A    between atoms: C_7  and  C_8
REMARK    5  A    between atoms: C_8  and  N_9
REMARK    6  A    between atoms: N_13  and  C_14
REMARK    7  A    between atoms: N_22  and  C_23
REMARK    8  A    between atoms: C_23  and  C_24
REMARK                            x       y       z     vdW  Elec       q    Type
REMARK                         _______ _______ _______ _____ _____    ______ ____
ROOT
ATOM      1  N   UNL     1      -0.059   9.672  20.809  0.00  0.00    +0.000 NA
ATOM      2  C   UNL     1       0.788   8.479  20.948  0.00  0.00    +0.000 C 
ATOM      3  C   UNL     1       1.990   8.416  20.006  0.00  0.00    +0.000 C 
ATOM      4  C   UNL     1       1.639   8.790  18.570  0.00  0.00    +0.000 C 
ATOM      5  N   UNL     1       2.215   8.340  17.486  0.00  0.00    +0.000 NA
ATOM      6  C   UNL     1       0.618   9.904  18.400  0.00  0.00    +0.000 C 
ATOM      7  C   UNL     1      -0.509   9.776  19.413  0.00  0.00    +0.000 C 
ENDROOT
BRANCH   5   8
ATOM      8  C   UNL     1       3.305   7.548  17.593  0.00  0.00    +0.000 A 
ATOM      9  N   UNL     1       4.574   7.893  17.562  0.00  0.00    +0.000 NA
ATOM     10  C   UNL     1       5.299   6.743  17.529  0.00  0.00    +0.000 A 
ATOM     11  C   UNL     1       6.690   6.581  17.471  0.00  0.00    +0.000 A 
ATOM     12  C   UNL     1       7.209   5.291  17.336  0.00  0.00    +0.000 A 
ATOM     13  C   UNL     1       6.355   4.193  17.244  0.00  0.00    +0.000 A 
ATOM     14  C   UNL     1       4.963   4.336  17.337  0.00  0.00    +0.000 A 
ATOM     15  C   UNL     1       4.464   5.634  17.515  0.00  0.00    +0.000 A 
ATOM     16  N   UNL     1       3.198   6.169  17.690  0.00  0.00    +0.000 N 
BRANCH  16  17
ATOM     17  C   UNL     1       1.964   5.396  17.761  0.00  0.00    +0.000 C 
BRANCH  17  18
ATOM     18  C   UNL     1       1.785   4.427  18.918  0.00  0.00    +0.000 A 
ATOM     19  C   UNL     1       1.327   3.104  18.808  0.00  0.00    +0.000 A 
ATOM     20  C   UNL     1       1.267   2.271  19.934  0.00  0.00    +0.000 A 
ATOM     21  C   UNL     1       1.642   2.761  21.179  0.00  0.00    +0.000 A 
ATOM     22  F   UNL     1       1.600   1.957  22.248  0.00  0.00    +0.000 F 
ATOM     23  C   UNL     1       2.064   4.073  21.328  0.00  0.00    +0.000 A 
ATOM     24  C   UNL     1       2.130   4.900  20.204  0.00  0.00    +0.000 A 
ENDBRANCH  17  18
ENDBRANCH  16  17
ENDBRANCH   5   8
BRANCH   1  25
ATOM     25  C   UNL     1       0.604  10.874  21.354  0.00  0.00    +0.000 C 
BRANCH  25  26
ATOM     26  C   UNL     1      -0.180  12.178  21.126  0.00  0.00    +0.000 C 
BRANCH  26  30
ATOM     27  C   UNL     1       2.099  15.193  19.024  0.00  0.00    +0.000 A 
ATOM     28  C   UNL     1       0.718  15.321  19.170  0.00  0.00    +0.000 A 
ATOM     29  C   UNL     1      -0.017  14.345  19.842  0.00  0.00    +0.000 A 
ATOM     30  C   UNL     1       0.619  13.215  20.370  0.00  0.00    +0.000 A 
ATOM     31  C   UNL     1       2.001  13.070  20.187  0.00  0.00    +0.000 A 
ATOM     32  C   UNL     1       2.738  14.056  19.520  0.00  0.00    +0.000 A 
BRANCH  27  34
ATOM     33  C   UNL     1       3.493  15.826  17.225  0.00  0.00    +0.000 C 
ATOM     34  O   UNL     1       2.710  16.213  18.348  0.00  0.00    +0.000 OA
ENDBRANCH  27  34
ENDBRANCH  26  30
ENDBRANCH  25  26
ENDBRANCH   1  25
TORSDOF 7
ENDMDL
MODEL 5
REMARK VINA RESULT:      -7.9      2.731      4.045
REMARK  Name = 
REMARK  8 active torsions:
REMARK  status: ('A' for Active; 'I' for Inactive)
REMARK    1  A    between atoms: C_1  and  O_2
REMARK    2  A    between atoms: O_2  and  C_3
REMARK    3  A    between atoms: C_6  and  C_7
REMARK    4  A    between atoms: C_7  and  C_8
REMARK    5  A    between atoms: C_8  and  N_9
REMARK    6  A    between atoms: N_13  and  C_14
REMARK    7  A    between atoms: N_22  and  C_23
REMARK    8  A    between atoms: C_23  and  C_24
REMARK                            x       y       z     vdW  Elec       q    Type
REMARK                         _______ _______ _______ _____ _____    ______ ____
ROOT
ATOM      1  N   UNL     1       0.030   9.880  20.655  0.00  0.00    +0.000 NA
ATOM      2  C   UNL     1       0.929   8.738  20.876  0.00  0.00    +0.000 C 
ATOM      3  C   UNL     1       2.086   8.615  19.885  0.00  0.00    +0.000 C 
ATOM      4  C   UNL     1       1.652   8.820  18.437  0.00  0.00    +0.000 C 
ATOM      5  N   UNL     1       2.192   8.277  17.378  0.00  0.00    +0.000 NA
ATOM      6  C   UNL     1       0.581   9.875  18.204  0.00  0.00    +0.000 C 
ATOM      7  C   UNL     1      -0.490   9.818  19.282  0.00  0.00    +0.000 C 
ENDROOT
BRANCH   5   8
ATOM      8  C   UNL     1       3.316   7.538  17.512  0.00  0.00    +0.000 A 
ATOM      9  N   UNL     1       4.569   7.932  17.435  0.00  0.00    +0.000 NA
ATOM     10  C   UNL     1       5.341   6.813  17.457  0.00  0.00    +0.000 A 
ATOM     11  C   UNL     1       6.736   6.704  17.381  0.00  0.00    +0.000 A 
ATOM     12  C   UNL     1       7.306   5.431  17.315  0.00  0.00    +0.000 A 
ATOM     13  C   UNL     1       6.498   4.295  17.306  0.00  0.00    +0.000 A 
ATOM     14  C   UNL     1       5.103   4.387  17.418  0.00  0.00    +0.000 A 
ATOM     15  C   UNL     1       4.553   5.671  17.526  0.00  0.00    +0.000 A 
ATOM     16  N   UNL     1       3.268   6.164  17.694  0.00  0.00    +0.000 N 
BRANCH  16  17
ATOM     17  C   UNL     1       2.069   5.347  17.836  0.00  0.00    +0.000 C 
BRANCH  17  18
ATOM     18  C   UNL     1       1.913   4.507  19.093  0.00  0.00    +0.000 A 
ATOM     19  C   UNL     1       2.326   4.885  20.380  0.00  0.00    +0.000 A 
ATOM     20  C   UNL     1       2.069   4.061  21.486  0.00  0.00    +0.000 A 
ATOM     21  C   UNL     1       1.418   2.847  21.307  0.00  0.00    +0.000 A 
ATOM     22  F   UNL     1       1.158   2.072  22.368  0.00  0.00    +0.000 F 
ATOM     23  C   UNL     1       1.029   2.428  20.045  0.00  0.00    +0.000 A 
ATOM     24  C   UNL     1       1.280   3.253  18.945  0.00  0.00    +0.000 A 
ENDBRANCH  17  18
ENDBRANCH  16  17
ENDBRANCH   5   8
BRANCH   1  25
ATOM     25  C   UNL     1       0.672  11.155  21.036  0.00  0.00    +0.000 C 
BRANCH  25  26
ATOM     26  C   UNL     1       0.045  12.393  20.369  0.00  0.00    +0.000 C 
BRANCH  26  30
ATOM     27  C   UNL     1       2.935  14.849  18.291  0.00  0.00    +0.000 A 
ATOM     28  C   UNL     1       2.988  13.458  18.197  0.00  0.00    +0.000 A 
ATOM     29  C   UNL     1       2.059  12.667  18.873  0.00  0.00    +0.000 A 
ATOM     30  C   UNL     1       1.067  13.257  19.667  0.00  0.00    +0.000 A 
ATOM     31  C   UNL     1       1.042  14.652  19.790  0.00  0.00    +0.000 A 
ATOM     32  C   UNL     1       1.969  15.445  19.103  0.00  0.00    +0.000 A 
BRANCH  27  34
ATOM     33  C   UNL     1       5.237  15.106  17.826  0.00  0.00    +0.000 C 
ATOM     34  O   UNL     1       3.896  15.517  17.584  0.00  0.00    +0.000 OA
ENDBRANCH  27  34
ENDBRANCH  26  30
ENDBRANCH  25  26
ENDBRANCH   1  25
TORSDOF 7
ENDMDL
MODEL 6
REMARK VINA RESULT:      -7.9      2.247      2.938
REMARK  Name = 
REMARK  8 active torsions:
REMARK  status: ('A' for Active; 'I' for Inactive)
REMARK    1  A    between atoms: C_1  and  O_2
REMARK    2  A    between atoms: O_2  and  C_3
REMARK    3  A    between atoms: C_6  and  C_7
REMARK    4  A    between atoms: C_7  and  C_8
REMARK    5  A    between atoms: C_8  and  N_9
REMARK    6  A    between atoms: N_13  and  C_14
REMARK    7  A    between atoms: N_22  and  C_23
REMARK    8  A    between atoms: C_23  and  C_24
REMARK                            x       y       z     vdW  Elec       q    Type
REMARK                         _______ _______ _______ _____ _____    ______ ____
ROOT
ATOM      1  N   UNL     1       1.091   9.845  18.713  0.00  0.00    +0.000 NA
ATOM      2  C   UNL     1       2.298   9.680  17.891  0.00  0.00    +0.000 C 
ATOM      3  C   UNL     1       2.727   8.234  17.641  0.00  0.00    +0.000 C 
ATOM      4  C   UNL     1       2.686   7.377  18.903  0.00  0.00    +0.000 C 
ATOM      5  N   UNL     1       3.452   6.353  19.172  0.00  0.00    +0.000 NA
ATOM      6  C   UNL     1       1.543   7.658  19.865  0.00  0.00    +0.000 C 
ATOM      7  C   UNL     1       1.288   9.152  19.994  0.00  0.00    +0.000 C 
ENDROOT
BRANCH   5   8
ATOM      8  C   UNL     1       4.309   5.899  18.230  0.00  0.00    +0.000 A 
ATOM      9  N   UNL     1       5.466   6.406  17.863  0.00  0.00    +0.000 NA
ATOM     10  C   UNL     1       5.875   5.712  16.767  0.00  0.00    +0.000 A 
ATOM     11  C   UNL     1       7.034   5.886  15.999  0.00  0.00    +0.000 A 
ATOM     12  C   UNL     1       7.193   5.117  14.843  0.00  0.00    +0.000 A 
ATOM     13  C   UNL     1       6.206   4.211  14.457  0.00  0.00    +0.000 A 
ATOM     14  C   UNL     1       5.058   4.001  15.235  0.00  0.00    +0.000 A 
ATOM     15  C   UNL     1       4.938   4.751  16.413  0.00  0.00    +0.000 A 
ATOM     16  N   UNL     1       4.008   4.799  17.440  0.00  0.00    +0.000 N 
BRANCH  16  17
ATOM     17  C   UNL     1       2.822   3.957  17.536  0.00  0.00    +0.000 C 
BRANCH  17  18
ATOM     18  C   UNL     1       2.418   3.435  18.906  0.00  0.00    +0.000 A 
ATOM     19  C   UNL     1       3.276   2.811  19.824  0.00  0.00    +0.000 A 
ATOM     20  C   UNL     1       2.814   2.430  21.092  0.00  0.00    +0.000 A 
ATOM     21  C   UNL     1       1.487   2.651  21.440  0.00  0.00    +0.000 A 
ATOM     22  F   UNL     1       1.054   2.302  22.659  0.00  0.00    +0.000 F 
ATOM     23  C   UNL     1       0.605   3.232  20.543  0.00  0.00    +0.000 A 
ATOM     24  C   UNL     1       1.068   3.617  19.282  0.00  0.00    +0.000 A 
ENDBRANCH  17  18
ENDBRANCH  16  17
ENDBRANCH   5   8
BRANCH   1  25
ATOM     25  C   UNL     1      -0.127   9.469  17.967  0.00  0.00    +0.000 C 
BRANCH  25  26
ATOM     26  C   UNL     1      -1.383  10.253  18.386  0.00  0.00    +0.000 C 
BRANCH  26  30
ATOM     27  C   UNL     1      -0.381  14.081  20.131  0.00  0.00    +0.000 A 
ATOM     28  C   UNL     1      -0.834  13.033  20.932  0.00  0.00    +0.000 A 
ATOM     29  C   UNL     1      -1.163  11.801  20.368  0.00  0.00    +0.000 A 
ATOM     30  C   UNL     1      -1.056  11.602  18.985  0.00  0.00    +0.000 A 
ATOM     31  C   UNL     1      -0.638  12.669  18.179  0.00  0.00    +0.000 A 
ATOM     32  C   UNL     1      -0.300  13.902  18.750  0.00  0.00    +0.000 A 
BRANCH  27  34
ATOM     33  C   UNL     1      -0.091  15.149  22.218  0.00  0.00    +0.000 C 
ATOM     34  O   UNL     1      -0.089  15.239  20.798  0.00  0.00    +0.000 OA
ENDBRANCH  27  34
ENDBRANCH  26  30
ENDBRANCH  25  26
ENDBRANCH   1  25
TORSDOF 7
ENDMDL
MODEL 7
REMARK VINA RESULT:      -7.9      1.741      2.483
REMARK  Name = 
REMARK  8 active torsions:
REMARK  status: ('A' for Active; 'I' for Inactive)
REMARK    1  A    between atoms: C_1  and  O_2
REMARK    2  A    between atoms: O_2  and  C_3
REMARK    3  A    between atoms: C_6  and  C_7
REMARK    4  A    between atoms: C_7  and  C_8
REMARK    5  A    between atoms: C_8  and  N_9
REMARK    6  A    between atoms: N_13  and  C_14
REMARK    7  A    between atoms: N_22  and  C_23
REMARK    8  A    between atoms: C_23  and  C_24
REMARK                            x       y       z     vdW  Elec       q    Type
REMARK                         _______ _______ _______ _____ _____    ______ ____
ROOT
ATOM      1  N   UNL     1       1.058   9.666  18.784  0.00  0.00    +0.000 NA
ATOM      2  C   UNL     1       2.206   9.507  17.882  0.00  0.00    +0.000 C 
ATOM      3  C   UNL     1       2.692   8.071  17.687  0.00  0.00    +0.000 C 
ATOM      4  C   UNL     1       2.792   7.296  18.997  0.00  0.00    +0.000 C 
ATOM      5  N   UNL     1       3.630   6.330  19.267  0.00  0.00    +0.000 NA
ATOM      6  C   UNL     1       1.712   7.583  20.028  0.00  0.00    +0.000 C 
ATOM      7  C   UNL     1       1.388   9.068  20.085  0.00  0.00    +0.000 C 
ENDROOT
BRANCH   5   8
ATOM      8  C   UNL     1       4.437   5.858  18.290  0.00  0.00    +0.000 A 
ATOM      9  N   UNL     1       5.617   6.304  17.916  0.00  0.00    +0.000 NA
ATOM     10  C   UNL     1       5.958   5.628  16.787  0.00  0.00    +0.000 A 
ATOM     11  C   UNL     1       7.110   5.756  15.999  0.00  0.00    +0.000 A 
ATOM     12  C   UNL     1       7.196   5.024  14.812  0.00  0.00    +0.000 A 
ATOM     13  C   UNL     1       6.144   4.199  14.415  0.00  0.00    +0.000 A 
ATOM     14  C   UNL     1       5.001   4.034  15.210  0.00  0.00    +0.000 A 
ATOM     15  C   UNL     1       4.953   4.743  16.418  0.00  0.00    +0.000 A 
ATOM     16  N   UNL     1       4.049   4.812  17.466  0.00  0.00    +0.000 N 
BRANCH  16  17
ATOM     17  C   UNL     1       2.813   4.045  17.558  0.00  0.00    +0.000 C 
BRANCH  17  18
ATOM     18  C   UNL     1       2.406   3.492  18.914  0.00  0.00    +0.000 A 
ATOM     19  C   UNL     1       3.245   2.781  19.787  0.00  0.00    +0.000 A 
ATOM     20  C   UNL     1       2.787   2.376  21.049  0.00  0.00    +0.000 A 
ATOM     21  C   UNL     1       1.483   2.660  21.436  0.00  0.00    +0.000 A 
ATOM     22  F   UNL     1       1.055   2.286  22.649  0.00  0.00    +0.000 F 
ATOM     23  C   UNL     1       0.618   3.327  20.583  0.00  0.00    +0.000 A 
ATOM     24  C   UNL     1       1.078   3.736  19.328  0.00  0.00    +0.000 A 
ENDBRANCH  17  18
ENDBRANCH  16  17
ENDBRANCH   5   8
BRANCH   1  25
ATOM     25  C   UNL     1      -0.192   9.184  18.161  0.00  0.00    +0.000 C 
BRANCH  25  26
ATOM     26  C   UNL     1      -0.984  10.278  17.423  0.00  0.00    +0.000 C 
BRANCH  26  30
ATOM     27  C   UNL     1      -3.640  12.505  20.009  0.00  0.00    +0.000 A 
ATOM     28  C   UNL     1      -2.287  12.379  20.321  0.00  0.00    +0.000 A 
ATOM     29  C   UNL     1      -1.432  11.655  19.490  0.00  0.00    +0.000 A 
ATOM     30  C   UNL     1      -1.924  11.033  18.335  0.00  0.00    +0.000 A 
ATOM     31  C   UNL     1      -3.291  11.128  18.046  0.00  0.00    +0.000 A 
ATOM     32  C   UNL     1      -4.145  11.863  18.877  0.00  0.00    +0.000 A 
BRANCH  27  34
ATOM     33  C   UNL     1      -5.737  12.846  21.042  0.00  0.00    +0.000 C 
ATOM     34  O   UNL     1      -4.377  13.239  20.897  0.00  0.00    +0.000 OA
ENDBRANCH  27  34
ENDBRANCH  26  30
ENDBRANCH  25  26
ENDBRANCH   1  25
TORSDOF 7
ENDMDL
MODEL 8
REMARK VINA RESULT:      -7.8      0.673      1.338
REMARK  Name = 
REMARK  8 active torsions:
REMARK  status: ('A' for Active; 'I' for Inactive)
REMARK    1  A    between atoms: C_1  and  O_2
REMARK    2  A    between atoms: O_2  and  C_3
REMARK    3  A    between atoms: C_6  and  C_7
REMARK    4  A    between atoms: C_7  and  C_8
REMARK    5  A    between atoms: C_8  and  N_9
REMARK    6  A    between atoms: N_13  and  C_14
REMARK    7  A    between atoms: N_22  and  C_23
REMARK    8  A    between atoms: C_23  and  C_24
REMARK                            x       y       z     vdW  Elec       q    Type
REMARK                         _______ _______ _______ _____ _____    ______ ____
ROOT
ATOM      1  N   UNL     1      -0.223   9.630  20.592  0.00  0.00    +0.000 NA
ATOM      2  C   UNL     1       0.657   8.469  20.780  0.00  0.00    +0.000 C 
ATOM      3  C   UNL     1       1.908   8.446  19.902  0.00  0.00    +0.000 C 
ATOM      4  C   UNL     1       1.619   8.804  18.447  0.00  0.00    +0.000 C 
ATOM      5  N   UNL     1       2.266   8.373  17.397  0.00  0.00    +0.000 NA
ATOM      6  C   UNL     1       0.569   9.882  18.221  0.00  0.00    +0.000 C 
ATOM      7  C   UNL     1      -0.603   9.716  19.175  0.00  0.00    +0.000 C 
ENDROOT
BRANCH   5   8
ATOM      8  C   UNL     1       3.376   7.620  17.564  0.00  0.00    +0.000 A 
ATOM      9  N   UNL     1       4.635   7.996  17.512  0.00  0.00    +0.000 NA
ATOM     10  C   UNL     1       5.390   6.865  17.563  0.00  0.00    +0.000 A 
ATOM     11  C   UNL     1       6.785   6.737  17.521  0.00  0.00    +0.000 A 
ATOM     12  C   UNL     1       7.339   5.455  17.480  0.00  0.00    +0.000 A 
ATOM     13  C   UNL     1       6.514   4.330  17.462  0.00  0.00    +0.000 A 
ATOM     14  C   UNL     1       5.118   4.443  17.541  0.00  0.00    +0.000 A 
ATOM     15  C   UNL     1       4.585   5.736  17.625  0.00  0.00    +0.000 A 
ATOM     16  N   UNL     1       3.304   6.249  17.758  0.00  0.00    +0.000 N 
BRANCH  16  17
ATOM     17  C   UNL     1       2.090   5.450  17.879  0.00  0.00    +0.000 C 
BRANCH  17  18
ATOM     18  C   UNL     1       1.931   4.561  19.101  0.00  0.00    +0.000 A 
ATOM     19  C   UNL     1       2.369   4.874  20.398  0.00  0.00    +0.000 A 
ATOM     20  C   UNL     1       2.107   4.009  21.471  0.00  0.00    +0.000 A 
ATOM     21  C   UNL     1       1.426   2.819  21.250  0.00  0.00    +0.000 A 
ATOM     22  F   UNL     1       1.163   2.005  22.281  0.00  0.00    +0.000 F 
ATOM     23  C   UNL     1       1.012   2.463  19.976  0.00  0.00    +0.000 A 
ATOM     24  C   UNL     1       1.268   3.328  18.909  0.00  0.00    +0.000 A 
ENDBRANCH  17  18
ENDBRANCH  16  17
ENDBRANCH   5   8
BRANCH   1  25
ATOM     25  C   UNL     1       0.369  10.856  21.167  0.00  0.00    +0.000 C 
BRANCH  25  26
ATOM     26  C   UNL     1      -0.297  11.316  22.476  0.00  0.00    +0.000 C 
BRANCH  26  30
ATOM     27  C   UNL     1      -4.103  13.243  21.766  0.00  0.00    +0.000 A 
ATOM     28  C   UNL     1      -3.102  13.269  20.795  0.00  0.00    +0.000 A 
ATOM     29  C   UNL     1      -1.872  12.653  21.028  0.00  0.00    +0.000 A 
ATOM     30  C   UNL     1      -1.620  12.009  22.246  0.00  0.00    +0.000 A 
ATOM     31  C   UNL     1      -2.613  12.018  23.233  0.00  0.00    +0.000 A 
ATOM     32  C   UNL     1      -3.850  12.630  22.994  0.00  0.00    +0.000 A 
BRANCH  27  34
ATOM     33  C   UNL     1      -5.648  14.958  22.268  0.00  0.00    +0.000 C 
ATOM     34  O   UNL     1      -5.264  13.879  21.423  0.00  0.00    +0.000 OA
ENDBRANCH  27  34
ENDBRANCH  26  30
ENDBRANCH  25  26
ENDBRANCH   1  25
TORSDOF 7
ENDMDL
MODEL 9
REMARK VINA RESULT:      -7.7      2.102      2.898
REMARK  Name = 
REMARK  8 active torsions:
REMARK  status: ('A' for Active; 'I' for Inactive)
REMARK    1  A    between atoms: C_1  and  O_2
REMARK    2  A    between atoms: O_2  and  C_3
REMARK    3  A    between atoms: C_6  and  C_7
REMARK    4  A    between atoms: C_7  and  C_8
REMARK    5  A    between atoms: C_8  and  N_9
REMARK    6  A    between atoms: N_13  and  C_14
REMARK    7  A    between atoms: N_22  and  C_23
REMARK    8  A    between atoms: C_23  and  C_24
REMARK                            x       y       z     vdW  Elec       q    Type
REMARK                         _______ _______ _______ _____ _____    ______ ____
ROOT
ATOM      1  N   UNL     1      -0.036   9.815  20.780  0.00  0.00    +0.000 NA
ATOM      2  C   UNL     1       0.805   8.620  20.941  0.00  0.00    +0.000 C 
ATOM      3  C   UNL     1       1.991   8.520  19.982  0.00  0.00    +0.000 C 
ATOM      4  C   UNL     1       1.619   8.854  18.541  0.00  0.00    +0.000 C 
ATOM      5  N   UNL     1       2.174   8.368  17.462  0.00  0.00    +0.000 NA
ATOM      6  C   UNL     1       0.604   9.971  18.355  0.00  0.00    +0.000 C 
ATOM      7  C   UNL     1      -0.507   9.882  19.389  0.00  0.00    +0.000 C 
ENDROOT
BRANCH   5   8
ATOM      8  C   UNL     1       3.260   7.571  17.575  0.00  0.00    +0.000 A 
ATOM      9  N   UNL     1       4.531   7.906  17.521  0.00  0.00    +0.000 NA
ATOM     10  C   UNL     1       5.247   6.750  17.507  0.00  0.00    +0.000 A 
ATOM     11  C   UNL     1       6.636   6.576  17.436  0.00  0.00    +0.000 A 
ATOM     12  C   UNL     1       7.144   5.280  17.326  0.00  0.00    +0.000 A 
ATOM     13  C   UNL     1       6.281   4.186  17.268  0.00  0.00    +0.000 A 
ATOM     14  C   UNL     1       4.891   4.342  17.374  0.00  0.00    +0.000 A 
ATOM     15  C   UNL     1       4.404   5.646  17.527  0.00  0.00    +0.000 A 
ATOM     16  N   UNL     1       3.144   6.195  17.705  0.00  0.00    +0.000 N 
BRANCH  16  17
ATOM     17  C   UNL     1       1.905   5.433  17.808  0.00  0.00    +0.000 C 
BRANCH  17  18
ATOM     18  C   UNL     1       1.762   4.439  18.949  0.00  0.00    +0.000 A 
ATOM     19  C   UNL     1       1.359   3.101  18.816  0.00  0.00    +0.000 A 
ATOM     20  C   UNL     1       1.328   2.249  19.930  0.00  0.00    +0.000 A 
ATOM     21  C   UNL     1       1.679   2.734  21.183  0.00  0.00    +0.000 A 
ATOM     22  F   UNL     1       1.666   1.912  22.240  0.00  0.00    +0.000 F 
ATOM     23  C   UNL     1       2.047   4.059  21.354  0.00  0.00    +0.000 A 
ATOM     24  C   UNL     1       2.083   4.906  20.243  0.00  0.00    +0.000 A 
ENDBRANCH  17  18
ENDBRANCH  16  17
ENDBRANCH   5   8
BRANCH   1  25
ATOM     25  C   UNL     1       0.646  11.027  21.279  0.00  0.00    +0.000 C 
BRANCH  25  26
ATOM     26  C   UNL     1      -0.314  12.158  21.689  0.00  0.00    +0.000 C 
BRANCH  26  30
ATOM     27  C   UNL     1      -0.129  15.580  19.051  0.00  0.00    +0.000 A 
ATOM     28  C   UNL     1      -1.097  15.508  20.053  0.00  0.00    +0.000 A 
ATOM     29  C   UNL     1      -1.160  14.401  20.899  0.00  0.00    +0.000 A 
ATOM     30  C   UNL     1      -0.259  13.339  20.747  0.00  0.00    +0.000 A 
ATOM     31  C   UNL     1       0.687  13.398  19.715  0.00  0.00    +0.000 A 
ATOM     32  C   UNL     1       0.753  14.514  18.873  0.00  0.00    +0.000 A 
BRANCH  27  34
ATOM     33  C   UNL     1       1.083  17.368  18.095  0.00  0.00    +0.000 C 
ATOM     34  O   UNL     1      -0.166  16.714  18.287  0.00  0.00    +0.000 OA
ENDBRANCH  27  34
ENDBRANCH  26  30
ENDBRANCH  25  26
ENDBRANCH   1  25
TORSDOF 7
ENDMDL
