MODEL 1
REMARK VINA RESULT:      -7.9      0.000      0.000
REMARK  Name = 
REMARK  4 active torsions:
REMARK  status: ('A' for Active; 'I' for Inactive)
REMARK    1  A    between atoms: C_2  and  C_16
REMARK    2  A    between atoms: N_3  and  C_4
REMARK    3  A    between atoms: C_10  and  N_11
REMARK    4  A    between atoms: N_18  and  C_19
REMARK                            x       y       z     vdW  Elec       q    Type
REMARK                         _______ _______ _______ _____ _____    ______ ____
ROOT
ATOM      1  O   UNL     1       2.059   7.409  17.767  0.00  0.00    +0.000 OA
ATOM      2  C   UNL     1       2.332   7.377  18.959  0.00  0.00    +0.000 C 
ATOM      3  N   UNL     1       3.258   6.555  19.568  0.00  0.00    +0.000 N 
ATOM      4  H   UNL     1       3.644   6.876  20.452  0.00  0.00    +0.000 HD
ENDROOT
BRANCH   3   5
ATOM      5  C   UNL     1       4.066   5.689  18.800  0.00  0.00    +0.000 A 
ATOM      6  C   UNL     1       5.139   6.250  18.089  0.00  0.00    +0.000 A 
ATOM      7  C   UNL     1       5.880   5.464  17.223  0.00  0.00    +0.000 A 
ATOM      8 CL   UNL     1       7.138   6.168  16.284  0.00  0.00    +0.000 Cl
ATOM      9  C   UNL     1       5.584   4.116  17.088  0.00  0.00    +0.000 A 
ATOM     10  C   UNL     1       4.516   3.556  17.804  0.00  0.00    +0.000 A 
ATOM     11  C   UNL     1       3.719   4.323  18.675  0.00  0.00    +0.000 A 
BRANCH  11  12
ATOM     12  N   UNL     1       2.641   3.775  19.353  0.00  0.00    +0.000 N 
ATOM     13  C   UNL     1       1.521   3.149  18.657  0.00  0.00    +0.000 C 
ATOM     14  C   UNL     1       0.530   3.000  19.802  0.00  0.00    +0.000 C 
ATOM     15  C   UNL     1       1.412   2.524  20.951  0.00  0.00    +0.000 C 
ATOM     16  C   UNL     1       2.805   3.106  20.653  0.00  0.00    +0.000 C 
ENDBRANCH  11  12
ENDBRANCH   3   5
BRANCH   2  17
ATOM     17  C   UNL     1       1.654   8.387  19.877  0.00  0.00    +0.000 C 
ATOM     18  N   UNL     1       1.476   9.606  19.454  0.00  0.00    +0.000 NA
ATOM     19  N   UNL     1       0.888  10.531  20.317  0.00  0.00    +0.000 N 
ATOM     20  C   UNL     1       0.626  10.275  21.671  0.00  0.00    +0.000 C 
ATOM     21  O   UNL     1       0.052  11.034  22.454  0.00  0.00    +0.000 OA
ATOM     22  C   UNL     1       1.150   8.971  22.209  0.00  0.00    +0.000 C 
ATOM     23  C   UNL     1       1.170   7.870  21.189  0.00  0.00    +0.000 C 
BRANCH  19  24
ATOM     24  C   UNL     1       0.653  11.814  19.714  0.00  0.00    +0.000 A 
ATOM     25  C   UNL     1       1.492  12.918  19.953  0.00  0.00    +0.000 A 
ATOM     26  C   UNL     1       1.246  14.165  19.368  0.00  0.00    +0.000 A 
ATOM     27  C   UNL     1       0.144  14.341  18.540  0.00  0.00    +0.000 A 
ATOM     28  C   UNL     1      -0.698  13.265  18.278  0.00  0.00    +0.000 A 
ATOM     29  C   UNL     1      -0.438  12.011  18.850  0.00  0.00    +0.000 A 
ENDBRANCH  19  24
ENDBRANCH   2  17
TORSDOF 4
ENDMDL
MODEL 2
REMARK VINA RESULT:      -7.7      0.213      1.199
REMARK  Name = 
REMARK  4 active torsions:
REMARK  status: ('A' for Active; 'I' for Inactive)
REMARK    1  A    between atoms: C_2  and  C_16
REMARK    2  A    between atoms: N_3  and  C_4
REMARK    3  A    between atoms: C_10  and  N_11
REMARK    4  A    between atoms: N_18  and  C_19
REMARK                            x       y       z     vdW  Elec       q    Type
REMARK                         _______ _______ _______ _____ _____    ______ ____
ROOT
ATOM      1  O   UNL     1       2.115   7.390  17.801  0.00  0.00    +0.000 OA
ATOM      2  C   UNL     1       2.348   7.336  19.001  0.00  0.00    +0.000 C 
ATOM      3  N   UNL     1       3.247   6.495  19.624  0.00  0.00    +0.000 N 
ATOM      4  H   UNL     1       3.607   6.796  20.526  0.00  0.00    +0.000 HD
ENDROOT
BRANCH   3   5
ATOM      5  C   UNL     1       4.070   5.633  18.869  0.00  0.00    +0.000 A 
ATOM      6  C   UNL     1       5.139   6.203  18.158  0.00  0.00    +0.000 A 
ATOM      7  C   UNL     1       5.895   5.419  17.303  0.00  0.00    +0.000 A 
ATOM      8 CL   UNL     1       7.148   6.132  16.364  0.00  0.00    +0.000 Cl
ATOM      9  C   UNL     1       5.618   4.066  17.178  0.00  0.00    +0.000 A 
ATOM     10  C   UNL     1       4.554   3.497  17.894  0.00  0.00    +0.000 A 
ATOM     11  C   UNL     1       3.742   4.261  18.754  0.00  0.00    +0.000 A 
BRANCH  11  12
ATOM     12  N   UNL     1       2.669   3.704  19.431  0.00  0.00    +0.000 N 
ATOM     13  C   UNL     1       2.546   3.776  20.885  0.00  0.00    +0.000 C 
ATOM     14  C   UNL     1       1.406   2.794  21.115  0.00  0.00    +0.000 C 
ATOM     15  C   UNL     1       0.435   3.134  19.990  0.00  0.00    +0.000 C 
ATOM     16  C   UNL     1       1.315   3.688  18.856  0.00  0.00    +0.000 C 
ENDBRANCH  11  12
ENDBRANCH   3   5
BRANCH   2  17
ATOM     17  C   UNL     1       1.652   8.338  19.913  0.00  0.00    +0.000 C 
ATOM     18  N   UNL     1       1.458   9.554  19.487  0.00  0.00    +0.000 NA
ATOM     19  N   UNL     1       0.853  10.472  20.345  0.00  0.00    +0.000 N 
ATOM     20  C   UNL     1       0.588  10.214  21.698  0.00  0.00    +0.000 C 
ATOM     21  O   UNL     1      -0.001  10.966  22.477  0.00  0.00    +0.000 OA
ATOM     22  C   UNL     1       1.128   8.919  22.241  0.00  0.00    +0.000 C 
ATOM     23  C   UNL     1       1.169   7.817  21.224  0.00  0.00    +0.000 C 
BRANCH  19  24
ATOM     24  C   UNL     1       0.601  11.750  19.738  0.00  0.00    +0.000 A 
ATOM     25  C   UNL     1      -0.482  11.964  18.866  0.00  0.00    +0.000 A 
ATOM     26  C   UNL     1      -0.710  13.211  18.274  0.00  0.00    +0.000 A 
ATOM     27  C   UNL     1       0.151  14.272  18.530  0.00  0.00    +0.000 A 
ATOM     28  C   UNL     1       1.225  14.091  19.395  0.00  0.00    +0.000 A 
ATOM     29  C   UNL     1       1.441  12.846  20.002  0.00  0.00    +0.000 A 
ENDBRANCH  19  24
ENDBRANCH   2  17
TORSDOF 4
ENDMDL
MODEL 3
REMARK VINA RESULT:      -7.6      2.770      8.254
REMARK  Name = 
REMARK  4 active torsions:
REMARK  status: ('A' for Active; 'I' for Inactive)
REMARK    1  A    between atoms: C_2  and  C_16
REMARK    2  A    between atoms: N_3  and  C_4
REMARK    3  A    between atoms: C_10  and  N_11
REMARK    4  A    between atoms: N_18  and  C_19
REMARK                            x       y       z     vdW  Elec       q    Type
REMARK                         _______ _______ _______ _____ _____    ______ ____
ROOT
ATOM      1  O   UNL     1       0.982   9.602  20.383  0.00  0.00    +0.000 OA
ATOM      2  C   UNL     1       1.375   9.562  19.225  0.00  0.00    +0.000 C 
ATOM      3  N   UNL     1       1.348  10.597  18.313  0.00  0.00    +0.000 N 
ATOM      4  H   UNL     1       2.017  10.552  17.549  0.00  0.00    +0.000 HD
ENDROOT
BRANCH   3   5
ATOM      5  C   UNL     1       0.908  11.882  18.696  0.00  0.00    +0.000 A 
ATOM      6  C   UNL     1       1.840  12.742  19.300  0.00  0.00    +0.000 A 
ATOM      7  C   UNL     1       1.427  13.962  19.808  0.00  0.00    +0.000 A 
ATOM      8 CL   UNL     1       2.548  14.979  20.625  0.00  0.00    +0.000 Cl
ATOM      9  C   UNL     1       0.100  14.347  19.687  0.00  0.00    +0.000 A 
ATOM     10  C   UNL     1      -0.828  13.490  19.078  0.00  0.00    +0.000 A 
ATOM     11  C   UNL     1      -0.458  12.229  18.572  0.00  0.00    +0.000 A 
BRANCH  11  12
ATOM     12  N   UNL     1      -1.385  11.369  18.004  0.00  0.00    +0.000 N 
ATOM     13  C   UNL     1      -2.273  10.539  18.813  0.00  0.00    +0.000 C 
ATOM     14  C   UNL     1      -2.838   9.614  17.745  0.00  0.00    +0.000 C 
ATOM     15  C   UNL     1      -3.106  10.564  16.583  0.00  0.00    +0.000 C 
ATOM     16  C   UNL     1      -2.080  11.700  16.750  0.00  0.00    +0.000 C 
ENDBRANCH  11  12
ENDBRANCH   3   5
BRANCH   2  17
ATOM     17  C   UNL     1       2.035   8.279  18.735  0.00  0.00    +0.000 C 
ATOM     18  N   UNL     1       1.827   7.171  19.388  0.00  0.00    +0.000 NA
ATOM     19  N   UNL     1       2.466   6.011  18.952  0.00  0.00    +0.000 N 
ATOM     20  C   UNL     1       3.451   5.994  17.953  0.00  0.00    +0.000 C 
ATOM     21  O   UNL     1       3.997   4.990  17.491  0.00  0.00    +0.000 OA
ATOM     22  C   UNL     1       3.906   7.338  17.453  0.00  0.00    +0.000 C 
ATOM     23  C   UNL     1       2.827   8.380  17.476  0.00  0.00    +0.000 C 
BRANCH  19  24
ATOM     24  C   UNL     1       2.089   4.833  19.685  0.00  0.00    +0.000 A 
ATOM     25  C   UNL     1       2.486   4.623  21.019  0.00  0.00    +0.000 A 
ATOM     26  C   UNL     1       2.120   3.468  21.718  0.00  0.00    +0.000 A 
ATOM     27  C   UNL     1       1.360   2.486  21.093  0.00  0.00    +0.000 A 
ATOM     28  C   UNL     1       0.946   2.672  19.778  0.00  0.00    +0.000 A 
ATOM     29  C   UNL     1       1.297   3.839  19.085  0.00  0.00    +0.000 A 
ENDBRANCH  19  24
ENDBRANCH   2  17
TORSDOF 4
ENDMDL
MODEL 4
REMARK VINA RESULT:      -7.6      3.332      8.986
REMARK  Name = 
REMARK  4 active torsions:
REMARK  status: ('A' for Active; 'I' for Inactive)
REMARK    1  A    between atoms: C_2  and  C_16
REMARK    2  A    between atoms: N_3  and  C_4
REMARK    3  A    between atoms: C_10  and  N_11
REMARK    4  A    between atoms: N_18  and  C_19
REMARK                            x       y       z     vdW  Elec       q    Type
REMARK                         _______ _______ _______ _____ _____    ______ ____
ROOT
ATOM      1  O   UNL     1       1.552   9.675  22.151  0.00  0.00    +0.000 OA
ATOM      2  C   UNL     1       0.989   9.596  21.068  0.00  0.00    +0.000 C 
ATOM      3  N   UNL     1      -0.005  10.429  20.597  0.00  0.00    +0.000 N 
ATOM      4  H   UNL     1      -0.113  10.488  19.588  0.00  0.00    +0.000 HD
ENDROOT
BRANCH   3   5
ATOM      5  C   UNL     1      -0.419  11.551  21.346  0.00  0.00    +0.000 A 
ATOM      6  C   UNL     1      -1.471  11.378  22.259  0.00  0.00    +0.000 A 
ATOM      7  C   UNL     1      -1.997  12.474  22.923  0.00  0.00    +0.000 A 
ATOM      8 CL   UNL     1      -3.344  12.278  23.975  0.00  0.00    +0.000 Cl
ATOM      9  C   UNL     1      -1.460  13.734  22.711  0.00  0.00    +0.000 A 
ATOM     10  C   UNL     1      -0.404  13.904  21.803  0.00  0.00    +0.000 A 
ATOM     11  C   UNL     1       0.144  12.823  21.086  0.00  0.00    +0.000 A 
BRANCH  11  12
ATOM     12  N   UNL     1       1.163  13.000  20.163  0.00  0.00    +0.000 N 
ATOM     13  C   UNL     1       0.898  13.176  18.738  0.00  0.00    +0.000 C 
ATOM     14  C   UNL     1       2.303  13.027  18.173  0.00  0.00    +0.000 C 
ATOM     15  C   UNL     1       3.150  13.822  19.161  0.00  0.00    +0.000 C 
ATOM     16  C   UNL     1       2.390  13.739  20.497  0.00  0.00    +0.000 C 
ENDBRANCH  11  12
ENDBRANCH   3   5
BRANCH   2  17
ATOM     17  C   UNL     1       1.466   8.531  20.089  0.00  0.00    +0.000 C 
ATOM     18  N   UNL     1       1.491   7.286  20.471  0.00  0.00    +0.000 NA
ATOM     19  N   UNL     1       1.965   6.324  19.578  0.00  0.00    +0.000 N 
ATOM     20  C   UNL     1       2.571   6.633  18.351  0.00  0.00    +0.000 C 
ATOM     21  O   UNL     1       2.945   5.821  17.504  0.00  0.00    +0.000 OA
ATOM     22  C   UNL     1       2.826   8.093  18.091  0.00  0.00    +0.000 C 
ATOM     23  C   UNL     1       1.804   8.998  18.714  0.00  0.00    +0.000 C 
BRANCH  19  24
ATOM     24  C   UNL     1       1.857   4.978  20.069  0.00  0.00    +0.000 A 
ATOM     25  C   UNL     1       1.193   3.969  19.346  0.00  0.00    +0.000 A 
ATOM     26  C   UNL     1       1.087   2.664  19.839  0.00  0.00    +0.000 A 
ATOM     27  C   UNL     1       1.630   2.340  21.077  0.00  0.00    +0.000 A 
ATOM     28  C   UNL     1       2.299   3.316  21.810  0.00  0.00    +0.000 A 
ATOM     29  C   UNL     1       2.422   4.618  21.305  0.00  0.00    +0.000 A 
ENDBRANCH  19  24
ENDBRANCH   2  17
TORSDOF 4
ENDMDL
MODEL 5
REMARK VINA RESULT:      -7.5      2.554      4.229
REMARK  Name = 
REMARK  4 active torsions:
REMARK  status: ('A' for Active; 'I' for Inactive)
REMARK    1  A    between atoms: C_2  and  C_16
REMARK    2  A    between atoms: N_3  and  C_4
REMARK    3  A    between atoms: C_10  and  N_11
REMARK    4  A    between atoms: N_18  and  C_19
REMARK                            x       y       z     vdW  Elec       q    Type
REMARK                         _______ _______ _______ _____ _____    ______ ____
ROOT
ATOM      1  O   UNL     1       2.133   6.401  20.389  0.00  0.00    +0.000 OA
ATOM      2  C   UNL     1       2.255   6.948  19.302  0.00  0.00    +0.000 C 
ATOM      3  N   UNL     1       2.614   6.344  18.115  0.00  0.00    +0.000 N 
ATOM      4  H   UNL     1       2.322   6.806  17.258  0.00  0.00    +0.000 HD
ENDROOT
BRANCH   3   5
ATOM      5  C   UNL     1       2.807   4.947  18.047  0.00  0.00    +0.000 A 
ATOM      6  C   UNL     1       1.687   4.121  18.228  0.00  0.00    +0.000 A 
ATOM      7  C   UNL     1       1.846   2.746  18.298  0.00  0.00    +0.000 A 
ATOM      8 CL   UNL     1       0.488   1.737  18.608  0.00  0.00    +0.000 Cl
ATOM      9  C   UNL     1       3.107   2.189  18.153  0.00  0.00    +0.000 A 
ATOM     10  C   UNL     1       4.225   3.016  17.965  0.00  0.00    +0.000 A 
ATOM     11  C   UNL     1       4.114   4.419  17.915  0.00  0.00    +0.000 A 
BRANCH  11  12
ATOM     12  N   UNL     1       5.224   5.235  17.767  0.00  0.00    +0.000 N 
ATOM     13  C   UNL     1       6.371   5.159  18.667  0.00  0.00    +0.000 C 
ATOM     14  C   UNL     1       7.127   6.414  18.260  0.00  0.00    +0.000 C 
ATOM     15  C   UNL     1       7.020   6.395  16.739  0.00  0.00    +0.000 C 
ATOM     16  C   UNL     1       5.707   5.649  16.440  0.00  0.00    +0.000 C 
ENDBRANCH  11  12
ENDBRANCH   3   5
BRANCH   2  17
ATOM     17  C   UNL     1       1.904   8.427  19.200  0.00  0.00    +0.000 C 
ATOM     18  N   UNL     1       1.043   8.933  20.037  0.00  0.00    +0.000 NA
ATOM     19  N   UNL     1       0.703  10.279  19.911  0.00  0.00    +0.000 N 
ATOM     20  C   UNL     1       1.104  11.085  18.836  0.00  0.00    +0.000 C 
ATOM     21  O   UNL     1       0.883  12.292  18.713  0.00  0.00    +0.000 OA
ATOM     22  C   UNL     1       1.822  10.382  17.716  0.00  0.00    +0.000 C 
ATOM     23  C   UNL     1       2.646   9.215  18.175  0.00  0.00    +0.000 C 
BRANCH  19  24
ATOM     24  C   UNL     1      -0.178  10.751  20.944  0.00  0.00    +0.000 A 
ATOM     25  C   UNL     1      -1.065  11.824  20.738  0.00  0.00    +0.000 A 
ATOM     26  C   UNL     1      -1.911  12.281  21.754  0.00  0.00    +0.000 A 
ATOM     27  C   UNL     1      -1.879  11.683  23.009  0.00  0.00    +0.000 A 
ATOM     28  C   UNL     1      -1.018  10.614  23.238  0.00  0.00    +0.000 A 
ATOM     29  C   UNL     1      -0.185  10.146  22.212  0.00  0.00    +0.000 A 
ENDBRANCH  19  24
ENDBRANCH   2  17
TORSDOF 4
ENDMDL
MODEL 6
REMARK VINA RESULT:      -7.4      3.444      8.413
REMARK  Name = 
REMARK  4 active torsions:
REMARK  status: ('A' for Active; 'I' for Inactive)
REMARK    1  A    between atoms: C_2  and  C_16
REMARK    2  A    between atoms: N_3  and  C_4
REMARK    3  A    between atoms: C_10  and  N_11
REMARK    4  A    between atoms: N_18  and  C_19
REMARK                            x       y       z     vdW  Elec       q    Type
REMARK                         _______ _______ _______ _____ _____    ______ ____
ROOT
ATOM      1  O   UNL     1       1.723  10.936  19.215  0.00  0.00    +0.000 OA
ATOM      2  C   UNL     1       1.117   9.877  19.309  0.00  0.00    +0.000 C 
ATOM      3  N   UNL     1      -0.166   9.706  19.787  0.00  0.00    +0.000 N 
ATOM      4  H   UNL     1      -0.665   8.879  19.473  0.00  0.00    +0.000 HD
ENDROOT
BRANCH   3   5
ATOM      5  C   UNL     1      -0.951  10.819  20.156  0.00  0.00    +0.000 A 
ATOM      6  C   UNL     1      -0.763  11.359  21.438  0.00  0.00    +0.000 A 
ATOM      7  C   UNL     1      -1.597  12.368  21.893  0.00  0.00    +0.000 A 
ATOM      8 CL   UNL     1      -1.426  12.969  23.495  0.00  0.00    +0.000 Cl
ATOM      9  C   UNL     1      -2.592  12.867  21.066  0.00  0.00    +0.000 A 
ATOM     10  C   UNL     1      -2.774  12.331  19.782  0.00  0.00    +0.000 A 
ATOM     11  C   UNL     1      -1.968  11.287  19.289  0.00  0.00    +0.000 A 
BRANCH  11  12
ATOM     12  N   UNL     1      -2.174  10.734  18.035  0.00  0.00    +0.000 N 
ATOM     13  C   UNL     1      -3.154   9.678  17.802  0.00  0.00    +0.000 C 
ATOM     14  C   UNL     1      -2.772   9.250  16.393  0.00  0.00    +0.000 C 
ATOM     15  C   UNL     1      -2.520  10.581  15.693  0.00  0.00    +0.000 C 
ATOM     16  C   UNL     1      -2.065  11.539  16.808  0.00  0.00    +0.000 C 
ENDBRANCH  11  12
ENDBRANCH   3   5
BRANCH   2  17
ATOM     17  C   UNL     1       1.789   8.617  18.780  0.00  0.00    +0.000 C 
ATOM     18  N   UNL     1       1.638   7.498  19.431  0.00  0.00    +0.000 NA
ATOM     19  N   UNL     1       2.288   6.359  18.959  0.00  0.00    +0.000 N 
ATOM     20  C   UNL     1       3.230   6.375  17.919  0.00  0.00    +0.000 C 
ATOM     21  O   UNL     1       3.782   5.390  17.426  0.00  0.00    +0.000 OA
ATOM     22  C   UNL     1       3.629   7.735  17.413  0.00  0.00    +0.000 C 
ATOM     23  C   UNL     1       2.525   8.748  17.490  0.00  0.00    +0.000 C 
BRANCH  19  24
ATOM     24  C   UNL     1       1.973   5.166  19.696  0.00  0.00    +0.000 A 
ATOM     25  C   UNL     1       2.440   4.951  21.006  0.00  0.00    +0.000 A 
ATOM     26  C   UNL     1       2.134   3.781  21.710  0.00  0.00    +0.000 A 
ATOM     27  C   UNL     1       1.364   2.790  21.113  0.00  0.00    +0.000 A 
ATOM     28  C   UNL     1       0.881   2.980  19.822  0.00  0.00    +0.000 A 
ATOM     29  C   UNL     1       1.172   4.162  19.126  0.00  0.00    +0.000 A 
ENDBRANCH  19  24
ENDBRANCH   2  17
TORSDOF 4
ENDMDL
MODEL 7
REMARK VINA RESULT:      -7.3      1.935      2.493
REMARK  Name = 
REMARK  4 active torsions:
REMARK  status: ('A' for Active; 'I' for Inactive)
REMARK    1  A    between atoms: C_2  and  C_16
REMARK    2  A    between atoms: N_3  and  C_4
REMARK    3  A    between atoms: C_10  and  N_11
REMARK    4  A    between atoms: N_18  and  C_19
REMARK                            x       y       z     vdW  Elec       q    Type
REMARK                         _______ _______ _______ _____ _____    ______ ____
ROOT
ATOM      1  O   UNL     1       2.710   8.348  17.196  0.00  0.00    +0.000 OA
ATOM      2  C   UNL     1       2.267   8.034  18.291  0.00  0.00    +0.000 C 
ATOM      3  N   UNL     1       2.677   6.969  19.067  0.00  0.00    +0.000 N 
ATOM      4  H   UNL     1       2.507   7.038  20.067  0.00  0.00    +0.000 HD
ENDROOT
BRANCH   3   5
ATOM      5  C   UNL     1       3.758   6.157  18.662  0.00  0.00    +0.000 A 
ATOM      6  C   UNL     1       4.862   6.785  18.066  0.00  0.00    +0.000 A 
ATOM      7  C   UNL     1       5.889   6.021  17.537  0.00  0.00    +0.000 A 
ATOM      8 CL   UNL     1       7.201   6.784  16.727  0.00  0.00    +0.000 Cl
ATOM      9  C   UNL     1       5.841   4.638  17.630  0.00  0.00    +0.000 A 
ATOM     10  C   UNL     1       4.739   4.012  18.233  0.00  0.00    +0.000 A 
ATOM     11  C   UNL     1       3.660   4.748  18.759  0.00  0.00    +0.000 A 
BRANCH  11  12
ATOM     12  N   UNL     1       2.556   4.126  19.321  0.00  0.00    +0.000 N 
ATOM     13  C   UNL     1       1.697   3.228  18.556  0.00  0.00    +0.000 C 
ATOM     14  C   UNL     1       0.528   3.075  19.517  0.00  0.00    +0.000 C 
ATOM     15  C   UNL     1       1.219   2.923  20.868  0.00  0.00    +0.000 C 
ATOM     16  C   UNL     1       2.548   3.685  20.725  0.00  0.00    +0.000 C 
ENDBRANCH  11  12
ENDBRANCH   3   5
BRANCH   2  17
ATOM     17  C   UNL     1       1.212   8.933  18.924  0.00  0.00    +0.000 C 
ATOM     18  N   UNL     1       0.203   9.330  18.201  0.00  0.00    +0.000 NA
ATOM     19  N   UNL     1      -0.736  10.183  18.780  0.00  0.00    +0.000 N 
ATOM     20  C   UNL     1      -0.576  10.775  20.042  0.00  0.00    +0.000 C 
ATOM     21  O   UNL     1      -1.403  11.482  20.621  0.00  0.00    +0.000 OA
ATOM     22  C   UNL     1       0.756  10.558  20.708  0.00  0.00    +0.000 C 
ATOM     23  C   UNL     1       1.382   9.236  20.374  0.00  0.00    +0.000 C 
BRANCH  19  24
ATOM     24  C   UNL     1      -1.853  10.478  17.925  0.00  0.00    +0.000 A 
ATOM     25  C   UNL     1      -2.867  11.377  18.303  0.00  0.00    +0.000 A 
ATOM     26  C   UNL     1      -3.955  11.648  17.465  0.00  0.00    +0.000 A 
ATOM     27  C   UNL     1      -4.061  11.013  16.234  0.00  0.00    +0.000 A 
ATOM     28  C   UNL     1      -3.068  10.126  15.830  0.00  0.00    +0.000 A 
ATOM     29  C   UNL     1      -1.969   9.871  16.663  0.00  0.00    +0.000 A 
ENDBRANCH  19  24
ENDBRANCH   2  17
TORSDOF 4
ENDMDL
MODEL 8
REMARK VINA RESULT:      -7.3      3.195      8.720
REMARK  Name = 
REMARK  4 active torsions:
REMARK  status: ('A' for Active; 'I' for Inactive)
REMARK    1  A    between atoms: C_2  and  C_16
REMARK    2  A    between atoms: N_3  and  C_4
REMARK    3  A    between atoms: C_10  and  N_11
REMARK    4  A    between atoms: N_18  and  C_19
REMARK                            x       y       z     vdW  Elec       q    Type
REMARK                         _______ _______ _______ _____ _____    ______ ____
ROOT
ATOM      1  O   UNL     1      -0.145  10.051  18.760  0.00  0.00    +0.000 OA
ATOM      2  C   UNL     1       0.861   9.725  19.375  0.00  0.00    +0.000 C 
ATOM      3  N   UNL     1       1.333  10.299  20.538  0.00  0.00    +0.000 N 
ATOM      4  H   UNL     1       1.930   9.722  21.124  0.00  0.00    +0.000 HD
ENDROOT
BRANCH   3   5
ATOM      5  C   UNL     1       0.604  11.319  21.185  0.00  0.00    +0.000 A 
ATOM      6  C   UNL     1      -0.432  10.937  22.052  0.00  0.00    +0.000 A 
ATOM      7  C   UNL     1      -1.257  11.899  22.610  0.00  0.00    +0.000 A 
ATOM      8 CL   UNL     1      -2.581  11.427  23.602  0.00  0.00    +0.000 Cl
ATOM      9  C   UNL     1      -1.036  13.241  22.339  0.00  0.00    +0.000 A 
ATOM     10  C   UNL     1       0.004  13.622  21.477  0.00  0.00    +0.000 A 
ATOM     11  C   UNL     1       0.850  12.677  20.867  0.00  0.00    +0.000 A 
BRANCH  11  12
ATOM     12  N   UNL     1       1.853  13.054  19.987  0.00  0.00    +0.000 N 
ATOM     13  C   UNL     1       1.598  13.275  18.566  0.00  0.00    +0.000 C 
ATOM     14  C   UNL     1       3.022  13.365  18.040  0.00  0.00    +0.000 C 
ATOM     15  C   UNL     1       3.720  14.214  19.096  0.00  0.00    +0.000 C 
ATOM     16  C   UNL     1       2.951  13.941  20.401  0.00  0.00    +0.000 C 
ENDBRANCH  11  12
ENDBRANCH   3   5
BRANCH   2  17
ATOM     17  C   UNL     1       1.647   8.519  18.877  0.00  0.00    +0.000 C 
ATOM     18  N   UNL     1       1.523   7.382  19.500  0.00  0.00    +0.000 NA
ATOM     19  N   UNL     1       2.276   6.295  19.058  0.00  0.00    +0.000 N 
ATOM     20  C   UNL     1       3.284   6.390  18.087  0.00  0.00    +0.000 C 
ATOM     21  O   UNL     1       3.931   5.450  17.620  0.00  0.00    +0.000 OA
ATOM     22  C   UNL     1       3.629   7.781  17.628  0.00  0.00    +0.000 C 
ATOM     23  C   UNL     1       2.459   8.721  17.643  0.00  0.00    +0.000 C 
BRANCH  19  24
ATOM     24  C   UNL     1       1.988   5.071  19.755  0.00  0.00    +0.000 A 
ATOM     25  C   UNL     1       2.444   4.831  21.065  0.00  0.00    +0.000 A 
ATOM     26  C   UNL     1       2.165   3.632  21.729  0.00  0.00    +0.000 A 
ATOM     27  C   UNL     1       1.435   2.636  21.091  0.00  0.00    +0.000 A 
ATOM     28  C   UNL     1       0.964   2.849  19.800  0.00  0.00    +0.000 A 
ATOM     29  C   UNL     1       1.228   4.060  19.143  0.00  0.00    +0.000 A 
ENDBRANCH  19  24
ENDBRANCH   2  17
TORSDOF 4
ENDMDL
MODEL 9
REMARK VINA RESULT:      -7.2      2.589      4.151
REMARK  Name = 
REMARK  4 active torsions:
REMARK  status: ('A' for Active; 'I' for Inactive)
REMARK    1  A    between atoms: C_2  and  C_16
REMARK    2  A    between atoms: N_3  and  C_4
REMARK    3  A    between atoms: C_10  and  N_11
REMARK    4  A    between atoms: N_18  and  C_19
REMARK                            x       y       z     vdW  Elec       q    Type
REMARK                         _______ _______ _______ _____ _____    ______ ____
ROOT
ATOM      1  O   UNL     1       1.330   6.896  21.220  0.00  0.00    +0.000 OA
ATOM      2  C   UNL     1       1.862   7.325  20.206  0.00  0.00    +0.000 C 
ATOM      3  N   UNL     1       2.724   6.637  19.377  0.00  0.00    +0.000 N 
ATOM      4  H   UNL     1       2.790   6.959  18.415  0.00  0.00    +0.000 HD
ENDROOT
BRANCH   3   5
ATOM      5  C   UNL     1       3.014   5.276  19.611  0.00  0.00    +0.000 A 
ATOM      6  C   UNL     1       2.137   4.549  20.431  0.00  0.00    +0.000 A 
ATOM      7  C   UNL     1       2.446   3.249  20.793  0.00  0.00    +0.000 A 
ATOM      8 CL   UNL     1       1.418   2.387  21.869  0.00  0.00    +0.000 Cl
ATOM      9  C   UNL     1       3.605   2.655  20.315  0.00  0.00    +0.000 A 
ATOM     10  C   UNL     1       4.477   3.381  19.489  0.00  0.00    +0.000 A 
ATOM     11  C   UNL     1       4.216   4.713  19.118  0.00  0.00    +0.000 A 
BRANCH  11  12
ATOM     12  N   UNL     1       5.097   5.440  18.333  0.00  0.00    +0.000 N 
ATOM     13  C   UNL     1       6.511   5.576  18.673  0.00  0.00    +0.000 C 
ATOM     14  C   UNL     1       6.928   6.666  17.697  0.00  0.00    +0.000 C 
ATOM     15  C   UNL     1       6.223   6.254  16.409  0.00  0.00    +0.000 C 
ATOM     16  C   UNL     1       4.972   5.484  16.867  0.00  0.00    +0.000 C 
ENDBRANCH  11  12
ENDBRANCH   3   5
BRANCH   2  17
ATOM     17  C   UNL     1       1.495   8.730  19.744  0.00  0.00    +0.000 C 
ATOM     18  N   UNL     1       0.889   9.531  20.573  0.00  0.00    +0.000 NA
ATOM     19  N   UNL     1       0.525  10.801  20.127  0.00  0.00    +0.000 N 
ATOM     20  C   UNL     1       0.622  11.213  18.789  0.00  0.00    +0.000 C 
ATOM     21  O   UNL     1       0.374  12.341  18.359  0.00  0.00    +0.000 OA
ATOM     22  C   UNL     1       1.014  10.150  17.799  0.00  0.00    +0.000 C 
ATOM     23  C   UNL     1       1.934   9.112  18.371  0.00  0.00    +0.000 C 
BRANCH  19  24
ATOM     24  C   UNL     1      -0.048  11.631  21.151  0.00  0.00    +0.000 A 
ATOM     25  C   UNL     1       0.324  12.978  21.317  0.00  0.00    +0.000 A 
ATOM     26  C   UNL     1      -0.234  13.773  22.324  0.00  0.00    +0.000 A 
ATOM     27  C   UNL     1      -1.168  13.234  23.200  0.00  0.00    +0.000 A 
ATOM     28  C   UNL     1      -1.561  11.907  23.054  0.00  0.00    +0.000 A 
ATOM     29  C   UNL     1      -1.015  11.118  22.032  0.00  0.00    +0.000 A 
ENDBRANCH  19  24
ENDBRANCH   2  17
TORSDOF 4
ENDMDL
