MODEL 1
REMARK VINA RESULT:      -6.6      0.000      0.000
REMARK  Name = 
REMARK  10 active torsions:
REMARK  status: ('A' for Active; 'I' for Inactive)
REMARK    1  A    between atoms: C_1  and  C_2
REMARK    2  A    between atoms: C_2  and  S_3
REMARK    3  A    between atoms: S_3  and  C_6
REMARK    4  A    between atoms: C_6  and  C_7
REMARK    5  A    between atoms: C_6  and  C_8
REMARK    6  A    between atoms: C_6  and  C_10
REMARK    7  A    between atoms: N_12  and  C_13
REMARK    8  A    between atoms: C_16  and  C_17
REMARK    9  A    between atoms: C_17  and  O_19
REMARK   10  A    between atoms: O_19  and  C_20
REMARK                            x       y       z     vdW  Elec       q    Type
REMARK                         _______ _______ _______ _____ _____    ______ ____
ROOT
ATOM      1  C   UNL     1       3.141   5.316  18.265  0.00  0.00    +0.000 C 
ATOM      2  O   UNL     1       2.111   5.058  17.634  0.00  0.00    +0.000 OA
ATOM      3  N   UNL     1       3.361   6.519  18.928  0.00  0.00    +0.000 N 
ATOM      4  H   UNL     1       4.317   6.746  19.202  0.00  0.00    +0.000 HD
ENDROOT
BRANCH   3   5
ATOM      5  C   UNL     1       2.436   7.586  19.011  0.00  0.00    +0.000 A 
ATOM      6  C   UNL     1       2.129   8.411  17.926  0.00  0.00    +0.000 A 
ATOM      7  C   UNL     1       1.240   9.477  18.063  0.00  0.00    +0.000 A 
ATOM      8  C   UNL     1       0.622   9.733  19.289  0.00  0.00    +0.000 A 
ATOM      9  C   UNL     1       0.901   8.896  20.378  0.00  0.00    +0.000 A 
ATOM     10  C   UNL     1       1.798   7.823  20.236  0.00  0.00    +0.000 A 
BRANCH   8  11
ATOM     11  C   UNL     1      -0.315  10.886  19.357  0.00  0.00    +0.000 C 
ATOM     12  O   UNL     1      -0.467  11.570  20.361  0.00  0.00    +0.000 OA
BRANCH  11  13
ATOM     13  O   UNL     1      -0.946  11.071  18.172  0.00  0.00    +0.000 OA
ATOM     14  C   UNL     1      -2.276  10.548  18.152  0.00  0.00    +0.000 C 
ENDBRANCH  11  13
ENDBRANCH   8  11
ENDBRANCH   3   5
BRANCH   1  15
ATOM     15  C   UNL     1       4.236   4.248  18.373  0.00  0.00    +0.000 C 
ATOM     16  C   UNL     1       5.552   4.912  18.825  0.00  0.00    +0.000 C 
BRANCH  15  17
ATOM     17  S   UNL     1       3.671   3.084  19.635  0.00  0.00    +0.000 S 
ATOM     18  O   UNL     1       2.829   3.843  20.547  0.00  0.00    +0.000 OA
ATOM     19  O   UNL     1       4.817   2.358  20.148  0.00  0.00    +0.000 OA
BRANCH  17  21
ATOM     20  C   UNL     1       1.155   2.183  19.067  0.00  0.00    +0.000 C 
ATOM     21  C   UNL     1       2.620   1.886  18.810  0.00  0.00    +0.000 C 
ENDBRANCH  17  21
ENDBRANCH  15  17
BRANCH  15  22
ATOM     22  C   UNL     1       4.395   3.513  17.037  0.00  0.00    +0.000 C 
ATOM     23 CL   UNL     1       5.150   4.497  15.752  0.00  0.00    +0.000 Cl
ENDBRANCH  15  22
ENDBRANCH   1  15
TORSDOF 7
ENDMDL
MODEL 2
REMARK VINA RESULT:      -6.6      0.982      1.518
REMARK  Name = 
REMARK  10 active torsions:
REMARK  status: ('A' for Active; 'I' for Inactive)
REMARK    1  A    between atoms: C_1  and  C_2
REMARK    2  A    between atoms: C_2  and  S_3
REMARK    3  A    between atoms: S_3  and  C_6
REMARK    4  A    between atoms: C_6  and  C_7
REMARK    5  A    between atoms: C_6  and  C_8
REMARK    6  A    between atoms: C_6  and  C_10
REMARK    7  A    between atoms: N_12  and  C_13
REMARK    8  A    between atoms: C_16  and  C_17
REMARK    9  A    between atoms: C_17  and  O_19
REMARK   10  A    between atoms: O_19  and  C_20
REMARK                            x       y       z     vdW  Elec       q    Type
REMARK                         _______ _______ _______ _____ _____    ______ ____
ROOT
ATOM      1  C   UNL     1       3.075   5.166  18.367  0.00  0.00    +0.000 C 
ATOM      2  O   UNL     1       1.971   4.897  17.884  0.00  0.00    +0.000 OA
ATOM      3  N   UNL     1       3.397   6.402  18.918  0.00  0.00    +0.000 N 
ATOM      4  H   UNL     1       4.384   6.621  19.058  0.00  0.00    +0.000 HD
ENDROOT
BRANCH   3   5
ATOM      5  C   UNL     1       2.509   7.497  19.042  0.00  0.00    +0.000 A 
ATOM      6  C   UNL     1       1.827   7.790  20.226  0.00  0.00    +0.000 A 
ATOM      7  C   UNL     1       0.929   8.856  20.293  0.00  0.00    +0.000 A 
ATOM      8  C   UNL     1       0.706   9.666  19.178  0.00  0.00    +0.000 A 
ATOM      9  C   UNL     1       1.404   9.399  17.993  0.00  0.00    +0.000 A 
ATOM     10  C   UNL     1       2.307   8.324  17.929  0.00  0.00    +0.000 A 
BRANCH   8  11
ATOM     11  C   UNL     1      -0.263  10.784  19.327  0.00  0.00    +0.000 C 
ATOM     12  O   UNL     1       0.032  11.869  19.812  0.00  0.00    +0.000 OA
BRANCH  11  13
ATOM     13  O   UNL     1      -1.482  10.441  18.845  0.00  0.00    +0.000 OA
ATOM     14  C   UNL     1      -2.037  11.416  17.961  0.00  0.00    +0.000 C 
ENDBRANCH  11  13
ENDBRANCH   8  11
ENDBRANCH   3   5
BRANCH   1  15
ATOM     15  C   UNL     1       4.156   4.079  18.412  0.00  0.00    +0.000 C 
ATOM     16  C   UNL     1       5.467   4.686  18.948  0.00  0.00    +0.000 C 
BRANCH  15  17
ATOM     17  S   UNL     1       3.547   2.822  19.560  0.00  0.00    +0.000 S 
ATOM     18  O   UNL     1       4.720   2.256  20.209  0.00  0.00    +0.000 OA
ATOM     19  O   UNL     1       2.624   1.954  18.856  0.00  0.00    +0.000 OA
BRANCH  17  21
ATOM     20  C   UNL     1       1.193   3.121  20.916  0.00  0.00    +0.000 C 
ATOM     21  C   UNL     1       2.601   3.679  20.821  0.00  0.00    +0.000 C 
ENDBRANCH  17  21
ENDBRANCH  15  17
BRANCH  15  22
ATOM     22  C   UNL     1       4.338   3.453  17.025  0.00  0.00    +0.000 C 
ATOM     23 CL   UNL     1       5.108   4.541  15.834  0.00  0.00    +0.000 Cl
ENDBRANCH  15  22
ENDBRANCH   1  15
TORSDOF 7
ENDMDL
MODEL 3
REMARK VINA RESULT:      -6.5      0.989      1.126
REMARK  Name = 
REMARK  10 active torsions:
REMARK  status: ('A' for Active; 'I' for Inactive)
REMARK    1  A    between atoms: C_1  and  C_2
REMARK    2  A    between atoms: C_2  and  S_3
REMARK    3  A    between atoms: S_3  and  C_6
REMARK    4  A    between atoms: C_6  and  C_7
REMARK    5  A    between atoms: C_6  and  C_8
REMARK    6  A    between atoms: C_6  and  C_10
REMARK    7  A    between atoms: N_12  and  C_13
REMARK    8  A    between atoms: C_16  and  C_17
REMARK    9  A    between atoms: C_17  and  O_19
REMARK   10  A    between atoms: O_19  and  C_20
REMARK                            x       y       z     vdW  Elec       q    Type
REMARK                         _______ _______ _______ _____ _____    ______ ____
ROOT
ATOM      1  C   UNL     1       2.975   5.148  18.396  0.00  0.00    +0.000 C 
ATOM      2  O   UNL     1       1.849   4.852  17.985  0.00  0.00    +0.000 OA
ATOM      3  N   UNL     1       3.308   6.399  18.907  0.00  0.00    +0.000 N 
ATOM      4  H   UNL     1       4.297   6.637  18.984  0.00  0.00    +0.000 HD
ENDROOT
BRANCH   3   5
ATOM      5  C   UNL     1       2.409   7.480  19.068  0.00  0.00    +0.000 A 
ATOM      6  C   UNL     1       2.063   8.341  18.024  0.00  0.00    +0.000 A 
ATOM      7  C   UNL     1       1.203   9.419  18.236  0.00  0.00    +0.000 A 
ATOM      8  C   UNL     1       0.655   9.650  19.500  0.00  0.00    +0.000 A 
ATOM      9  C   UNL     1       0.974   8.778  20.549  0.00  0.00    +0.000 A 
ATOM     10  C   UNL     1       1.841   7.694  20.331  0.00  0.00    +0.000 A 
BRANCH   8  11
ATOM     11  C   UNL     1      -0.254  10.818  19.648  0.00  0.00    +0.000 C 
ATOM     12  O   UNL     1      -0.713  11.179  20.724  0.00  0.00    +0.000 OA
BRANCH  11  13
ATOM     13  O   UNL     1      -0.481  11.414  18.453  0.00  0.00    +0.000 OA
ATOM     14  C   UNL     1      -1.870  11.564  18.150  0.00  0.00    +0.000 C 
ENDBRANCH  11  13
ENDBRANCH   8  11
ENDBRANCH   3   5
BRANCH   1  15
ATOM     15  C   UNL     1       4.076   4.080  18.392  0.00  0.00    +0.000 C 
ATOM     16  C   UNL     1       5.401   4.713  18.862  0.00  0.00    +0.000 C 
BRANCH  15  17
ATOM     17  S   UNL     1       3.547   2.818  19.572  0.00  0.00    +0.000 S 
ATOM     18  O   UNL     1       4.758   2.290  20.181  0.00  0.00    +0.000 OA
ATOM     19  O   UNL     1       2.623   1.918  18.910  0.00  0.00    +0.000 OA
BRANCH  17  21
ATOM     20  C   UNL     1       1.313   2.950  21.140  0.00  0.00    +0.000 C 
ATOM     21  C   UNL     1       2.625   3.659  20.861  0.00  0.00    +0.000 C 
ENDBRANCH  17  21
ENDBRANCH  15  17
BRANCH  15  22
ATOM     22  C   UNL     1       4.203   3.453  16.999  0.00  0.00    +0.000 C 
ATOM     23 CL   UNL     1       5.177   4.419  15.854  0.00  0.00    +0.000 Cl
ENDBRANCH  15  22
ENDBRANCH   1  15
TORSDOF 7
ENDMDL
MODEL 4
REMARK VINA RESULT:      -6.5      0.165      1.040
REMARK  Name = 
REMARK  10 active torsions:
REMARK  status: ('A' for Active; 'I' for Inactive)
REMARK    1  A    between atoms: C_1  and  C_2
REMARK    2  A    between atoms: C_2  and  S_3
REMARK    3  A    between atoms: S_3  and  C_6
REMARK    4  A    between atoms: C_6  and  C_7
REMARK    5  A    between atoms: C_6  and  C_8
REMARK    6  A    between atoms: C_6  and  C_10
REMARK    7  A    between atoms: N_12  and  C_13
REMARK    8  A    between atoms: C_16  and  C_17
REMARK    9  A    between atoms: C_17  and  O_19
REMARK   10  A    between atoms: O_19  and  C_20
REMARK                            x       y       z     vdW  Elec       q    Type
REMARK                         _______ _______ _______ _____ _____    ______ ____
ROOT
ATOM      1  C   UNL     1       3.037   5.363  18.297  0.00  0.00    +0.000 C 
ATOM      2  O   UNL     1       1.982   5.133  17.700  0.00  0.00    +0.000 OA
ATOM      3  N   UNL     1       3.297   6.547  18.980  0.00  0.00    +0.000 N 
ATOM      4  H   UNL     1       4.266   6.757  19.223  0.00  0.00    +0.000 HD
ENDROOT
BRANCH   3   5
ATOM      5  C   UNL     1       2.388   7.622  19.125  0.00  0.00    +0.000 A 
ATOM      6  C   UNL     1       1.729   7.901  20.325  0.00  0.00    +0.000 A 
ATOM      7  C   UNL     1       0.810   8.948  20.413  0.00  0.00    +0.000 A 
ATOM      8  C   UNL     1       0.542   9.751  19.303  0.00  0.00    +0.000 A 
ATOM      9  C   UNL     1       1.218   9.498  18.101  0.00  0.00    +0.000 A 
ATOM     10  C   UNL     1       2.142   8.442  18.016  0.00  0.00    +0.000 A 
BRANCH   8  11
ATOM     11  C   UNL     1      -0.447  10.848  19.474  0.00  0.00    +0.000 C 
ATOM     12  O   UNL     1      -0.729  11.335  20.561  0.00  0.00    +0.000 OA
BRANCH  11  13
ATOM     13  O   UNL     1      -0.964  11.229  18.281  0.00  0.00    +0.000 OA
ATOM     14  C   UNL     1      -2.293  10.751  18.061  0.00  0.00    +0.000 C 
ENDBRANCH  11  13
ENDBRANCH   8  11
ENDBRANCH   3   5
BRANCH   1  15
ATOM     15  C   UNL     1       4.124   4.281  18.337  0.00  0.00    +0.000 C 
ATOM     16  C   UNL     1       5.471   4.926  18.718  0.00  0.00    +0.000 C 
BRANCH  15  17
ATOM     17  S   UNL     1       3.616   3.116  19.623  0.00  0.00    +0.000 S 
ATOM     18  O   UNL     1       2.820   3.876  20.575  0.00  0.00    +0.000 OA
ATOM     19  O   UNL     1       4.783   2.388  20.081  0.00  0.00    +0.000 OA
BRANCH  17  21
ATOM     20  C   UNL     1       1.071   2.246  19.139  0.00  0.00    +0.000 C 
ATOM     21  C   UNL     1       2.525   1.922  18.847  0.00  0.00    +0.000 C 
ENDBRANCH  17  21
ENDBRANCH  15  17
BRANCH  15  22
ATOM     22  C   UNL     1       4.197   3.551  16.991  0.00  0.00    +0.000 C 
ATOM     23 CL   UNL     1       5.335   4.289  15.828  0.00  0.00    +0.000 Cl
ENDBRANCH  15  22
ENDBRANCH   1  15
TORSDOF 7
ENDMDL
MODEL 5
REMARK VINA RESULT:      -6.5      2.020      2.961
REMARK  Name = 
REMARK  10 active torsions:
REMARK  status: ('A' for Active; 'I' for Inactive)
REMARK    1  A    between atoms: C_1  and  C_2
REMARK    2  A    between atoms: C_2  and  S_3
REMARK    3  A    between atoms: S_3  and  C_6
REMARK    4  A    between atoms: C_6  and  C_7
REMARK    5  A    between atoms: C_6  and  C_8
REMARK    6  A    between atoms: C_6  and  C_10
REMARK    7  A    between atoms: N_12  and  C_13
REMARK    8  A    between atoms: C_16  and  C_17
REMARK    9  A    between atoms: C_17  and  O_19
REMARK   10  A    between atoms: O_19  and  C_20
REMARK                            x       y       z     vdW  Elec       q    Type
REMARK                         _______ _______ _______ _____ _____    ______ ____
ROOT
ATOM      1  C   UNL     1       3.054   5.111  18.032  0.00  0.00    +0.000 C 
ATOM      2  O   UNL     1       1.913   4.862  17.630  0.00  0.00    +0.000 OA
ATOM      3  N   UNL     1       3.427   6.327  18.596  0.00  0.00    +0.000 N 
ATOM      4  H   UNL     1       4.423   6.537  18.664  0.00  0.00    +0.000 HD
ENDROOT
BRANCH   3   5
ATOM      5  C   UNL     1       2.559   7.420  18.827  0.00  0.00    +0.000 A 
ATOM      6  C   UNL     1       2.240   8.357  17.840  0.00  0.00    +0.000 A 
ATOM      7  C   UNL     1       1.410   9.443  18.123  0.00  0.00    +0.000 A 
ATOM      8  C   UNL     1       0.865   9.606  19.398  0.00  0.00    +0.000 A 
ATOM      9  C   UNL     1       1.156   8.658  20.388  0.00  0.00    +0.000 A 
ATOM     10  C   UNL     1       1.993   7.566  20.100  0.00  0.00    +0.000 A 
BRANCH   8  11
ATOM     11  C   UNL     1      -0.011  10.786  19.622  0.00  0.00    +0.000 C 
ATOM     12  O   UNL     1       0.073  11.509  20.606  0.00  0.00    +0.000 OA
BRANCH  11  13
ATOM     13  O   UNL     1      -0.883  10.948  18.597  0.00  0.00    +0.000 OA
ATOM     14  C   UNL     1      -1.128  12.319  18.273  0.00  0.00    +0.000 C 
ENDBRANCH  11  13
ENDBRANCH   8  11
ENDBRANCH   3   5
BRANCH   1  15
ATOM     15  C   UNL     1       4.128   4.019  17.954  0.00  0.00    +0.000 C 
ATOM     16  C   UNL     1       3.486   2.707  17.461  0.00  0.00    +0.000 C 
BRANCH  15  17
ATOM     17  S   UNL     1       5.340   4.601  16.746  0.00  0.00    +0.000 S 
ATOM     18  O   UNL     1       4.819   5.849  16.210  0.00  0.00    +0.000 OA
ATOM     19  O   UNL     1       5.663   3.510  15.846  0.00  0.00    +0.000 OA
BRANCH  17  21
ATOM     20  C   UNL     1       7.113   6.484  17.627  0.00  0.00    +0.000 C 
ATOM     21  C   UNL     1       6.838   4.992  17.652  0.00  0.00    +0.000 C 
ENDBRANCH  17  21
ENDBRANCH  15  17
BRANCH  15  22
ATOM     22  C   UNL     1       4.811   3.846  19.316  0.00  0.00    +0.000 C 
ATOM     23 CL   UNL     1       4.409   2.312  20.140  0.00  0.00    +0.000 Cl
ENDBRANCH  15  22
ENDBRANCH   1  15
TORSDOF 7
ENDMDL
MODEL 6
REMARK VINA RESULT:      -6.4      2.059      3.173
REMARK  Name = 
REMARK  10 active torsions:
REMARK  status: ('A' for Active; 'I' for Inactive)
REMARK    1  A    between atoms: C_1  and  C_2
REMARK    2  A    between atoms: C_2  and  S_3
REMARK    3  A    between atoms: S_3  and  C_6
REMARK    4  A    between atoms: C_6  and  C_7
REMARK    5  A    between atoms: C_6  and  C_8
REMARK    6  A    between atoms: C_6  and  C_10
REMARK    7  A    between atoms: N_12  and  C_13
REMARK    8  A    between atoms: C_16  and  C_17
REMARK    9  A    between atoms: C_17  and  O_19
REMARK   10  A    between atoms: O_19  and  C_20
REMARK                            x       y       z     vdW  Elec       q    Type
REMARK                         _______ _______ _______ _____ _____    ______ ____
ROOT
ATOM      1  C   UNL     1       3.061   5.530  18.067  0.00  0.00    +0.000 C 
ATOM      2  O   UNL     1       1.909   5.111  17.912  0.00  0.00    +0.000 OA
ATOM      3  N   UNL     1       3.365   6.827  18.466  0.00  0.00    +0.000 N 
ATOM      4  H   UNL     1       4.319   7.160  18.325  0.00  0.00    +0.000 HD
ENDROOT
BRANCH   3   5
ATOM      5  C   UNL     1       2.416   7.825  18.791  0.00  0.00    +0.000 A 
ATOM      6  C   UNL     1       1.880   7.974  20.073  0.00  0.00    +0.000 A 
ATOM      7  C   UNL     1       0.917   8.947  20.340  0.00  0.00    +0.000 A 
ATOM      8  C   UNL     1       0.477   9.806  19.330  0.00  0.00    +0.000 A 
ATOM      9  C   UNL     1       1.026   9.683  18.047  0.00  0.00    +0.000 A 
ATOM     10  C   UNL     1       1.997   8.702  17.782  0.00  0.00    +0.000 A 
BRANCH   8  11
ATOM     11  C   UNL     1      -0.551  10.818  19.692  0.00  0.00    +0.000 C 
ATOM     12  O   UNL     1      -0.944  10.997  20.837  0.00  0.00    +0.000 OA
BRANCH  11  13
ATOM     13  O   UNL     1      -0.965  11.504  18.599  0.00  0.00    +0.000 OA
ATOM     14  C   UNL     1      -2.362  11.362  18.337  0.00  0.00    +0.000 C 
ENDBRANCH  11  13
ENDBRANCH   8  11
ENDBRANCH   3   5
BRANCH   1  15
ATOM     15  C   UNL     1       4.239   4.571  17.852  0.00  0.00    +0.000 C 
ATOM     16  C   UNL     1       3.790   3.409  16.943  0.00  0.00    +0.000 C 
BRANCH  15  17
ATOM     17  S   UNL     1       5.521   5.539  17.023  0.00  0.00    +0.000 S 
ATOM     18  O   UNL     1       6.298   6.177  18.074  0.00  0.00    +0.000 OA
ATOM     19  O   UNL     1       4.901   6.349  15.993  0.00  0.00    +0.000 OA
BRANCH  17  21
ATOM     20  C   UNL     1       6.852   4.794  14.755  0.00  0.00    +0.000 C 
ATOM     21  C   UNL     1       6.602   4.373  16.191  0.00  0.00    +0.000 C 
ENDBRANCH  17  21
ENDBRANCH  15  17
BRANCH  15  22
ATOM     22  C   UNL     1       4.771   4.072  19.200  0.00  0.00    +0.000 C 
ATOM     23 CL   UNL     1       3.989   2.573  19.779  0.00  0.00    +0.000 Cl
ENDBRANCH  15  22
ENDBRANCH   1  15
TORSDOF 7
ENDMDL
MODEL 7
REMARK VINA RESULT:      -6.4      1.020      1.441
REMARK  Name = 
REMARK  10 active torsions:
REMARK  status: ('A' for Active; 'I' for Inactive)
REMARK    1  A    between atoms: C_1  and  C_2
REMARK    2  A    between atoms: C_2  and  S_3
REMARK    3  A    between atoms: S_3  and  C_6
REMARK    4  A    between atoms: C_6  and  C_7
REMARK    5  A    between atoms: C_6  and  C_8
REMARK    6  A    between atoms: C_6  and  C_10
REMARK    7  A    between atoms: N_12  and  C_13
REMARK    8  A    between atoms: C_16  and  C_17
REMARK    9  A    between atoms: C_17  and  O_19
REMARK   10  A    between atoms: O_19  and  C_20
REMARK                            x       y       z     vdW  Elec       q    Type
REMARK                         _______ _______ _______ _____ _____    ______ ____
ROOT
ATOM      1  C   UNL     1       2.987   5.424  18.555  0.00  0.00    +0.000 C 
ATOM      2  O   UNL     1       1.992   5.319  17.831  0.00  0.00    +0.000 OA
ATOM      3  N   UNL     1       3.178   6.462  19.461  0.00  0.00    +0.000 N 
ATOM      4  H   UNL     1       4.120   6.612  19.825  0.00  0.00    +0.000 HD
ENDROOT
BRANCH   3   5
ATOM      5  C   UNL     1       2.257   7.506  19.713  0.00  0.00    +0.000 A 
ATOM      6  C   UNL     1       2.018   8.542  18.806  0.00  0.00    +0.000 A 
ATOM      7  C   UNL     1       1.130   9.574  19.112  0.00  0.00    +0.000 A 
ATOM      8  C   UNL     1       0.444   9.582  20.329  0.00  0.00    +0.000 A 
ATOM      9  C   UNL     1       0.655   8.533  21.235  0.00  0.00    +0.000 A 
ATOM     10  C   UNL     1       1.551   7.497  20.923  0.00  0.00    +0.000 A 
BRANCH   8  11
ATOM     11  C   UNL     1      -0.487  10.713  20.583  0.00  0.00    +0.000 C 
ATOM     12  O   UNL     1      -1.408  11.006  19.831  0.00  0.00    +0.000 OA
BRANCH  11  13
ATOM     13  O   UNL     1      -0.185  11.343  21.743  0.00  0.00    +0.000 OA
ATOM     14  C   UNL     1      -1.230  11.270  22.716  0.00  0.00    +0.000 C 
ENDBRANCH  11  13
ENDBRANCH   8  11
ENDBRANCH   3   5
BRANCH   1  15
ATOM     15  C   UNL     1       4.069   4.338  18.499  0.00  0.00    +0.000 C 
ATOM     16  C   UNL     1       5.419   4.941  18.931  0.00  0.00    +0.000 C 
BRANCH  15  17
ATOM     17  S   UNL     1       3.558   3.068  19.680  0.00  0.00    +0.000 S 
ATOM     18  O   UNL     1       2.728   3.738  20.669  0.00  0.00    +0.000 OA
ATOM     19  O   UNL     1       4.729   2.327  20.105  0.00  0.00    +0.000 OA
BRANCH  17  21
ATOM     20  C   UNL     1       1.040   2.261  18.989  0.00  0.00    +0.000 C 
ATOM     21  C   UNL     1       2.505   1.919  18.791  0.00  0.00    +0.000 C 
ENDBRANCH  17  21
ENDBRANCH  15  17
BRANCH  15  22
ATOM     22  C   UNL     1       4.137   3.727  17.094  0.00  0.00    +0.000 C 
ATOM     23 CL   UNL     1       5.687   4.013  16.253  0.00  0.00    +0.000 Cl
ENDBRANCH  15  22
ENDBRANCH   1  15
TORSDOF 7
ENDMDL
MODEL 8
REMARK VINA RESULT:      -6.4      1.967      3.093
REMARK  Name = 
REMARK  10 active torsions:
REMARK  status: ('A' for Active; 'I' for Inactive)
REMARK    1  A    between atoms: C_1  and  C_2
REMARK    2  A    between atoms: C_2  and  S_3
REMARK    3  A    between atoms: S_3  and  C_6
REMARK    4  A    between atoms: C_6  and  C_7
REMARK    5  A    between atoms: C_6  and  C_8
REMARK    6  A    between atoms: C_6  and  C_10
REMARK    7  A    between atoms: N_12  and  C_13
REMARK    8  A    between atoms: C_16  and  C_17
REMARK    9  A    between atoms: C_17  and  O_19
REMARK   10  A    between atoms: O_19  and  C_20
REMARK                            x       y       z     vdW  Elec       q    Type
REMARK                         _______ _______ _______ _____ _____    ______ ____
ROOT
ATOM      1  C   UNL     1       2.979   5.131  18.086  0.00  0.00    +0.000 C 
ATOM      2  O   UNL     1       1.830   4.913  17.689  0.00  0.00    +0.000 OA
ATOM      3  N   UNL     1       3.385   6.335  18.653  0.00  0.00    +0.000 N 
ATOM      4  H   UNL     1       4.387   6.519  18.717  0.00  0.00    +0.000 HD
ENDROOT
BRANCH   3   5
ATOM      5  C   UNL     1       2.546   7.448  18.893  0.00  0.00    +0.000 A 
ATOM      6  C   UNL     1       1.923   7.678  20.123  0.00  0.00    +0.000 A 
ATOM      7  C   UNL     1       1.072   8.768  20.305  0.00  0.00    +0.000 A 
ATOM      8  C   UNL     1       0.836   9.665  19.261  0.00  0.00    +0.000 A 
ATOM      9  C   UNL     1       1.475   9.460  18.031  0.00  0.00    +0.000 A 
ATOM     10  C   UNL     1       2.332   8.361  17.852  0.00  0.00    +0.000 A 
BRANCH   8  11
ATOM     11  C   UNL     1      -0.082  10.803  19.531  0.00  0.00    +0.000 C 
ATOM     12  O   UNL     1      -0.192  11.332  20.630  0.00  0.00    +0.000 OA
BRANCH  11  13
ATOM     13  O   UNL     1      -0.749  11.168  18.409  0.00  0.00    +0.000 OA
ATOM     14  C   UNL     1      -1.999  10.494  18.249  0.00  0.00    +0.000 C 
ENDBRANCH  11  13
ENDBRANCH   8  11
ENDBRANCH   3   5
BRANCH   1  15
ATOM     15  C   UNL     1       4.024   4.012  17.998  0.00  0.00    +0.000 C 
ATOM     16  C   UNL     1       3.359   2.736  17.447  0.00  0.00    +0.000 C 
BRANCH  15  17
ATOM     17  S   UNL     1       5.281   4.599  16.839  0.00  0.00    +0.000 S 
ATOM     18  O   UNL     1       4.773   5.839  16.274  0.00  0.00    +0.000 OA
ATOM     19  O   UNL     1       5.652   3.507  15.960  0.00  0.00    +0.000 OA
BRANCH  17  21
ATOM     20  C   UNL     1       7.152   6.450  17.575  0.00  0.00    +0.000 C 
ATOM     21  C   UNL     1       6.736   5.009  17.806  0.00  0.00    +0.000 C 
ENDBRANCH  17  21
ENDBRANCH  15  17
BRANCH  15  22
ATOM     22  C   UNL     1       4.668   3.777  19.369  0.00  0.00    +0.000 C 
ATOM     23 CL   UNL     1       3.878   2.495  20.331  0.00  0.00    +0.000 Cl
ENDBRANCH  15  22
ENDBRANCH   1  15
TORSDOF 7
ENDMDL
MODEL 9
REMARK VINA RESULT:      -6.4      1.074      1.808
REMARK  Name = 
REMARK  10 active torsions:
REMARK  status: ('A' for Active; 'I' for Inactive)
REMARK    1  A    between atoms: C_1  and  C_2
REMARK    2  A    between atoms: C_2  and  S_3
REMARK    3  A    between atoms: S_3  and  C_6
REMARK    4  A    between atoms: C_6  and  C_7
REMARK    5  A    between atoms: C_6  and  C_8
REMARK    6  A    between atoms: C_6  and  C_10
REMARK    7  A    between atoms: N_12  and  C_13
REMARK    8  A    between atoms: C_16  and  C_17
REMARK    9  A    between atoms: C_17  and  O_19
REMARK   10  A    between atoms: O_19  and  C_20
REMARK                            x       y       z     vdW  Elec       q    Type
REMARK                         _______ _______ _______ _____ _____    ______ ____
ROOT
ATOM      1  C   UNL     1       3.075   5.132  18.350  0.00  0.00    +0.000 C 
ATOM      2  O   UNL     1       1.970   4.867  17.866  0.00  0.00    +0.000 OA
ATOM      3  N   UNL     1       3.399   6.365  18.908  0.00  0.00    +0.000 N 
ATOM      4  H   UNL     1       4.386   6.581  19.048  0.00  0.00    +0.000 HD
ENDROOT
BRANCH   3   5
ATOM      5  C   UNL     1       2.512   7.459  19.041  0.00  0.00    +0.000 A 
ATOM      6  C   UNL     1       1.846   7.755  20.233  0.00  0.00    +0.000 A 
ATOM      7  C   UNL     1       0.949   8.821  20.309  0.00  0.00    +0.000 A 
ATOM      8  C   UNL     1       0.711   9.628  19.195  0.00  0.00    +0.000 A 
ATOM      9  C   UNL     1       1.393   9.358  18.002  0.00  0.00    +0.000 A 
ATOM     10  C   UNL     1       2.295   8.283  17.928  0.00  0.00    +0.000 A 
BRANCH   8  11
ATOM     11  C   UNL     1      -0.257  10.746  19.354  0.00  0.00    +0.000 C 
ATOM     12  O   UNL     1      -1.207  10.925  18.602  0.00  0.00    +0.000 OA
BRANCH  11  13
ATOM     13  O   UNL     1       0.051  11.508  20.432  0.00  0.00    +0.000 OA
ATOM     14  C   UNL     1      -1.093  11.896  21.196  0.00  0.00    +0.000 C 
ENDBRANCH  11  13
ENDBRANCH   8  11
ENDBRANCH   3   5
BRANCH   1  15
ATOM     15  C   UNL     1       4.155   4.043  18.385  0.00  0.00    +0.000 C 
ATOM     16  C   UNL     1       5.479   4.656  18.881  0.00  0.00    +0.000 C 
BRANCH  15  17
ATOM     17  S   UNL     1       3.571   2.805  19.566  0.00  0.00    +0.000 S 
ATOM     18  O   UNL     1       4.758   2.250  20.199  0.00  0.00    +0.000 OA
ATOM     19  O   UNL     1       2.634   1.926  18.896  0.00  0.00    +0.000 OA
BRANCH  17  21
ATOM     20  C   UNL     1       1.240   3.138  20.953  0.00  0.00    +0.000 C 
ATOM     21  C   UNL     1       2.652   3.682  20.833  0.00  0.00    +0.000 C 
ENDBRANCH  17  21
ENDBRANCH  15  17
BRANCH  15  22
ATOM     22  C   UNL     1       4.303   3.397  17.003  0.00  0.00    +0.000 C 
ATOM     23 CL   UNL     1       5.678   4.027  16.052  0.00  0.00    +0.000 Cl
ENDBRANCH  15  22
ENDBRANCH   1  15
TORSDOF 7
ENDMDL
