MODEL 1
REMARK VINA RESULT:      -7.5      0.000      0.000
REMARK  Name = 
REMARK  6 active torsions:
REMARK  status: ('A' for Active; 'I' for Inactive)
REMARK    1  A    between atoms: O_1  and  C_2
REMARK    2  A    between atoms: C_2  and  C_3
REMARK    3  A    between atoms: C_5  and  C_6
REMARK    4  A    between atoms: C_14  and  O_15
REMARK    5  A    between atoms: O_15  and  C_16
REMARK    6  A    between atoms: C_19  and  C_20
REMARK                            x       y       z     vdW  Elec       q    Type
REMARK                         _______ _______ _______ _____ _____    ______ ____
ROOT
ATOM      1  C   UNL     1      -0.724  10.984  20.359  0.00  0.00    +0.000 C 
ATOM      2  O   UNL     1      -0.269  12.013  21.267  0.00  0.00    +0.000 OA
ATOM      3  C   UNL     1      -0.832  11.906  22.586  0.00  0.00    +0.000 C 
ATOM      4  C   UNL     1      -0.763  10.477  23.079  0.00  0.00    +0.000 C 
ATOM      5  C   UNL     1      -0.460   9.426  22.290  0.00  0.00    +0.000 C 
ATOM      6  C   UNL     1      -0.217   9.581  20.811  0.00  0.00    +0.000 C 
ENDROOT
BRANCH   3   7
ATOM      7  C   UNL     1      -2.197  12.586  22.691  0.00  0.00    +0.000 A 
ATOM      8  C   UNL     1      -3.196  12.136  23.574  0.00  0.00    +0.000 A 
ATOM      9  C   UNL     1      -4.392  12.842  23.736  0.00  0.00    +0.000 A 
ATOM     10  C   UNL     1      -4.611  14.021  23.029  0.00  0.00    +0.000 A 
ATOM     11  C   UNL     1      -3.636  14.487  22.151  0.00  0.00    +0.000 A 
ATOM     12  C   UNL     1      -2.444  13.777  21.982  0.00  0.00    +0.000 A 
ENDBRANCH   3   7
BRANCH   1  13
ATOM     13  C   UNL     1      -0.272  11.394  18.953  0.00  0.00    +0.000 C 
BRANCH  13  14
ATOM     14  O   UNL     1      -1.043  12.511  18.495  0.00  0.00    +0.000 OA
ATOM     15  H   UNL     1      -1.318  13.006  19.287  0.00  0.00    +0.000 HD
ENDBRANCH  13  14
ENDBRANCH   1  13
BRANCH   6  16
ATOM     16  O   UNL     1       1.192   9.374  20.636  0.00  0.00    +0.000 OA
BRANCH  16  17
ATOM     17  C   UNL     1       1.654   8.207  20.096  0.00  0.00    +0.000 A 
ATOM     18  C   UNL     1       1.728   6.975  20.735  0.00  0.00    +0.000 A 
ATOM     19  C   UNL     1       2.086   5.818  20.028  0.00  0.00    +0.000 A 
ATOM     20  C   UNL     1       2.376   5.862  18.659  0.00  0.00    +0.000 A 
ATOM     21  C   UNL     1       2.390   7.122  18.045  0.00  0.00    +0.000 A 
ATOM     22  C   UNL     1       2.034   8.278  18.754  0.00  0.00    +0.000 A 
BRANCH  20  23
ATOM     23  C   UNL     1       2.705   4.604  17.873  0.00  0.00    +0.000 C 
ATOM     24  C   UNL     1       4.048   3.942  18.215  0.00  0.00    +0.000 C 
ATOM     25  C   UNL     1       3.939   2.533  17.652  0.00  0.00    +0.000 C 
ATOM     26  C   UNL     1       2.463   2.169  17.724  0.00  0.00    +0.000 C 
ATOM     27  C   UNL     1       1.718   3.447  18.098  0.00  0.00    +0.000 C 
ENDBRANCH  20  23
ENDBRANCH  16  17
ENDBRANCH   6  16
TORSDOF 6
ENDMDL
MODEL 2
REMARK VINA RESULT:      -7.5      1.207      1.790
REMARK  Name = 
REMARK  6 active torsions:
REMARK  status: ('A' for Active; 'I' for Inactive)
REMARK    1  A    between atoms: O_1  and  C_2
REMARK    2  A    between atoms: C_2  and  C_3
REMARK    3  A    between atoms: C_5  and  C_6
REMARK    4  A    between atoms: C_14  and  O_15
REMARK    5  A    between atoms: O_15  and  C_16
REMARK    6  A    between atoms: C_19  and  C_20
REMARK                            x       y       z     vdW  Elec       q    Type
REMARK                         _______ _______ _______ _____ _____    ______ ____
ROOT
ATOM      1  C   UNL     1      -1.214  11.084  20.050  0.00  0.00    +0.000 C 
ATOM      2  O   UNL     1      -0.891  12.201  20.910  0.00  0.00    +0.000 OA
ATOM      3  C   UNL     1      -1.259  11.994  22.285  0.00  0.00    +0.000 C 
ATOM      4  C   UNL     1      -0.825  10.622  22.751  0.00  0.00    +0.000 C 
ATOM      5  C   UNL     1      -0.395   9.650  21.921  0.00  0.00    +0.000 C 
ATOM      6  C   UNL     1      -0.366   9.831  20.425  0.00  0.00    +0.000 C 
ENDROOT
BRANCH   3   7
ATOM      7  C   UNL     1      -2.718  12.364  22.556  0.00  0.00    +0.000 A 
ATOM      8  C   UNL     1      -3.287  12.283  23.840  0.00  0.00    +0.000 A 
ATOM      9  C   UNL     1      -4.588  12.735  24.086  0.00  0.00    +0.000 A 
ATOM     10  C   UNL     1      -5.342  13.291  23.057  0.00  0.00    +0.000 A 
ATOM     11  C   UNL     1      -4.800  13.382  21.778  0.00  0.00    +0.000 A 
ATOM     12  C   UNL     1      -3.503  12.923  21.530  0.00  0.00    +0.000 A 
ENDBRANCH   3   7
BRANCH   1  13
ATOM     13  C   UNL     1      -1.030  11.561  18.606  0.00  0.00    +0.000 C 
BRANCH  13  14
ATOM     14  O   UNL     1      -0.955  10.435  17.722  0.00  0.00    +0.000 OA
ATOM     15  H   UNL     1      -1.058  10.781  16.818  0.00  0.00    +0.000 HD
ENDBRANCH  13  14
ENDBRANCH   1  13
BRANCH   6  16
ATOM     16  O   UNL     1       1.024   9.933  20.084  0.00  0.00    +0.000 OA
BRANCH  16  17
ATOM     17  C   UNL     1       1.650   8.904  19.436  0.00  0.00    +0.000 A 
ATOM     18  C   UNL     1       2.137   8.925  18.135  0.00  0.00    +0.000 A 
ATOM     19  C   UNL     1       2.890   7.853  17.633  0.00  0.00    +0.000 A 
ATOM     20  C   UNL     1       3.180   6.734  18.421  0.00  0.00    +0.000 A 
ATOM     21  C   UNL     1       2.605   6.681  19.699  0.00  0.00    +0.000 A 
ATOM     22  C   UNL     1       1.851   7.751  20.199  0.00  0.00    +0.000 A 
BRANCH  20  23
ATOM     23  C   UNL     1       4.046   5.597  17.905  0.00  0.00    +0.000 C 
ATOM     24  C   UNL     1       3.295   4.309  17.533  0.00  0.00    +0.000 C 
ATOM     25  C   UNL     1       4.271   3.530  16.665  0.00  0.00    +0.000 C 
ATOM     26  C   UNL     1       5.120   4.574  15.953  0.00  0.00    +0.000 C 
ATOM     27  C   UNL     1       4.788   5.916  16.597  0.00  0.00    +0.000 C 
ENDBRANCH  20  23
ENDBRANCH  16  17
ENDBRANCH   6  16
TORSDOF 6
ENDMDL
MODEL 3
REMARK VINA RESULT:      -7.5      1.077      1.953
REMARK  Name = 
REMARK  6 active torsions:
REMARK  status: ('A' for Active; 'I' for Inactive)
REMARK    1  A    between atoms: O_1  and  C_2
REMARK    2  A    between atoms: C_2  and  C_3
REMARK    3  A    between atoms: C_5  and  C_6
REMARK    4  A    between atoms: C_14  and  O_15
REMARK    5  A    between atoms: O_15  and  C_16
REMARK    6  A    between atoms: C_19  and  C_20
REMARK                            x       y       z     vdW  Elec       q    Type
REMARK                         _______ _______ _______ _____ _____    ______ ____
ROOT
ATOM      1  C   UNL     1      -1.307  11.654  20.158  0.00  0.00    +0.000 C 
ATOM      2  O   UNL     1      -0.860  12.723  21.024  0.00  0.00    +0.000 OA
ATOM      3  C   UNL     1      -1.162  12.502  22.413  0.00  0.00    +0.000 C 
ATOM      4  C   UNL     1      -0.796  11.091  22.818  0.00  0.00    +0.000 C 
ATOM      5  C   UNL     1      -0.481  10.117  21.941  0.00  0.00    +0.000 C 
ATOM      6  C   UNL     1      -0.525  10.338  20.450  0.00  0.00    +0.000 C 
ENDROOT
BRANCH   3   7
ATOM      7  C   UNL     1      -2.575  12.959  22.778  0.00  0.00    +0.000 A 
ATOM      8  C   UNL     1      -3.261  13.942  22.042  0.00  0.00    +0.000 A 
ATOM      9  C   UNL     1      -4.593  14.261  22.324  0.00  0.00    +0.000 A 
ATOM     10  C   UNL     1      -5.273  13.594  23.339  0.00  0.00    +0.000 A 
ATOM     11  C   UNL     1      -4.615  12.616  24.080  0.00  0.00    +0.000 A 
ATOM     12  C   UNL     1      -3.281  12.303  23.804  0.00  0.00    +0.000 A 
ENDBRANCH   3   7
BRANCH   1  13
ATOM     13  C   UNL     1      -1.173  12.159  18.717  0.00  0.00    +0.000 C 
BRANCH  13  14
ATOM     14  O   UNL     1      -1.089  11.050  17.813  0.00  0.00    +0.000 OA
ATOM     15  H   UNL     1      -1.828  11.141  17.186  0.00  0.00    +0.000 HD
ENDBRANCH  13  14
ENDBRANCH   1  13
BRANCH   6  16
ATOM     16  O   UNL     1       0.847  10.357  20.031  0.00  0.00    +0.000 OA
BRANCH  16  17
ATOM     17  C   UNL     1       1.409   9.246  19.467  0.00  0.00    +0.000 A 
ATOM     18  C   UNL     1       1.868   9.127  18.162  0.00  0.00    +0.000 A 
ATOM     19  C   UNL     1       2.558   7.979  17.744  0.00  0.00    +0.000 A 
ATOM     20  C   UNL     1       2.811   6.921  18.625  0.00  0.00    +0.000 A 
ATOM     21  C   UNL     1       2.263   7.011  19.912  0.00  0.00    +0.000 A 
ATOM     22  C   UNL     1       1.572   8.157  20.327  0.00  0.00    +0.000 A 
BRANCH  20  23
ATOM     23  C   UNL     1       3.611   5.701  18.199  0.00  0.00    +0.000 C 
ATOM     24  C   UNL     1       2.781   4.491  17.745  0.00  0.00    +0.000 C 
ATOM     25  C   UNL     1       3.761   3.614  16.981  0.00  0.00    +0.000 C 
ATOM     26  C   UNL     1       4.778   4.566  16.366  0.00  0.00    +0.000 C 
ATOM     27  C   UNL     1       4.514   5.938  16.976  0.00  0.00    +0.000 C 
ENDBRANCH  20  23
ENDBRANCH  16  17
ENDBRANCH   6  16
TORSDOF 6
ENDMDL
MODEL 4
REMARK VINA RESULT:      -7.4      1.077      1.614
REMARK  Name = 
REMARK  6 active torsions:
REMARK  status: ('A' for Active; 'I' for Inactive)
REMARK    1  A    between atoms: O_1  and  C_2
REMARK    2  A    between atoms: C_2  and  C_3
REMARK    3  A    between atoms: C_5  and  C_6
REMARK    4  A    between atoms: C_14  and  O_15
REMARK    5  A    between atoms: O_15  and  C_16
REMARK    6  A    between atoms: C_19  and  C_20
REMARK                            x       y       z     vdW  Elec       q    Type
REMARK                         _______ _______ _______ _____ _____    ______ ____
ROOT
ATOM      1  C   UNL     1      -1.023  11.861  20.490  0.00  0.00    +0.000 C 
ATOM      2  O   UNL     1      -0.558  12.715  21.562  0.00  0.00    +0.000 OA
ATOM      3  C   UNL     1      -1.074  12.349  22.853  0.00  0.00    +0.000 C 
ATOM      4  C   UNL     1      -0.962  10.855  23.067  0.00  0.00    +0.000 C 
ATOM      5  C   UNL     1      -0.665   9.978  22.087  0.00  0.00    +0.000 C 
ATOM      6  C   UNL     1      -0.474  10.412  20.656  0.00  0.00    +0.000 C 
ENDROOT
BRANCH   3   7
ATOM      7  C   UNL     1      -2.448  12.963  23.123  0.00  0.00    +0.000 A 
ATOM      8  C   UNL     1      -3.466  12.262  23.796  0.00  0.00    +0.000 A 
ATOM      9  C   UNL     1      -4.673  12.883  24.133  0.00  0.00    +0.000 A 
ATOM     10  C   UNL     1      -4.883  14.222  23.819  0.00  0.00    +0.000 A 
ATOM     11  C   UNL     1      -3.890  14.936  23.154  0.00  0.00    +0.000 A 
ATOM     12  C   UNL     1      -2.687  14.314  22.809  0.00  0.00    +0.000 A 
ENDBRANCH   3   7
BRANCH   1  13
ATOM     13  C   UNL     1      -0.626  12.538  19.174  0.00  0.00    +0.000 C 
BRANCH  13  14
ATOM     14  O   UNL     1      -0.800  11.627  18.081  0.00  0.00    +0.000 OA
ATOM     15  H   UNL     1      -1.720  11.723  17.779  0.00  0.00    +0.000 HD
ENDBRANCH  13  14
ENDBRANCH   1  13
BRANCH   6  16
ATOM     16  O   UNL     1       0.931  10.277  20.405  0.00  0.00    +0.000 OA
BRANCH  16  17
ATOM     17  C   UNL     1       1.398   9.243  19.643  0.00  0.00    +0.000 A 
ATOM     18  C   UNL     1       1.669   9.279  18.281  0.00  0.00    +0.000 A 
ATOM     19  C   UNL     1       2.282   8.192  17.640  0.00  0.00    +0.000 A 
ATOM     20  C   UNL     1       2.645   7.040  18.348  0.00  0.00    +0.000 A 
ATOM     21  C   UNL     1       2.282   6.976  19.701  0.00  0.00    +0.000 A 
ATOM     22  C   UNL     1       1.667   8.062  20.339  0.00  0.00    +0.000 A 
BRANCH  20  23
ATOM     23  C   UNL     1       3.364   5.884  17.675  0.00  0.00    +0.000 C 
ATOM     24  C   UNL     1       4.865   6.095  17.423  0.00  0.00    +0.000 C 
ATOM     25  C   UNL     1       5.415   4.699  17.172  0.00  0.00    +0.000 C 
ATOM     26  C   UNL     1       4.540   3.755  17.985  0.00  0.00    +0.000 C 
ATOM     27  C   UNL     1       3.364   4.582  18.494  0.00  0.00    +0.000 C 
ENDBRANCH  20  23
ENDBRANCH  16  17
ENDBRANCH   6  16
TORSDOF 6
ENDMDL
MODEL 5
REMARK VINA RESULT:      -7.3      3.763     10.479
REMARK  Name = 
REMARK  6 active torsions:
REMARK  status: ('A' for Active; 'I' for Inactive)
REMARK    1  A    between atoms: O_1  and  C_2
REMARK    2  A    between atoms: C_2  and  C_3
REMARK    3  A    between atoms: C_5  and  C_6
REMARK    4  A    between atoms: C_14  and  O_15
REMARK    5  A    between atoms: O_15  and  C_16
REMARK    6  A    between atoms: C_19  and  C_20
REMARK                            x       y       z     vdW  Elec       q    Type
REMARK                         _______ _______ _______ _____ _____    ______ ____
ROOT
ATOM      1  C   UNL     1       4.102   4.742  16.585  0.00  0.00    +0.000 C 
ATOM      2  O   UNL     1       5.431   4.231  16.838  0.00  0.00    +0.000 OA
ATOM      3  C   UNL     1       6.474   5.016  16.234  0.00  0.00    +0.000 C 
ATOM      4  C   UNL     1       6.245   6.489  16.489  0.00  0.00    +0.000 C 
ATOM      5  C   UNL     1       5.096   6.996  16.982  0.00  0.00    +0.000 C 
ATOM      6  C   UNL     1       3.899   6.127  17.271  0.00  0.00    +0.000 C 
ENDROOT
BRANCH   3   7
ATOM      7  C   UNL     1       6.729   4.619  14.780  0.00  0.00    +0.000 A 
ATOM      8  C   UNL     1       5.978   3.623  14.129  0.00  0.00    +0.000 A 
ATOM      9  C   UNL     1       6.152   3.357  12.767  0.00  0.00    +0.000 A 
ATOM     10  C   UNL     1       7.070   4.091  12.022  0.00  0.00    +0.000 A 
ATOM     11  C   UNL     1       7.824   5.082  12.644  0.00  0.00    +0.000 A 
ATOM     12  C   UNL     1       7.657   5.342  14.007  0.00  0.00    +0.000 A 
ENDBRANCH   3   7
BRANCH   1  13
ATOM     13  C   UNL     1       3.112   3.664  17.039  0.00  0.00    +0.000 C 
BRANCH  13  14
ATOM     14  O   UNL     1       3.470   3.185  18.341  0.00  0.00    +0.000 OA
ATOM     15  H   UNL     1       2.689   2.725  18.696  0.00  0.00    +0.000 HD
ENDBRANCH  13  14
ENDBRANCH   1  13
BRANCH   6  16
ATOM     16  O   UNL     1       3.808   6.073  18.701  0.00  0.00    +0.000 OA
BRANCH  16  17
ATOM     17  C   UNL     1       2.763   6.672  19.347  0.00  0.00    +0.000 A 
ATOM     18  C   UNL     1       2.145   6.224  20.507  0.00  0.00    +0.000 A 
ATOM     19  C   UNL     1       1.176   7.005  21.155  0.00  0.00    +0.000 A 
ATOM     20  C   UNL     1       0.804   8.260  20.659  0.00  0.00    +0.000 A 
ATOM     21  C   UNL     1       1.364   8.662  19.439  0.00  0.00    +0.000 A 
ATOM     22  C   UNL     1       2.330   7.879  18.792  0.00  0.00    +0.000 A 
BRANCH  20  23
ATOM     23  C   UNL     1      -0.199   9.139  21.387  0.00  0.00    +0.000 C 
ATOM     24  C   UNL     1       0.042   9.311  22.894  0.00  0.00    +0.000 C 
ATOM     25  C   UNL     1      -0.780  10.530  23.282  0.00  0.00    +0.000 C 
ATOM     26  C   UNL     1      -0.813  11.420  22.047  0.00  0.00    +0.000 C 
ATOM     27  C   UNL     1      -0.220  10.599  20.905  0.00  0.00    +0.000 C 
ENDBRANCH  20  23
ENDBRANCH  16  17
ENDBRANCH   6  16
TORSDOF 6
ENDMDL
MODEL 6
REMARK VINA RESULT:      -7.3      3.166      9.265
REMARK  Name = 
REMARK  6 active torsions:
REMARK  status: ('A' for Active; 'I' for Inactive)
REMARK    1  A    between atoms: O_1  and  C_2
REMARK    2  A    between atoms: C_2  and  C_3
REMARK    3  A    between atoms: C_5  and  C_6
REMARK    4  A    between atoms: C_14  and  O_15
REMARK    5  A    between atoms: O_15  and  C_16
REMARK    6  A    between atoms: C_19  and  C_20
REMARK                            x       y       z     vdW  Elec       q    Type
REMARK                         _______ _______ _______ _____ _____    ______ ____
ROOT
ATOM      1  C   UNL     1       1.025   8.513  20.245  0.00  0.00    +0.000 C 
ATOM      2  O   UNL     1       2.271   7.793  20.394  0.00  0.00    +0.000 OA
ATOM      3  C   UNL     1       2.637   7.029  19.232  0.00  0.00    +0.000 C 
ATOM      4  C   UNL     1       2.469   7.857  17.977  0.00  0.00    +0.000 C 
ATOM      5  C   UNL     1       1.824   9.041  17.940  0.00  0.00    +0.000 C 
ATOM      6  C   UNL     1       1.152   9.622  19.158  0.00  0.00    +0.000 C 
ENDROOT
BRANCH   3   7
ATOM      7  C   UNL     1       1.980   5.648  19.217  0.00  0.00    +0.000 A 
ATOM      8  C   UNL     1       1.852   4.890  18.039  0.00  0.00    +0.000 A 
ATOM      9  C   UNL     1       1.353   3.583  18.068  0.00  0.00    +0.000 A 
ATOM     10  C   UNL     1       0.987   3.001  19.277  0.00  0.00    +0.000 A 
ATOM     11  C   UNL     1       1.106   3.731  20.457  0.00  0.00    +0.000 A 
ATOM     12  C   UNL     1       1.596   5.040  20.427  0.00  0.00    +0.000 A 
ENDBRANCH   3   7
BRANCH   1  13
ATOM     13  C   UNL     1       0.638   9.033  21.633  0.00  0.00    +0.000 C 
BRANCH  13  14
ATOM     14  O   UNL     1       1.815   9.282  22.411  0.00  0.00    +0.000 OA
ATOM     15  H   UNL     1       2.365   8.481  22.353  0.00  0.00    +0.000 HD
ENDBRANCH  13  14
ENDBRANCH   1  13
BRANCH   6  16
ATOM     16  O   UNL     1       1.967  10.739  19.542  0.00  0.00    +0.000 OA
BRANCH  16  17
ATOM     17  C   UNL     1       1.531  12.016  19.325  0.00  0.00    +0.000 A 
ATOM     18  C   UNL     1       0.381  12.594  19.849  0.00  0.00    +0.000 A 
ATOM     19  C   UNL     1       0.117  13.960  19.669  0.00  0.00    +0.000 A 
ATOM     20  C   UNL     1       1.001  14.785  18.963  0.00  0.00    +0.000 A 
ATOM     21  C   UNL     1       2.108  14.174  18.359  0.00  0.00    +0.000 A 
ATOM     22  C   UNL     1       2.369  12.809  18.538  0.00  0.00    +0.000 A 
BRANCH  20  23
ATOM     23  C   UNL     1       0.754  16.278  18.816  0.00  0.00    +0.000 C 
ATOM     24  C   UNL     1       1.752  17.029  17.924  0.00  0.00    +0.000 C 
ATOM     25  C   UNL     1       1.061  18.342  17.590  0.00  0.00    +0.000 C 
ATOM     26  C   UNL     1      -0.431  18.038  17.588  0.00  0.00    +0.000 C 
ATOM     27  C   UNL     1      -0.588  16.629  18.152  0.00  0.00    +0.000 C 
ENDBRANCH  20  23
ENDBRANCH  16  17
ENDBRANCH   6  16
TORSDOF 6
ENDMDL
MODEL 7
REMARK VINA RESULT:      -7.3      0.917      1.063
REMARK  Name = 
REMARK  6 active torsions:
REMARK  status: ('A' for Active; 'I' for Inactive)
REMARK    1  A    between atoms: O_1  and  C_2
REMARK    2  A    between atoms: C_2  and  C_3
REMARK    3  A    between atoms: C_5  and  C_6
REMARK    4  A    between atoms: C_14  and  O_15
REMARK    5  A    between atoms: O_15  and  C_16
REMARK    6  A    between atoms: C_19  and  C_20
REMARK                            x       y       z     vdW  Elec       q    Type
REMARK                         _______ _______ _______ _____ _____    ______ ____
ROOT
ATOM      1  C   UNL     1      -1.247  10.768  20.178  0.00  0.00    +0.000 C 
ATOM      2  O   UNL     1      -0.930  12.021  20.827  0.00  0.00    +0.000 OA
ATOM      3  C   UNL     1      -1.282  12.051  22.222  0.00  0.00    +0.000 C 
ATOM      4  C   UNL     1      -0.823  10.786  22.912  0.00  0.00    +0.000 C 
ATOM      5  C   UNL     1      -0.388   9.690  22.258  0.00  0.00    +0.000 C 
ATOM      6  C   UNL     1      -0.377   9.610  20.753  0.00  0.00    +0.000 C 
ENDROOT
BRANCH   3   7
ATOM      7  C   UNL     1      -2.743  12.444  22.443  0.00  0.00    +0.000 A 
ATOM      8  C   UNL     1      -3.340  12.432  23.717  0.00  0.00    +0.000 A 
ATOM      9  C   UNL     1      -4.641  12.905  23.912  0.00  0.00    +0.000 A 
ATOM     10  C   UNL     1      -5.370  13.414  22.841  0.00  0.00    +0.000 A 
ATOM     11  C   UNL     1      -4.800  13.436  21.571  0.00  0.00    +0.000 A 
ATOM     12  C   UNL     1      -3.502  12.956  21.374  0.00  0.00    +0.000 A 
ENDBRANCH   3   7
BRANCH   1  13
ATOM     13  C   UNL     1      -1.083  10.990  18.671  0.00  0.00    +0.000 C 
BRANCH  13  14
ATOM     14  O   UNL     1       0.094  11.765  18.413  0.00  0.00    +0.000 OA
ATOM     15  H   UNL     1       0.848  11.254  18.755  0.00  0.00    +0.000 HD
ENDBRANCH  13  14
ENDBRANCH   1  13
BRANCH   6  16
ATOM     16  O   UNL     1       1.008   9.667  20.382  0.00  0.00    +0.000 OA
BRANCH  16  17
ATOM     17  C   UNL     1       1.619   8.575  19.833  0.00  0.00    +0.000 A 
ATOM     18  C   UNL     1       1.835   7.352  20.454  0.00  0.00    +0.000 A 
ATOM     19  C   UNL     1       2.345   6.260  19.735  0.00  0.00    +0.000 A 
ATOM     20  C   UNL     1       2.647   6.363  18.372  0.00  0.00    +0.000 A 
ATOM     21  C   UNL     1       2.514   7.626  17.778  0.00  0.00    +0.000 A 
ATOM     22  C   UNL     1       2.007   8.716  18.498  0.00  0.00    +0.000 A 
BRANCH  20  23
ATOM     23  C   UNL     1       3.140   5.169  17.572  0.00  0.00    +0.000 C 
ATOM     24  C   UNL     1       4.491   5.359  16.865  0.00  0.00    +0.000 C 
ATOM     25  C   UNL     1       4.954   3.950  16.530  0.00  0.00    +0.000 C 
ATOM     26  C   UNL     1       4.378   3.053  17.618  0.00  0.00    +0.000 C 
ATOM     27  C   UNL     1       3.403   3.912  18.417  0.00  0.00    +0.000 C 
ENDBRANCH  20  23
ENDBRANCH  16  17
ENDBRANCH   6  16
TORSDOF 6
ENDMDL
MODEL 8
REMARK VINA RESULT:      -7.3      2.921      9.297
REMARK  Name = 
REMARK  6 active torsions:
REMARK  status: ('A' for Active; 'I' for Inactive)
REMARK    1  A    between atoms: O_1  and  C_2
REMARK    2  A    between atoms: C_2  and  C_3
REMARK    3  A    between atoms: C_5  and  C_6
REMARK    4  A    between atoms: C_14  and  O_15
REMARK    5  A    between atoms: O_15  and  C_16
REMARK    6  A    between atoms: C_19  and  C_20
REMARK                            x       y       z     vdW  Elec       q    Type
REMARK                         _______ _______ _______ _____ _____    ______ ____
ROOT
ATOM      1  C   UNL     1       0.862   8.424  20.263  0.00  0.00    +0.000 C 
ATOM      2  O   UNL     1       2.164   7.836  20.490  0.00  0.00    +0.000 OA
ATOM      3  C   UNL     1       2.656   7.079  19.369  0.00  0.00    +0.000 C 
ATOM      4  C   UNL     1       2.465   7.851  18.082  0.00  0.00    +0.000 C 
ATOM      5  C   UNL     1       1.710   8.964  17.979  0.00  0.00    +0.000 C 
ATOM      6  C   UNL     1       0.930   9.510  19.148  0.00  0.00    +0.000 C 
ENDROOT
BRANCH   3   7
ATOM      7  C   UNL     1       2.139   5.640  19.371  0.00  0.00    +0.000 A 
ATOM      8  C   UNL     1       1.658   5.016  20.536  0.00  0.00    +0.000 A 
ATOM      9  C   UNL     1       1.084   3.741  20.491  0.00  0.00    +0.000 A 
ATOM     10  C   UNL     1       0.965   3.069  19.279  0.00  0.00    +0.000 A 
ATOM     11  C   UNL     1       1.432   3.667  18.112  0.00  0.00    +0.000 A 
ATOM     12  C   UNL     1       2.014   4.938  18.157  0.00  0.00    +0.000 A 
ENDBRANCH   3   7
BRANCH   1  13
ATOM     13  C   UNL     1       0.363   8.942  21.616  0.00  0.00    +0.000 C 
BRANCH  13  14
ATOM     14  O   UNL     1       1.407   9.662  22.283  0.00  0.00    +0.000 OA
ATOM     15  H   UNL     1       1.853  10.202  21.607  0.00  0.00    +0.000 HD
ENDBRANCH  13  14
ENDBRANCH   1  13
BRANCH   6  16
ATOM     16  O   UNL     1       1.613  10.712  19.529  0.00  0.00    +0.000 OA
BRANCH  16  17
ATOM     17  C   UNL     1       1.111  11.932  19.173  0.00  0.00    +0.000 A 
ATOM     18  C   UNL     1      -0.162  12.187  18.678  0.00  0.00    +0.000 A 
ATOM     19  C   UNL     1      -0.609  13.502  18.485  0.00  0.00    +0.000 A 
ATOM     20  C   UNL     1       0.206  14.600  18.788  0.00  0.00    +0.000 A 
ATOM     21  C   UNL     1       1.520  14.331  19.197  0.00  0.00    +0.000 A 
ATOM     22  C   UNL     1       1.966  13.016  19.387  0.00  0.00    +0.000 A 
BRANCH  20  23
ATOM     23  C   UNL     1      -0.291  16.028  18.640  0.00  0.00    +0.000 C 
ATOM     24  C   UNL     1      -0.887  16.656  19.909  0.00  0.00    +0.000 C 
ATOM     25  C   UNL     1      -0.891  18.152  19.635  0.00  0.00    +0.000 C 
ATOM     26  C   UNL     1       0.291  18.409  18.710  0.00  0.00    +0.000 C 
ATOM     27  C   UNL     1       0.807  17.040  18.275  0.00  0.00    +0.000 C 
ENDBRANCH  20  23
ENDBRANCH  16  17
ENDBRANCH   6  16
TORSDOF 6
ENDMDL
MODEL 9
REMARK VINA RESULT:      -7.3      1.105      1.559
REMARK  Name = 
REMARK  6 active torsions:
REMARK  status: ('A' for Active; 'I' for Inactive)
REMARK    1  A    between atoms: O_1  and  C_2
REMARK    2  A    between atoms: C_2  and  C_3
REMARK    3  A    between atoms: C_5  and  C_6
REMARK    4  A    between atoms: C_14  and  O_15
REMARK    5  A    between atoms: O_15  and  C_16
REMARK    6  A    between atoms: C_19  and  C_20
REMARK                            x       y       z     vdW  Elec       q    Type
REMARK                         _______ _______ _______ _____ _____    ______ ____
ROOT
ATOM      1  C   UNL     1      -1.528  11.368  19.677  0.00  0.00    +0.000 C 
ATOM      2  O   UNL     1      -1.235  12.719  20.107  0.00  0.00    +0.000 OA
ATOM      3  C   UNL     1      -1.477  12.942  21.507  0.00  0.00    +0.000 C 
ATOM      4  C   UNL     1      -0.893  11.817  22.333  0.00  0.00    +0.000 C 
ATOM      5  C   UNL     1      -0.447  10.656  21.811  0.00  0.00    +0.000 C 
ATOM      6  C   UNL     1      -0.549  10.351  20.338  0.00  0.00    +0.000 C 
ENDROOT
BRANCH   3   7
ATOM      7  C   UNL     1      -2.937  13.296  21.794  0.00  0.00    +0.000 A 
ATOM      8  C   UNL     1      -3.737  13.991  20.869  0.00  0.00    +0.000 A 
ATOM      9  C   UNL     1      -5.099  14.203  21.104  0.00  0.00    +0.000 A 
ATOM     10  C   UNL     1      -5.695  13.711  22.261  0.00  0.00    +0.000 A 
ATOM     11  C   UNL     1      -4.923  13.019  23.191  0.00  0.00    +0.000 A 
ATOM     12  C   UNL     1      -3.560  12.814  22.961  0.00  0.00    +0.000 A 
ENDBRANCH   3   7
BRANCH   1  13
ATOM     13  C   UNL     1      -1.496  11.368  18.145  0.00  0.00    +0.000 C 
BRANCH  13  14
ATOM     14  O   UNL     1      -1.189  12.681  17.660  0.00  0.00    +0.000 OA
ATOM     15  H   UNL     1      -1.636  13.311  18.252  0.00  0.00    +0.000 HD
ENDBRANCH  13  14
ENDBRANCH   1  13
BRANCH   6  16
ATOM     16  O   UNL     1       0.796  10.416  19.845  0.00  0.00    +0.000 OA
BRANCH  16  17
ATOM     17  C   UNL     1       1.452   9.272  19.483  0.00  0.00    +0.000 A 
ATOM     18  C   UNL     1       1.654   8.151  20.278  0.00  0.00    +0.000 A 
ATOM     19  C   UNL     1       2.217   6.983  19.744  0.00  0.00    +0.000 A 
ATOM     20  C   UNL     1       2.589   6.904  18.396  0.00  0.00    +0.000 A 
ATOM     21  C   UNL     1       2.468   8.070  17.627  0.00  0.00    +0.000 A 
ATOM     22  C   UNL     1       1.908   9.237  18.163  0.00  0.00    +0.000 A 
BRANCH  20  23
ATOM     23  C   UNL     1       3.142   5.623  17.795  0.00  0.00    +0.000 C 
ATOM     24  C   UNL     1       4.280   4.959  18.584  0.00  0.00    +0.000 C 
ATOM     25  C   UNL     1       4.344   3.537  18.048  0.00  0.00    +0.000 C 
ATOM     26  C   UNL     1       2.923   3.187  17.627  0.00  0.00    +0.000 C 
ATOM     27  C   UNL     1       2.118   4.481  17.700  0.00  0.00    +0.000 C 
ENDBRANCH  20  23
ENDBRANCH  16  17
ENDBRANCH   6  16
TORSDOF 6
ENDMDL
