MODEL 1
REMARK VINA RESULT:      -8.2      0.000      0.000
REMARK  Name = 
REMARK  5 active torsions:
REMARK  status: ('A' for Active; 'I' for Inactive)
REMARK    1  A    between atoms: C_1  and  C_2
REMARK    2  A    between atoms: N_4  and  C_5
REMARK    3  A    between atoms: C_8  and  O_9
REMARK    4  A    between atoms: O_9  and  C_10
REMARK    5  A    between atoms: C_10  and  C_11
REMARK                            x       y       z     vdW  Elec       q    Type
REMARK                         _______ _______ _______ _____ _____    ______ ____
ROOT
ATOM      1  O   UNL     1       2.593   6.422  20.086  0.00  0.00    +0.000 OA
ENDROOT
BRANCH   1   2
ATOM      2  C   UNL     1       3.167   5.309  19.381  0.00  0.00    +0.000 C 
ATOM      3  C   UNL     1       2.606   4.122  20.208  0.00  0.00    +0.000 C 
ATOM      4  O   UNL     1       2.579   5.179  18.080  0.00  0.00    +0.000 OA
ATOM      5  C   UNL     1       3.045   4.088  17.433  0.00  0.00    +0.000 C 
ATOM      6  O   UNL     1       2.367   3.201  16.963  0.00  0.00    +0.000 OA
ATOM      7  C   UNL     1       4.486   4.229  17.252  0.00  0.00    +0.000 A 
ATOM      8  C   UNL     1       5.085   3.785  16.074  0.00  0.00    +0.000 A 
ATOM      9  C   UNL     1       6.409   4.134  15.820  0.00  0.00    +0.000 A 
ATOM     10  C   UNL     1       7.116   4.888  16.759  0.00  0.00    +0.000 A 
ATOM     11  C   UNL     1       6.523   5.252  17.979  0.00  0.00    +0.000 A 
ATOM     12  C   UNL     1       5.191   4.925  18.226  0.00  0.00    +0.000 A 
ATOM     13  O   UNL     1       4.612   5.314  19.406  0.00  0.00    +0.000 OA
ENDBRANCH   1   2
BRANCH   1  17
ATOM     14  C   UNL     1       0.943  10.055  18.857  0.00  0.00    +0.000 A 
ATOM     15  C   UNL     1       0.741   9.500  20.117  0.00  0.00    +0.000 A 
ATOM     16  C   UNL     1       1.326   8.278  20.452  0.00  0.00    +0.000 A 
ATOM     17  C   UNL     1       2.111   7.563  19.546  0.00  0.00    +0.000 A 
ATOM     18  C   UNL     1       2.324   8.104  18.286  0.00  0.00    +0.000 A 
ATOM     19  C   UNL     1       1.737   9.343  17.941  0.00  0.00    +0.000 A 
BRANCH  14  23
ATOM     20  C   UNL     1      -0.081  13.662  18.344  0.00  0.00    +0.000 C 
ATOM     21  C   UNL     1       0.804  12.555  18.850  0.00  0.00    +0.000 C 
ATOM     22  O   UNL     1       1.785  12.821  19.539  0.00  0.00    +0.000 OA
ATOM     23  N   UNL     1       0.380  11.286  18.458  0.00  0.00    +0.000 N 
ATOM     24  H   UNL     1      -0.396  11.246  17.809  0.00  0.00    +0.000 HD
ENDBRANCH  14  23
ENDBRANCH   1  17
TORSDOF 3
ENDMDL
MODEL 2
REMARK VINA RESULT:      -8.2      1.860      3.601
REMARK  Name = 
REMARK  5 active torsions:
REMARK  status: ('A' for Active; 'I' for Inactive)
REMARK    1  A    between atoms: C_1  and  C_2
REMARK    2  A    between atoms: N_4  and  C_5
REMARK    3  A    between atoms: C_8  and  O_9
REMARK    4  A    between atoms: O_9  and  C_10
REMARK    5  A    between atoms: C_10  and  C_11
REMARK                            x       y       z     vdW  Elec       q    Type
REMARK                         _______ _______ _______ _____ _____    ______ ____
ROOT
ATOM      1  O   UNL     1       3.290   7.235  17.872  0.00  0.00    +0.000 OA
ENDROOT
BRANCH   1   2
ATOM      2  C   UNL     1       3.440   5.836  18.165  0.00  0.00    +0.000 C 
ATOM      3  C   UNL     1       4.119   5.339  16.861  0.00  0.00    +0.000 C 
ATOM      4  O   UNL     1       4.411   5.640  19.200  0.00  0.00    +0.000 OA
ATOM      5  C   UNL     1       4.628   4.326  19.432  0.00  0.00    +0.000 C 
ATOM      6  O   UNL     1       5.705   3.770  19.403  0.00  0.00    +0.000 OA
ATOM      7  C   UNL     1       3.381   3.716  19.878  0.00  0.00    +0.000 A 
ATOM      8  C   UNL     1       3.402   2.732  20.866  0.00  0.00    +0.000 A 
ATOM      9  C   UNL     1       2.200   2.330  21.442  0.00  0.00    +0.000 A 
ATOM     10  C   UNL     1       1.000   2.892  20.998  0.00  0.00    +0.000 A 
ATOM     11  C   UNL     1       0.991   3.817  19.942  0.00  0.00    +0.000 A 
ATOM     12  C   UNL     1       2.195   4.239  19.380  0.00  0.00    +0.000 A 
ATOM     13  O   UNL     1       2.175   5.168  18.371  0.00  0.00    +0.000 OA
ENDBRANCH   1   2
BRANCH   1  17
ATOM     14  C   UNL     1       0.557   9.652  19.903  0.00  0.00    +0.000 A 
ATOM     15  C   UNL     1       1.246   8.596  20.494  0.00  0.00    +0.000 A 
ATOM     16  C   UNL     1       2.143   7.832  19.746  0.00  0.00    +0.000 A 
ATOM     17  C   UNL     1       2.370   8.079  18.391  0.00  0.00    +0.000 A 
ATOM     18  C   UNL     1       1.692   9.129  17.787  0.00  0.00    +0.000 A 
ATOM     19  C   UNL     1       0.785   9.909  18.541  0.00  0.00    +0.000 A 
BRANCH  14  23
ATOM     20  C   UNL     1      -1.248  12.164  22.082  0.00  0.00    +0.000 C 
ATOM     21  C   UNL     1      -0.058  11.593  21.359  0.00  0.00    +0.000 C 
ATOM     22  O   UNL     1       1.042  12.126  21.473  0.00  0.00    +0.000 OA
ATOM     23  N   UNL     1      -0.361  10.461  20.606  0.00  0.00    +0.000 N 
ATOM     24  H   UNL     1      -1.338  10.205  20.541  0.00  0.00    +0.000 HD
ENDBRANCH  14  23
ENDBRANCH   1  17
TORSDOF 3
ENDMDL
MODEL 3
REMARK VINA RESULT:      -8.1      1.800      3.624
REMARK  Name = 
REMARK  5 active torsions:
REMARK  status: ('A' for Active; 'I' for Inactive)
REMARK    1  A    between atoms: C_1  and  C_2
REMARK    2  A    between atoms: N_4  and  C_5
REMARK    3  A    between atoms: C_8  and  O_9
REMARK    4  A    between atoms: O_9  and  C_10
REMARK    5  A    between atoms: C_10  and  C_11
REMARK                            x       y       z     vdW  Elec       q    Type
REMARK                         _______ _______ _______ _____ _____    ______ ____
ROOT
ATOM      1  O   UNL     1       3.155   7.262  17.985  0.00  0.00    +0.000 OA
ENDROOT
BRANCH   1   2
ATOM      2  C   UNL     1       3.350   5.862  18.249  0.00  0.00    +0.000 C 
ATOM      3  C   UNL     1       4.015   5.408  16.923  0.00  0.00    +0.000 C 
ATOM      4  O   UNL     1       4.348   5.675  19.260  0.00  0.00    +0.000 OA
ATOM      5  C   UNL     1       4.606   4.364  19.463  0.00  0.00    +0.000 C 
ATOM      6  O   UNL     1       5.697   3.839  19.402  0.00  0.00    +0.000 OA
ATOM      7  C   UNL     1       3.386   3.710  19.924  0.00  0.00    +0.000 A 
ATOM      8  C   UNL     1       3.456   2.710  20.893  0.00  0.00    +0.000 A 
ATOM      9  C   UNL     1       2.278   2.264  21.485  0.00  0.00    +0.000 A 
ATOM     10  C   UNL     1       1.054   2.799  21.077  0.00  0.00    +0.000 A 
ATOM     11  C   UNL     1       0.997   3.743  20.038  0.00  0.00    +0.000 A 
ATOM     12  C   UNL     1       2.176   4.209  19.460  0.00  0.00    +0.000 A 
ATOM     13  O   UNL     1       2.109   5.155  18.469  0.00  0.00    +0.000 OA
ENDBRANCH   1   2
BRANCH   1  17
ATOM     14  C   UNL     1       0.552  10.089  19.617  0.00  0.00    +0.000 A 
ATOM     15  C   UNL     1       1.041  10.148  18.316  0.00  0.00    +0.000 A 
ATOM     16  C   UNL     1       1.911   9.163  17.843  0.00  0.00    +0.000 A 
ATOM     17  C   UNL     1       2.335   8.106  18.650  0.00  0.00    +0.000 A 
ATOM     18  C   UNL     1       1.855   8.033  19.950  0.00  0.00    +0.000 A 
ATOM     19  C   UNL     1       0.971   9.025  20.433  0.00  0.00    +0.000 A 
BRANCH  14  23
ATOM     20  C   UNL     1      -1.184  12.876  21.499  0.00  0.00    +0.000 C 
ATOM     21  C   UNL     1       0.007  12.093  21.016  0.00  0.00    +0.000 C 
ATOM     22  O   UNL     1       1.135  12.398  21.393  0.00  0.00    +0.000 OA
ATOM     23  N   UNL     1      -0.330  11.053  20.152  0.00  0.00    +0.000 N 
ATOM     24  H   UNL     1      -1.299  10.996  19.864  0.00  0.00    +0.000 HD
ENDBRANCH  14  23
ENDBRANCH   1  17
TORSDOF 3
ENDMDL
MODEL 4
REMARK VINA RESULT:      -8.1      2.044      3.584
REMARK  Name = 
REMARK  5 active torsions:
REMARK  status: ('A' for Active; 'I' for Inactive)
REMARK    1  A    between atoms: C_1  and  C_2
REMARK    2  A    between atoms: N_4  and  C_5
REMARK    3  A    between atoms: C_8  and  O_9
REMARK    4  A    between atoms: O_9  and  C_10
REMARK    5  A    between atoms: C_10  and  C_11
REMARK                            x       y       z     vdW  Elec       q    Type
REMARK                         _______ _______ _______ _____ _____    ______ ____
ROOT
ATOM      1  O   UNL     1       3.080   7.683  18.200  0.00  0.00    +0.000 OA
ENDROOT
BRANCH   1   2
ATOM      2  C   UNL     1       3.426   6.294  18.070  0.00  0.00    +0.000 C 
ATOM      3  C   UNL     1       4.493   6.366  16.946  0.00  0.00    +0.000 C 
ATOM      4  O   UNL     1       4.127   5.839  19.234  0.00  0.00    +0.000 OA
ATOM      5  C   UNL     1       4.535   4.558  19.096  0.00  0.00    +0.000 C 
ATOM      6  O   UNL     1       5.672   4.159  19.221  0.00  0.00    +0.000 OA
ATOM      7  C   UNL     1       3.362   3.707  18.928  0.00  0.00    +0.000 A 
ATOM      8  C   UNL     1       3.330   2.442  19.515  0.00  0.00    +0.000 A 
ATOM      9  C   UNL     1       2.126   1.743  19.543  0.00  0.00    +0.000 A 
ATOM     10  C   UNL     1       0.989   2.304  18.957  0.00  0.00    +0.000 A 
ATOM     11  C   UNL     1       1.061   3.539  18.295  0.00  0.00    +0.000 A 
ATOM     12  C   UNL     1       2.258   4.253  18.286  0.00  0.00    +0.000 A 
ATOM     13  O   UNL     1       2.308   5.474  17.664  0.00  0.00    +0.000 OA
ENDBRANCH   1   2
BRANCH   1  17
ATOM     14  C   UNL     1       0.189   9.623  20.506  0.00  0.00    +0.000 A 
ATOM     15  C   UNL     1       0.549  10.019  19.222  0.00  0.00    +0.000 A 
ATOM     16  C   UNL     1       1.528   9.319  18.515  0.00  0.00    +0.000 A 
ATOM     17  C   UNL     1       2.190   8.220  19.064  0.00  0.00    +0.000 A 
ATOM     18  C   UNL     1       1.842   7.811  20.344  0.00  0.00    +0.000 A 
ATOM     19  C   UNL     1       0.848   8.514  21.064  0.00  0.00    +0.000 A 
BRANCH  14  23
ATOM     20  C   UNL     1      -1.834  11.871  22.781  0.00  0.00    +0.000 C 
ATOM     21  C   UNL     1      -0.629  11.486  21.965  0.00  0.00    +0.000 C 
ATOM     22  O   UNL     1       0.366  12.205  21.964  0.00  0.00    +0.000 OA
ATOM     23  N   UNL     1      -0.793  10.288  21.271  0.00  0.00    +0.000 N 
ATOM     24  H   UNL     1      -1.712   9.866  21.302  0.00  0.00    +0.000 HD
ENDBRANCH  14  23
ENDBRANCH   1  17
TORSDOF 3
ENDMDL
MODEL 5
REMARK VINA RESULT:      -8.1      1.204      1.214
REMARK  Name = 
REMARK  5 active torsions:
REMARK  status: ('A' for Active; 'I' for Inactive)
REMARK    1  A    between atoms: C_1  and  C_2
REMARK    2  A    between atoms: N_4  and  C_5
REMARK    3  A    between atoms: C_8  and  O_9
REMARK    4  A    between atoms: O_9  and  C_10
REMARK    5  A    between atoms: C_10  and  C_11
REMARK                            x       y       z     vdW  Elec       q    Type
REMARK                         _______ _______ _______ _____ _____    ______ ____
ROOT
ATOM      1  O   UNL     1       2.845   6.053  20.207  0.00  0.00    +0.000 OA
ENDROOT
BRANCH   1   2
ATOM      2  C   UNL     1       3.382   4.981  19.415  0.00  0.00    +0.000 C 
ATOM      3  C   UNL     1       2.860   3.750  20.202  0.00  0.00    +0.000 C 
ATOM      4  O   UNL     1       2.730   4.922  18.140  0.00  0.00    +0.000 OA
ATOM      5  C   UNL     1       3.161   3.868  17.412  0.00  0.00    +0.000 C 
ATOM      6  O   UNL     1       2.459   3.008  16.927  0.00  0.00    +0.000 OA
ATOM      7  C   UNL     1       4.592   4.020  17.168  0.00  0.00    +0.000 A 
ATOM      8  C   UNL     1       5.132   3.641  15.939  0.00  0.00    +0.000 A 
ATOM      9  C   UNL     1       6.442   4.004  15.640  0.00  0.00    +0.000 A 
ATOM     10  C   UNL     1       7.196   4.706  16.583  0.00  0.00    +0.000 A 
ATOM     11  C   UNL     1       6.664   5.002  17.848  0.00  0.00    +0.000 A 
ATOM     12  C   UNL     1       5.345   4.662  18.142  0.00  0.00    +0.000 A 
ATOM     13  O   UNL     1       4.826   4.985  19.369  0.00  0.00    +0.000 OA
ENDBRANCH   1   2
BRANCH   1  17
ATOM     14  C   UNL     1       0.955   9.652  19.253  0.00  0.00    +0.000 A 
ATOM     15  C   UNL     1       0.828   9.014  20.483  0.00  0.00    +0.000 A 
ATOM     16  C   UNL     1       1.492   7.810  20.725  0.00  0.00    +0.000 A 
ATOM     17  C   UNL     1       2.283   7.195  19.753  0.00  0.00    +0.000 A 
ATOM     18  C   UNL     1       2.419   7.819  18.521  0.00  0.00    +0.000 A 
ATOM     19  C   UNL     1       1.753   9.041  18.271  0.00  0.00    +0.000 A 
BRANCH  14  23
ATOM     20  C   UNL     1      -1.346  12.444  18.145  0.00  0.00    +0.000 C 
ATOM     21  C   UNL     1      -0.998  11.022  18.492  0.00  0.00    +0.000 C 
ATOM     22  O   UNL     1      -1.836  10.135  18.356  0.00  0.00    +0.000 OA
ATOM     23  N   UNL     1       0.310  10.870  18.948  0.00  0.00    +0.000 N 
ATOM     24  H   UNL     1       0.843  11.718  19.094  0.00  0.00    +0.000 HD
ENDBRANCH  14  23
ENDBRANCH   1  17
TORSDOF 3
ENDMDL
MODEL 6
REMARK VINA RESULT:      -8.1      1.950      3.714
REMARK  Name = 
REMARK  5 active torsions:
REMARK  status: ('A' for Active; 'I' for Inactive)
REMARK    1  A    between atoms: C_1  and  C_2
REMARK    2  A    between atoms: N_4  and  C_5
REMARK    3  A    between atoms: C_8  and  O_9
REMARK    4  A    between atoms: O_9  and  C_10
REMARK    5  A    between atoms: C_10  and  C_11
REMARK                            x       y       z     vdW  Elec       q    Type
REMARK                         _______ _______ _______ _____ _____    ______ ____
ROOT
ATOM      1  O   UNL     1       3.210   7.187  17.911  0.00  0.00    +0.000 OA
ENDROOT
BRANCH   1   2
ATOM      2  C   UNL     1       3.385   5.792  18.209  0.00  0.00    +0.000 C 
ATOM      3  C   UNL     1       4.062   5.300  16.903  0.00  0.00    +0.000 C 
ATOM      4  O   UNL     1       4.368   5.617  19.238  0.00  0.00    +0.000 OA
ATOM      5  C   UNL     1       4.608   4.308  19.474  0.00  0.00    +0.000 C 
ATOM      6  O   UNL     1       5.693   3.770  19.440  0.00  0.00    +0.000 OA
ATOM      7  C   UNL     1       3.374   3.679  19.933  0.00  0.00    +0.000 A 
ATOM      8  C   UNL     1       3.419   2.700  20.926  0.00  0.00    +0.000 A 
ATOM      9  C   UNL     1       2.229   2.282  21.512  0.00  0.00    +0.000 A 
ATOM     10  C   UNL     1       1.017   2.822  21.076  0.00  0.00    +0.000 A 
ATOM     11  C   UNL     1       0.984   3.741  20.015  0.00  0.00    +0.000 A 
ATOM     12  C   UNL     1       2.176   4.181  19.442  0.00  0.00    +0.000 A 
ATOM     13  O   UNL     1       2.133   5.105  18.429  0.00  0.00    +0.000 OA
ENDBRANCH   1   2
BRANCH   1  17
ATOM     14  C   UNL     1       0.673  10.109  19.480  0.00  0.00    +0.000 A 
ATOM     15  C   UNL     1       1.211  10.159  18.198  0.00  0.00    +0.000 A 
ATOM     16  C   UNL     1       2.055   9.143  17.746  0.00  0.00    +0.000 A 
ATOM     17  C   UNL     1       2.403   8.059  18.555  0.00  0.00    +0.000 A 
ATOM     18  C   UNL     1       1.874   7.994  19.836  0.00  0.00    +0.000 A 
ATOM     19  C   UNL     1       1.015   9.019  20.298  0.00  0.00    +0.000 A 
BRANCH  14  23
ATOM     20  C   UNL     1      -2.073  12.607  20.216  0.00  0.00    +0.000 C 
ATOM     21  C   UNL     1      -1.464  11.413  19.531  0.00  0.00    +0.000 C 
ATOM     22  O   UNL     1      -2.090  10.822  18.657  0.00  0.00    +0.000 OA
ATOM     23  N   UNL     1      -0.186  11.104  19.994  0.00  0.00    +0.000 N 
ATOM     24  H   UNL     1       0.151  11.632  20.789  0.00  0.00    +0.000 HD
ENDBRANCH  14  23
ENDBRANCH   1  17
TORSDOF 3
ENDMDL
MODEL 7
REMARK VINA RESULT:      -8.0      2.050      3.679
REMARK  Name = 
REMARK  5 active torsions:
REMARK  status: ('A' for Active; 'I' for Inactive)
REMARK    1  A    between atoms: C_1  and  C_2
REMARK    2  A    between atoms: N_4  and  C_5
REMARK    3  A    between atoms: C_8  and  O_9
REMARK    4  A    between atoms: O_9  and  C_10
REMARK    5  A    between atoms: C_10  and  C_11
REMARK                            x       y       z     vdW  Elec       q    Type
REMARK                         _______ _______ _______ _____ _____    ______ ____
ROOT
ATOM      1  O   UNL     1       3.416   7.421  17.521  0.00  0.00    +0.000 OA
ENDROOT
BRANCH   1   2
ATOM      2  C   UNL     1       3.747   6.028  17.645  0.00  0.00    +0.000 C 
ATOM      3  C   UNL     1       4.779   5.873  16.496  0.00  0.00    +0.000 C 
ATOM      4  O   UNL     1       4.481   5.790  18.852  0.00  0.00    +0.000 OA
ATOM      5  C   UNL     1       4.874   4.501  18.946  0.00  0.00    +0.000 C 
ATOM      6  O   UNL     1       6.012   4.118  19.111  0.00  0.00    +0.000 OA
ATOM      7  C   UNL     1       3.690   3.649  18.976  0.00  0.00    +0.000 A 
ATOM      8  C   UNL     1       3.667   2.518  19.792  0.00  0.00    +0.000 A 
ATOM      9  C   UNL     1       2.460   1.853  19.987  0.00  0.00    +0.000 A 
ATOM     10  C   UNL     1       1.309   2.309  19.339  0.00  0.00    +0.000 A 
ATOM     11  C   UNL     1       1.369   3.396  18.454  0.00  0.00    +0.000 A 
ATOM     12  C   UNL     1       2.571   4.079  18.275  0.00  0.00    +0.000 A 
ATOM     13  O   UNL     1       2.610   5.161  17.433  0.00  0.00    +0.000 OA
ENDBRANCH   1   2
BRANCH   1  17
ATOM     14  C   UNL     1       0.722   9.233  20.147  0.00  0.00    +0.000 A 
ATOM     15  C   UNL     1       1.353   8.019  20.401  0.00  0.00    +0.000 A 
ATOM     16  C   UNL     1       2.241   7.476  19.471  0.00  0.00    +0.000 A 
ATOM     17  C   UNL     1       2.515   8.109  18.257  0.00  0.00    +0.000 A 
ATOM     18  C   UNL     1       1.894   9.321  17.989  0.00  0.00    +0.000 A 
ATOM     19  C   UNL     1       0.997   9.878  18.929  0.00  0.00    +0.000 A 
BRANCH  14  23
ATOM     20  C   UNL     1      -1.176  10.618  23.113  0.00  0.00    +0.000 C 
ATOM     21  C   UNL     1       0.033  10.072  22.403  0.00  0.00    +0.000 C 
ATOM     22  O   UNL     1       1.074   9.879  23.025  0.00  0.00    +0.000 OA
ATOM     23  N   UNL     1      -0.184   9.833  21.048  0.00  0.00    +0.000 N 
ATOM     24  H   UNL     1      -1.072  10.137  20.668  0.00  0.00    +0.000 HD
ENDBRANCH  14  23
ENDBRANCH   1  17
TORSDOF 3
ENDMDL
MODEL 8
REMARK VINA RESULT:      -7.8      3.906      7.358
REMARK  Name = 
REMARK  5 active torsions:
REMARK  status: ('A' for Active; 'I' for Inactive)
REMARK    1  A    between atoms: C_1  and  C_2
REMARK    2  A    between atoms: N_4  and  C_5
REMARK    3  A    between atoms: C_8  and  O_9
REMARK    4  A    between atoms: O_9  and  C_10
REMARK    5  A    between atoms: C_10  and  C_11
REMARK                            x       y       z     vdW  Elec       q    Type
REMARK                         _______ _______ _______ _____ _____    ______ ____
ROOT
ATOM      1  O   UNL     1       4.749   5.996  17.673  0.00  0.00    +0.000 OA
ENDROOT
BRANCH   1   2
ATOM      2  C   UNL     1       3.448   5.704  18.210  0.00  0.00    +0.000 C 
ATOM      3  C   UNL     1       2.657   6.955  17.747  0.00  0.00    +0.000 C 
ATOM      4  O   UNL     1       2.854   4.599  17.518  0.00  0.00    +0.000 OA
ATOM      5  C   UNL     1       1.596   4.362  17.952  0.00  0.00    +0.000 C 
ATOM      6  O   UNL     1       0.605   4.312  17.256  0.00  0.00    +0.000 OA
ATOM      7  C   UNL     1       1.645   4.019  19.369  0.00  0.00    +0.000 A 
ATOM      8  C   UNL     1       0.791   3.040  19.877  0.00  0.00    +0.000 A 
ATOM      9  C   UNL     1       1.007   2.563  21.167  0.00  0.00    +0.000 A 
ATOM     10  C   UNL     1       2.047   3.093  21.934  0.00  0.00    +0.000 A 
ATOM     11  C   UNL     1       2.841   4.138  21.437  0.00  0.00    +0.000 A 
ATOM     12  C   UNL     1       2.643   4.602  20.138  0.00  0.00    +0.000 A 
ATOM     13  O   UNL     1       3.447   5.601  19.652  0.00  0.00    +0.000 OA
ENDBRANCH   1   2
BRANCH   1  17
ATOM     14  C   UNL     1       6.368   4.126  14.309  0.00  0.00    +0.000 A 
ATOM     15  C   UNL     1       6.206   3.499  15.540  0.00  0.00    +0.000 A 
ATOM     16  C   UNL     1       5.658   4.193  16.620  0.00  0.00    +0.000 A 
ATOM     17  C   UNL     1       5.272   5.531  16.517  0.00  0.00    +0.000 A 
ATOM     18  C   UNL     1       5.427   6.171  15.295  0.00  0.00    +0.000 A 
ATOM     19  C   UNL     1       5.978   5.471  14.197  0.00  0.00    +0.000 A 
BRANCH  14  23
ATOM     20  C   UNL     1       7.071   2.237  11.106  0.00  0.00    +0.000 C 
ATOM     21  C   UNL     1       6.206   2.979  12.089  0.00  0.00    +0.000 C 
ATOM     22  O   UNL     1       5.001   3.091  11.884  0.00  0.00    +0.000 OA
ATOM     23  N   UNL     1       6.915   3.478  13.181  0.00  0.00    +0.000 N 
ATOM     24  H   UNL     1       7.922   3.383  13.152  0.00  0.00    +0.000 HD
ENDBRANCH  14  23
ENDBRANCH   1  17
TORSDOF 3
ENDMDL
MODEL 9
REMARK VINA RESULT:      -7.7      4.091      5.873
REMARK  Name = 
REMARK  5 active torsions:
REMARK  status: ('A' for Active; 'I' for Inactive)
REMARK    1  A    between atoms: C_1  and  C_2
REMARK    2  A    between atoms: N_4  and  C_5
REMARK    3  A    between atoms: C_8  and  O_9
REMARK    4  A    between atoms: O_9  and  C_10
REMARK    5  A    between atoms: C_10  and  C_11
REMARK                            x       y       z     vdW  Elec       q    Type
REMARK                         _______ _______ _______ _____ _____    ______ ____
ROOT
ATOM      1  O   UNL     1       6.509   4.567  18.329  0.00  0.00    +0.000 OA
ENDROOT
BRANCH   1   2
ATOM      2  C   UNL     1       5.178   4.032  18.234  0.00  0.00    +0.000 C 
ATOM      3  C   UNL     1       5.135   3.630  16.737  0.00  0.00    +0.000 C 
ATOM      4  O   UNL     1       5.076   2.803  18.963  0.00  0.00    +0.000 OA
ATOM      5  C   UNL     1       3.856   2.241  18.817  0.00  0.00    +0.000 C 
ATOM      6  O   UNL     1       3.637   1.114  18.429  0.00  0.00    +0.000 OA
ATOM      7  C   UNL     1       2.851   3.153  19.352  0.00  0.00    +0.000 A 
ATOM      8  C   UNL     1       1.750   2.649  20.043  0.00  0.00    +0.000 A 
ATOM      9  C   UNL     1       0.932   3.532  20.742  0.00  0.00    +0.000 A 
ATOM     10  C   UNL     1       1.208   4.901  20.710  0.00  0.00    +0.000 A 
ATOM     11  C   UNL     1       2.269   5.399  19.937  0.00  0.00    +0.000 A 
ATOM     12  C   UNL     1       3.105   4.516  19.256  0.00  0.00    +0.000 A 
ATOM     13  O   UNL     1       4.158   5.012  18.532  0.00  0.00    +0.000 OA
ENDBRANCH   1   2
BRANCH   1  17
ATOM     14  C   UNL     1       8.042   8.430  17.928  0.00  0.00    +0.000 A 
ATOM     15  C   UNL     1       8.496   7.511  18.870  0.00  0.00    +0.000 A 
ATOM     16  C   UNL     1       7.930   6.237  18.943  0.00  0.00    +0.000 A 
ATOM     17  C   UNL     1       6.889   5.844  18.100  0.00  0.00    +0.000 A 
ATOM     18  C   UNL     1       6.425   6.748  17.155  0.00  0.00    +0.000 A 
ATOM     19  C   UNL     1       6.998   8.039  17.074  0.00  0.00    +0.000 A 
BRANCH  14  23
ATOM     20  C   UNL     1       9.485  11.897  18.394  0.00  0.00    +0.000 C 
ATOM     21  C   UNL     1       9.112  10.506  18.831  0.00  0.00    +0.000 C 
ATOM     22  O   UNL     1       9.289  10.160  19.995  0.00  0.00    +0.000 OA
ATOM     23  N   UNL     1       8.574   9.731  17.805  0.00  0.00    +0.000 N 
ATOM     24  H   UNL     1       8.585  10.134  16.876  0.00  0.00    +0.000 HD
ENDBRANCH  14  23
ENDBRANCH   1  17
TORSDOF 3
ENDMDL
