MODEL 1
REMARK VINA RESULT:      -7.2      0.000      0.000
REMARK  Name = 
REMARK  6 active torsions:
REMARK  status: ('A' for Active; 'I' for Inactive)
REMARK    1  A    between atoms: C_1  and  O_2
REMARK    2  A    between atoms: O_2  and  C_3
REMARK    3  A    between atoms: C_3  and  C_5
REMARK    4  A    between atoms: C_5  and  C_6
REMARK    5  A    between atoms: C_6  and  C_7
REMARK    6  A    between atoms: N_9  and  C_10
REMARK                            x       y       z     vdW  Elec       q    Type
REMARK                         _______ _______ _______ _____ _____    ______ ____
ROOT
ATOM      1  C   UNL     1       5.234   6.035  17.499  0.00  0.00    +0.000 C 
ATOM      2  O   UNL     1       5.883   5.697  18.486  0.00  0.00    +0.000 OA
ATOM      3  N   UNL     1       3.853   6.164  17.423  0.00  0.00    +0.000 N 
ATOM      4  H   UNL     1       3.459   6.258  16.501  0.00  0.00    +0.000 HD
ENDROOT
BRANCH   3   5
ATOM      5  C   UNL     1       2.946   5.892  18.489  0.00  0.00    +0.000 A 
ATOM      6  C   UNL     1       2.615   6.900  19.406  0.00  0.00    +0.000 A 
ATOM      7  C   UNL     1       1.807   6.640  20.511  0.00  0.00    +0.000 A 
ATOM      8  C   UNL     1       1.295   5.369  20.702  0.00  0.00    +0.000 A 
ATOM      9  C   UNL     1       1.557   4.344  19.784  0.00  0.00    +0.000 A 
ATOM     10  C   UNL     1       1.005   3.076  20.017  0.00  0.00    +0.000 A 
ATOM     11  C   UNL     1       1.231   2.022  19.138  0.00  0.00    +0.000 A 
ATOM     12  C   UNL     1       2.011   2.230  18.009  0.00  0.00    +0.000 A 
ATOM     13  C   UNL     1       2.575   3.489  17.767  0.00  0.00    +0.000 A 
ATOM     14  C   UNL     1       2.376   4.586  18.645  0.00  0.00    +0.000 A 
ENDBRANCH   3   5
BRANCH   1  15
ATOM     15  C   UNL     1       5.952   6.371  16.207  0.00  0.00    +0.000 C 
BRANCH  15  16
ATOM     16  C   UNL     1       5.451   5.457  15.087  0.00  0.00    +0.000 C 
BRANCH  16  17
ATOM     17  C   UNL     1       6.613   4.831  14.354  0.00  0.00    +0.000 C 
ATOM     18  O   UNL     1       7.722   5.344  14.257  0.00  0.00    +0.000 OA
BRANCH  17  20
ATOM     19  C   UNL     1       6.318   3.509  12.444  0.00  0.00    +0.000 C 
ATOM     20  O   UNL     1       6.263   3.610  13.866  0.00  0.00    +0.000 OA
ENDBRANCH  17  20
ENDBRANCH  16  17
ENDBRANCH  15  16
ENDBRANCH   1  15
TORSDOF 5
ENDMDL
MODEL 2
REMARK VINA RESULT:      -7.2      1.154      1.261
REMARK  Name = 
REMARK  6 active torsions:
REMARK  status: ('A' for Active; 'I' for Inactive)
REMARK    1  A    between atoms: C_1  and  O_2
REMARK    2  A    between atoms: O_2  and  C_3
REMARK    3  A    between atoms: C_3  and  C_5
REMARK    4  A    between atoms: C_5  and  C_6
REMARK    5  A    between atoms: C_6  and  C_7
REMARK    6  A    between atoms: N_9  and  C_10
REMARK                            x       y       z     vdW  Elec       q    Type
REMARK                         _______ _______ _______ _____ _____    ______ ____
ROOT
ATOM      1  C   UNL     1       5.691   5.977  18.467  0.00  0.00    +0.000 C 
ATOM      2  O   UNL     1       6.088   5.372  19.460  0.00  0.00    +0.000 OA
ATOM      3  N   UNL     1       4.367   6.215  18.118  0.00  0.00    +0.000 N 
ATOM      4  H   UNL     1       4.201   6.550  17.183  0.00  0.00    +0.000 HD
ENDROOT
BRANCH   3   5
ATOM      5  C   UNL     1       3.233   5.760  18.854  0.00  0.00    +0.000 A 
ATOM      6  C   UNL     1       2.582   6.624  19.746  0.00  0.00    +0.000 A 
ATOM      7  C   UNL     1       1.532   6.183  20.548  0.00  0.00    +0.000 A 
ATOM      8  C   UNL     1       1.098   4.873  20.450  0.00  0.00    +0.000 A 
ATOM      9  C   UNL     1       1.685   3.989  19.535  0.00  0.00    +0.000 A 
ATOM     10  C   UNL     1       1.201   2.674  19.466  0.00  0.00    +0.000 A 
ATOM     11  C   UNL     1       1.746   1.755  18.576  0.00  0.00    +0.000 A 
ATOM     12  C   UNL     1       2.780   2.146  17.738  0.00  0.00    +0.000 A 
ATOM     13  C   UNL     1       3.279   3.454  17.801  0.00  0.00    +0.000 A 
ATOM     14  C   UNL     1       2.757   4.418  18.702  0.00  0.00    +0.000 A 
ENDBRANCH   3   5
BRANCH   1  15
ATOM     15  C   UNL     1       6.695   6.559  17.491  0.00  0.00    +0.000 C 
BRANCH  15  16
ATOM     16  C   UNL     1       6.553   5.869  16.134  0.00  0.00    +0.000 C 
BRANCH  16  17
ATOM     17  C   UNL     1       7.085   4.457  16.199  0.00  0.00    +0.000 C 
ATOM     18  O   UNL     1       8.042   4.114  16.883  0.00  0.00    +0.000 OA
BRANCH  17  20
ATOM     19  C   UNL     1       5.819   4.232  14.242  0.00  0.00    +0.000 C 
ATOM     20  O   UNL     1       6.326   3.629  15.432  0.00  0.00    +0.000 OA
ENDBRANCH  17  20
ENDBRANCH  16  17
ENDBRANCH  15  16
ENDBRANCH   1  15
TORSDOF 5
ENDMDL
MODEL 3
REMARK VINA RESULT:      -7.1      2.626      6.399
REMARK  Name = 
REMARK  6 active torsions:
REMARK  status: ('A' for Active; 'I' for Inactive)
REMARK    1  A    between atoms: C_1  and  O_2
REMARK    2  A    between atoms: O_2  and  C_3
REMARK    3  A    between atoms: C_3  and  C_5
REMARK    4  A    between atoms: C_5  and  C_6
REMARK    5  A    between atoms: C_6  and  C_7
REMARK    6  A    between atoms: N_9  and  C_10
REMARK                            x       y       z     vdW  Elec       q    Type
REMARK                         _______ _______ _______ _____ _____    ______ ____
ROOT
ATOM      1  C   UNL     1       3.025   2.949  18.445  0.00  0.00    +0.000 C 
ATOM      2  O   UNL     1       3.720   1.936  18.493  0.00  0.00    +0.000 OA
ATOM      3  N   UNL     1       3.473   4.251  18.266  0.00  0.00    +0.000 N 
ATOM      4  H   UNL     1       2.808   4.985  18.444  0.00  0.00    +0.000 HD
ENDROOT
BRANCH   3   5
ATOM      5  C   UNL     1       4.841   4.635  18.137  0.00  0.00    +0.000 A 
ATOM      6  C   UNL     1       5.564   5.050  19.264  0.00  0.00    +0.000 A 
ATOM      7  C   UNL     1       6.871   5.520  19.156  0.00  0.00    +0.000 A 
ATOM      8  C   UNL     1       7.485   5.559  17.917  0.00  0.00    +0.000 A 
ATOM      9  C   UNL     1       6.819   5.106  16.771  0.00  0.00    +0.000 A 
ATOM     10  C   UNL     1       7.489   5.156  15.540  0.00  0.00    +0.000 A 
ATOM     11  C   UNL     1       6.876   4.718  14.370  0.00  0.00    +0.000 A 
ATOM     12  C   UNL     1       5.582   4.220  14.423  0.00  0.00    +0.000 A 
ATOM     13  C   UNL     1       4.897   4.172  15.644  0.00  0.00    +0.000 A 
ATOM     14  C   UNL     1       5.484   4.617  16.857  0.00  0.00    +0.000 A 
ENDBRANCH   3   5
BRANCH   1  15
ATOM     15  C   UNL     1       1.519   2.832  18.575  0.00  0.00    +0.000 C 
BRANCH  15  16
ATOM     16  C   UNL     1       1.159   2.355  19.982  0.00  0.00    +0.000 C 
BRANCH  16  17
ATOM     17  C   UNL     1       1.441   3.437  20.997  0.00  0.00    +0.000 C 
ATOM     18  O   UNL     1       2.063   3.259  22.037  0.00  0.00    +0.000 OA
BRANCH  17  20
ATOM     19  C   UNL     1       1.820   5.740  20.792  0.00  0.00    +0.000 C 
ATOM     20  O   UNL     1       0.950   4.630  20.566  0.00  0.00    +0.000 OA
ENDBRANCH  17  20
ENDBRANCH  16  17
ENDBRANCH  15  16
ENDBRANCH   1  15
TORSDOF 5
ENDMDL
MODEL 4
REMARK VINA RESULT:      -7.1      1.489      1.994
REMARK  Name = 
REMARK  6 active torsions:
REMARK  status: ('A' for Active; 'I' for Inactive)
REMARK    1  A    between atoms: C_1  and  O_2
REMARK    2  A    between atoms: O_2  and  C_3
REMARK    3  A    between atoms: C_3  and  C_5
REMARK    4  A    between atoms: C_5  and  C_6
REMARK    5  A    between atoms: C_6  and  C_7
REMARK    6  A    between atoms: N_9  and  C_10
REMARK                            x       y       z     vdW  Elec       q    Type
REMARK                         _______ _______ _______ _____ _____    ______ ____
ROOT
ATOM      1  C   UNL     1       5.538   5.629  15.385  0.00  0.00    +0.000 C 
ATOM      2  O   UNL     1       5.290   6.814  15.175  0.00  0.00    +0.000 OA
ATOM      3  N   UNL     1       4.954   4.821  16.352  0.00  0.00    +0.000 N 
ATOM      4  H   UNL     1       5.399   3.935  16.528  0.00  0.00    +0.000 HD
ENDROOT
BRANCH   3   5
ATOM      5  C   UNL     1       3.974   5.251  17.294  0.00  0.00    +0.000 A 
ATOM      6  C   UNL     1       3.930   6.592  17.701  0.00  0.00    +0.000 A 
ATOM      7  C   UNL     1       3.047   7.023  18.689  0.00  0.00    +0.000 A 
ATOM      8  C   UNL     1       2.173   6.121  19.269  0.00  0.00    +0.000 A 
ATOM      9  C   UNL     1       2.146   4.782  18.857  0.00  0.00    +0.000 A 
ATOM     10  C   UNL     1       1.234   3.910  19.469  0.00  0.00    +0.000 A 
ATOM     11  C   UNL     1       1.163   2.570  19.099  0.00  0.00    +0.000 A 
ATOM     12  C   UNL     1       2.005   2.091  18.105  0.00  0.00    +0.000 A 
ATOM     13  C   UNL     1       2.926   2.949  17.490  0.00  0.00    +0.000 A 
ATOM     14  C   UNL     1       3.036   4.319  17.847  0.00  0.00    +0.000 A 
ENDBRANCH   3   5
BRANCH   1  15
ATOM     15  C   UNL     1       6.567   4.915  14.531  0.00  0.00    +0.000 C 
BRANCH  15  16
ATOM     16  C   UNL     1       5.939   3.671  13.901  0.00  0.00    +0.000 C 
BRANCH  16  17
ATOM     17  C   UNL     1       6.317   3.568  12.442  0.00  0.00    +0.000 C 
ATOM     18  O   UNL     1       7.233   4.194  11.923  0.00  0.00    +0.000 OA
BRANCH  17  20
ATOM     19  C   UNL     1       4.270   3.166  11.377  0.00  0.00    +0.000 C 
ATOM     20  O   UNL     1       5.530   2.654  11.812  0.00  0.00    +0.000 OA
ENDBRANCH  17  20
ENDBRANCH  16  17
ENDBRANCH  15  16
ENDBRANCH   1  15
TORSDOF 5
ENDMDL
MODEL 5
REMARK VINA RESULT:      -7.0      1.079      1.169
REMARK  Name = 
REMARK  6 active torsions:
REMARK  status: ('A' for Active; 'I' for Inactive)
REMARK    1  A    between atoms: C_1  and  O_2
REMARK    2  A    between atoms: O_2  and  C_3
REMARK    3  A    between atoms: C_3  and  C_5
REMARK    4  A    between atoms: C_5  and  C_6
REMARK    5  A    between atoms: C_6  and  C_7
REMARK    6  A    between atoms: N_9  and  C_10
REMARK                            x       y       z     vdW  Elec       q    Type
REMARK                         _______ _______ _______ _____ _____    ______ ____
ROOT
ATOM      1  C   UNL     1       5.955   4.725  17.631  0.00  0.00    +0.000 C 
ATOM      2  O   UNL     1       6.444   4.757  18.759  0.00  0.00    +0.000 OA
ATOM      3  N   UNL     1       4.640   5.017  17.292  0.00  0.00    +0.000 N 
ATOM      4  H   UNL     1       4.346   4.758  16.364  0.00  0.00    +0.000 HD
ENDROOT
BRANCH   3   5
ATOM      5  C   UNL     1       3.617   5.377  18.217  0.00  0.00    +0.000 A 
ATOM      6  C   UNL     1       3.411   6.724  18.549  0.00  0.00    +0.000 A 
ATOM      7  C   UNL     1       2.485   7.101  19.518  0.00  0.00    +0.000 A 
ATOM      8  C   UNL     1       1.728   6.133  20.155  0.00  0.00    +0.000 A 
ATOM      9  C   UNL     1       1.863   4.780  19.820  0.00  0.00    +0.000 A 
ATOM     10  C   UNL     1       1.065   3.839  20.487  0.00  0.00    +0.000 A 
ATOM     11  C   UNL     1       1.157   2.483  20.194  0.00  0.00    +0.000 A 
ATOM     12  C   UNL     1       2.048   2.053  19.221  0.00  0.00    +0.000 A 
ATOM     13  C   UNL     1       2.858   2.981  18.551  0.00  0.00    +0.000 A 
ATOM     14  C   UNL     1       2.801   4.371  18.829  0.00  0.00    +0.000 A 
ENDBRANCH   3   5
BRANCH   1  15
ATOM     15  C   UNL     1       6.825   4.351  16.447  0.00  0.00    +0.000 C 
BRANCH  15  16
ATOM     16  C   UNL     1       5.941   3.933  15.272  0.00  0.00    +0.000 C 
BRANCH  16  17
ATOM     17  C   UNL     1       6.585   4.318  13.961  0.00  0.00    +0.000 C 
ATOM     18  O   UNL     1       7.235   5.342  13.789  0.00  0.00    +0.000 OA
BRANCH  17  20
ATOM     19  C   UNL     1       5.215   3.545  12.226  0.00  0.00    +0.000 C 
ATOM     20  O   UNL     1       6.379   3.349  13.029  0.00  0.00    +0.000 OA
ENDBRANCH  17  20
ENDBRANCH  16  17
ENDBRANCH  15  16
ENDBRANCH   1  15
TORSDOF 5
ENDMDL
MODEL 6
REMARK VINA RESULT:      -7.0      1.258      2.763
REMARK  Name = 
REMARK  6 active torsions:
REMARK  status: ('A' for Active; 'I' for Inactive)
REMARK    1  A    between atoms: C_1  and  O_2
REMARK    2  A    between atoms: O_2  and  C_3
REMARK    3  A    between atoms: C_3  and  C_5
REMARK    4  A    between atoms: C_5  and  C_6
REMARK    5  A    between atoms: C_6  and  C_7
REMARK    6  A    between atoms: N_9  and  C_10
REMARK                            x       y       z     vdW  Elec       q    Type
REMARK                         _______ _______ _______ _____ _____    ______ ____
ROOT
ATOM      1  C   UNL     1       6.227   4.299  17.966  0.00  0.00    +0.000 C 
ATOM      2  O   UNL     1       6.501   4.401  19.160  0.00  0.00    +0.000 OA
ATOM      3  N   UNL     1       5.028   3.846  17.429  0.00  0.00    +0.000 N 
ATOM      4  H   UNL     1       5.027   3.637  16.444  0.00  0.00    +0.000 HD
ENDROOT
BRANCH   3   5
ATOM      5  C   UNL     1       3.912   3.389  18.189  0.00  0.00    +0.000 A 
ATOM      6  C   UNL     1       3.552   2.034  18.166  0.00  0.00    +0.000 A 
ATOM      7  C   UNL     1       2.413   1.573  18.821  0.00  0.00    +0.000 A 
ATOM      8  C   UNL     1       1.627   2.460  19.535  0.00  0.00    +0.000 A 
ATOM      9  C   UNL     1       1.975   3.814  19.628  0.00  0.00    +0.000 A 
ATOM     10  C   UNL     1       1.151   4.670  20.373  0.00  0.00    +0.000 A 
ATOM     11  C   UNL     1       1.450   6.023  20.501  0.00  0.00    +0.000 A 
ATOM     12  C   UNL     1       2.585   6.532  19.886  0.00  0.00    +0.000 A 
ATOM     13  C   UNL     1       3.414   5.690  19.133  0.00  0.00    +0.000 A 
ATOM     14  C   UNL     1       3.138   4.308  18.970  0.00  0.00    +0.000 A 
ENDBRANCH   3   5
BRANCH   1  15
ATOM     15  C   UNL     1       7.251   4.703  16.924  0.00  0.00    +0.000 C 
BRANCH  15  16
ATOM     16  C   UNL     1       6.584   5.574  15.859  0.00  0.00    +0.000 C 
BRANCH  16  17
ATOM     17  C   UNL     1       6.887   5.046  14.476  0.00  0.00    +0.000 C 
ATOM     18  O   UNL     1       7.803   5.450  13.771  0.00  0.00    +0.000 OA
BRANCH  17  20
ATOM     19  C   UNL     1       6.203   3.516  12.840  0.00  0.00    +0.000 C 
ATOM     20  O   UNL     1       6.031   4.037  14.157  0.00  0.00    +0.000 OA
ENDBRANCH  17  20
ENDBRANCH  16  17
ENDBRANCH  15  16
ENDBRANCH   1  15
TORSDOF 5
ENDMDL
MODEL 7
REMARK VINA RESULT:      -7.0      0.816      1.145
REMARK  Name = 
REMARK  6 active torsions:
REMARK  status: ('A' for Active; 'I' for Inactive)
REMARK    1  A    between atoms: C_1  and  O_2
REMARK    2  A    between atoms: O_2  and  C_3
REMARK    3  A    between atoms: C_3  and  C_5
REMARK    4  A    between atoms: C_5  and  C_6
REMARK    5  A    between atoms: C_6  and  C_7
REMARK    6  A    between atoms: N_9  and  C_10
REMARK                            x       y       z     vdW  Elec       q    Type
REMARK                         _______ _______ _______ _____ _____    ______ ____
ROOT
ATOM      1  C   UNL     1       5.669   5.763  18.030  0.00  0.00    +0.000 C 
ATOM      2  O   UNL     1       6.135   5.465  19.127  0.00  0.00    +0.000 OA
ATOM      3  N   UNL     1       4.324   5.920  17.718  0.00  0.00    +0.000 N 
ATOM      4  H   UNL     1       4.091   5.971  16.740  0.00  0.00    +0.000 HD
ENDROOT
BRANCH   3   5
ATOM      5  C   UNL     1       3.245   5.729  18.630  0.00  0.00    +0.000 A 
ATOM      6  C   UNL     1       2.851   6.771  19.482  0.00  0.00    +0.000 A 
ATOM      7  C   UNL     1       1.865   6.587  20.448  0.00  0.00    +0.000 A 
ATOM      8  C   UNL     1       1.237   5.360  20.560  0.00  0.00    +0.000 A 
ATOM      9  C   UNL     1       1.561   4.305  19.698  0.00  0.00    +0.000 A 
ATOM     10  C   UNL     1       0.888   3.084  19.846  0.00  0.00    +0.000 A 
ATOM     11  C   UNL     1       1.169   2.003  19.016  0.00  0.00    +0.000 A 
ATOM     12  C   UNL     1       2.128   2.138  18.022  0.00  0.00    +0.000 A 
ATOM     13  C   UNL     1       2.815   3.349  17.867  0.00  0.00    +0.000 A 
ATOM     14  C   UNL     1       2.564   4.471  18.699  0.00  0.00    +0.000 A 
ENDBRANCH   3   5
BRANCH   1  15
ATOM     15  C   UNL     1       6.601   6.008  16.860  0.00  0.00    +0.000 C 
BRANCH  15  16
ATOM     16  C   UNL     1       7.099   4.671  16.310  0.00  0.00    +0.000 C 
BRANCH  16  17
ATOM     17  C   UNL     1       6.933   4.620  14.809  0.00  0.00    +0.000 C 
ATOM     18  O   UNL     1       6.171   3.858  14.227  0.00  0.00    +0.000 OA
BRANCH  17  20
ATOM     19  C   UNL     1       7.969   5.327  12.831  0.00  0.00    +0.000 C 
ATOM     20  O   UNL     1       7.709   5.566  14.214  0.00  0.00    +0.000 OA
ENDBRANCH  17  20
ENDBRANCH  16  17
ENDBRANCH  15  16
ENDBRANCH   1  15
TORSDOF 5
ENDMDL
MODEL 8
REMARK VINA RESULT:      -7.0      1.401      1.601
REMARK  Name = 
REMARK  6 active torsions:
REMARK  status: ('A' for Active; 'I' for Inactive)
REMARK    1  A    between atoms: C_1  and  O_2
REMARK    2  A    between atoms: O_2  and  C_3
REMARK    3  A    between atoms: C_3  and  C_5
REMARK    4  A    between atoms: C_5  and  C_6
REMARK    5  A    between atoms: C_6  and  C_7
REMARK    6  A    between atoms: N_9  and  C_10
REMARK                            x       y       z     vdW  Elec       q    Type
REMARK                         _______ _______ _______ _____ _____    ______ ____
ROOT
ATOM      1  C   UNL     1       6.248   5.147  18.601  0.00  0.00    +0.000 C 
ATOM      2  O   UNL     1       6.545   5.199  19.793  0.00  0.00    +0.000 OA
ATOM      3  N   UNL     1       4.984   5.329  18.056  0.00  0.00    +0.000 N 
ATOM      4  H   UNL     1       4.866   5.064  17.092  0.00  0.00    +0.000 HD
ENDROOT
BRANCH   3   5
ATOM      5  C   UNL     1       3.798   5.582  18.806  0.00  0.00    +0.000 A 
ATOM      6  C   UNL     1       3.375   6.901  19.030  0.00  0.00    +0.000 A 
ATOM      7  C   UNL     1       2.275   7.184  19.837  0.00  0.00    +0.000 A 
ATOM      8  C   UNL     1       1.563   6.147  20.413  0.00  0.00    +0.000 A 
ATOM      9  C   UNL     1       1.918   4.813  20.175  0.00  0.00    +0.000 A 
ATOM     10  C   UNL     1       1.157   3.798  20.774  0.00  0.00    +0.000 A 
ATOM     11  C   UNL     1       1.464   2.456  20.571  0.00  0.00    +0.000 A 
ATOM     12  C   UNL     1       2.536   2.116  19.759  0.00  0.00    +0.000 A 
ATOM     13  C   UNL     1       3.310   3.119  19.161  0.00  0.00    +0.000 A 
ATOM     14  C   UNL     1       3.036   4.498  19.351  0.00  0.00    +0.000 A 
ENDBRANCH   3   5
BRANCH   1  15
ATOM     15  C   UNL     1       7.325   4.871  17.571  0.00  0.00    +0.000 C 
BRANCH  15  16
ATOM     16  C   UNL     1       6.691   4.293  16.306  0.00  0.00    +0.000 C 
BRANCH  16  17
ATOM     17  C   UNL     1       6.580   5.354  15.236  0.00  0.00    +0.000 C 
ATOM     18  O   UNL     1       5.621   6.106  15.111  0.00  0.00    +0.000 OA
BRANCH  17  20
ATOM     19  C   UNL     1       7.518   4.938  13.131  0.00  0.00    +0.000 C 
ATOM     20  O   UNL     1       7.707   5.380  14.475  0.00  0.00    +0.000 OA
ENDBRANCH  17  20
ENDBRANCH  16  17
ENDBRANCH  15  16
ENDBRANCH   1  15
TORSDOF 5
ENDMDL
MODEL 9
REMARK VINA RESULT:      -6.9      2.740      6.703
REMARK  Name = 
REMARK  6 active torsions:
REMARK  status: ('A' for Active; 'I' for Inactive)
REMARK    1  A    between atoms: C_1  and  O_2
REMARK    2  A    between atoms: O_2  and  C_3
REMARK    3  A    between atoms: C_3  and  C_5
REMARK    4  A    between atoms: C_5  and  C_6
REMARK    5  A    between atoms: C_6  and  C_7
REMARK    6  A    between atoms: N_9  and  C_10
REMARK                            x       y       z     vdW  Elec       q    Type
REMARK                         _______ _______ _______ _____ _____    ______ ____
ROOT
ATOM      1  C   UNL     1       2.773   2.912  17.756  0.00  0.00    +0.000 C 
ATOM      2  O   UNL     1       2.014   3.605  17.082  0.00  0.00    +0.000 OA
ATOM      3  N   UNL     1       4.160   2.988  17.778  0.00  0.00    +0.000 N 
ATOM      4  H   UNL     1       4.645   2.230  18.229  0.00  0.00    +0.000 HD
ENDROOT
BRANCH   3   5
ATOM      5  C   UNL     1       4.943   3.878  16.986  0.00  0.00    +0.000 A 
ATOM      6  C   UNL     1       4.810   3.880  15.590  0.00  0.00    +0.000 A 
ATOM      7  C   UNL     1       5.626   4.668  14.783  0.00  0.00    +0.000 A 
ATOM      8  C   UNL     1       6.576   5.490  15.364  0.00  0.00    +0.000 A 
ATOM      9  C   UNL     1       6.710   5.559  16.757  0.00  0.00    +0.000 A 
ATOM     10  C   UNL     1       7.681   6.416  17.297  0.00  0.00    +0.000 A 
ATOM     11  C   UNL     1       7.856   6.525  18.673  0.00  0.00    +0.000 A 
ATOM     12  C   UNL     1       7.055   5.778  19.525  0.00  0.00    +0.000 A 
ATOM     13  C   UNL     1       6.087   4.912  19.000  0.00  0.00    +0.000 A 
ATOM     14  C   UNL     1       5.884   4.766  17.603  0.00  0.00    +0.000 A 
ENDBRANCH   3   5
BRANCH   1  15
ATOM     15  C   UNL     1       2.202   1.860  18.686  0.00  0.00    +0.000 C 
BRANCH  15  16
ATOM     16  C   UNL     1       0.881   2.356  19.275  0.00  0.00    +0.000 C 
BRANCH  16  17
ATOM     17  C   UNL     1       1.114   3.026  20.609  0.00  0.00    +0.000 C 
ATOM     18  O   UNL     1       1.498   2.441  21.614  0.00  0.00    +0.000 OA
BRANCH  17  20
ATOM     19  C   UNL     1       2.042   5.174  20.692  0.00  0.00    +0.000 C 
ATOM     20  O   UNL     1       0.882   4.362  20.514  0.00  0.00    +0.000 OA
ENDBRANCH  17  20
ENDBRANCH  16  17
ENDBRANCH  15  16
ENDBRANCH   1  15
TORSDOF 5
ENDMDL
