MODEL 1
REMARK VINA RESULT:      -7.4      0.000      0.000
REMARK  Name = 
REMARK  8 active torsions:
REMARK  status: ('A' for Active; 'I' for Inactive)
REMARK    1  A    between atoms: C_1  and  N_2
REMARK    2  A    between atoms: N_2  and  C_3
REMARK    3  A    between atoms: N_2  and  N_4
REMARK    4  A    between atoms: N_5  and  C_6
REMARK    5  A    between atoms: C_9  and  C_10
REMARK    6  A    between atoms: N_12  and  N_13
REMARK    7  A    between atoms: C_14  and  C_15
REMARK    8  A    between atoms: C_18  and  N_19
REMARK                            x       y       z     vdW  Elec       q    Type
REMARK                         _______ _______ _______ _____ _____    ______ ____
ROOT
ATOM      1  C   UNL     1       0.590  10.006  18.607  0.00  0.00    +0.000 C 
ATOM      2  O   UNL     1       1.305  10.260  19.576  0.00  0.00    +0.000 OA
ATOM      3  N   UNL     1       1.014   9.246  17.516  0.00  0.00    +0.000 N 
ATOM      4  H   UNL     1       0.412   9.037  16.735  0.00  0.00    +0.000 HD
ENDROOT
BRANCH   1   8
ATOM      5  C   UNL     1      -3.434  11.629  18.698  0.00  0.00    +0.000 A 
ATOM      6  C   UNL     1      -2.430  12.086  19.556  0.00  0.00    +0.000 A 
ATOM      7  C   UNL     1      -1.136  11.547  19.504  0.00  0.00    +0.000 A 
ATOM      8  C   UNL     1      -0.811  10.528  18.592  0.00  0.00    +0.000 A 
ATOM      9  C   UNL     1      -1.813  10.059  17.735  0.00  0.00    +0.000 A 
ATOM     10  C   UNL     1      -3.107  10.602  17.797  0.00  0.00    +0.000 A 
BRANCH   5  12
ATOM     11  N   UNL     1      -5.251  12.392  17.701  0.00  0.00    +0.000 NA
ATOM     12  N   UNL     1      -4.724  12.191  18.814  0.00  0.00    +0.000 NA
BRANCH  11  14
ATOM     13  C   UNL     1      -7.444  12.165  18.578  0.00  0.00    +0.000 C 
ATOM     14  N   UNL     1      -6.512  12.924  17.764  0.00  0.00    +0.000 N 
ATOM     15  C   UNL     1      -7.025  13.776  16.701  0.00  0.00    +0.000 C 
ENDBRANCH  11  14
ENDBRANCH   5  12
ENDBRANCH   1   8
BRANCH   3  16
ATOM     16  N   UNL     1       2.273   8.723  17.535  0.00  0.00    +0.000 NA
ATOM     17  C   UNL     1       2.382   7.463  17.799  0.00  0.00    +0.000 C 
BRANCH  17  18
ATOM     18  C   UNL     1       3.713   6.820  17.876  0.00  0.00    +0.000 A 
ATOM     19  C   UNL     1       4.021   5.961  18.940  0.00  0.00    +0.000 A 
ATOM     20  C   UNL     1       5.263   5.323  18.991  0.00  0.00    +0.000 A 
ATOM     21  C   UNL     1       6.197   5.550  17.972  0.00  0.00    +0.000 A 
ATOM     22  C   UNL     1       5.899   6.422  16.912  0.00  0.00    +0.000 A 
ATOM     23  C   UNL     1       4.652   7.057  16.867  0.00  0.00    +0.000 A 
BRANCH  21  24
ATOM     24  N   UNL     1       7.496   4.864  18.009  0.00  0.00    +0.000 N 
ATOM     25  O   UNL     1       8.087   4.806  19.096  0.00  0.00    +0.000 OA
ATOM     26  O   UNL     1       7.921   4.381  16.950  0.00  0.00    +0.000 OA
ENDBRANCH  21  24
ENDBRANCH  17  18
ENDBRANCH   3  16
TORSDOF 6
ENDMDL
MODEL 2
REMARK VINA RESULT:      -7.3      0.611      1.166
REMARK  Name = 
REMARK  8 active torsions:
REMARK  status: ('A' for Active; 'I' for Inactive)
REMARK    1  A    between atoms: C_1  and  N_2
REMARK    2  A    between atoms: N_2  and  C_3
REMARK    3  A    between atoms: N_2  and  N_4
REMARK    4  A    between atoms: N_5  and  C_6
REMARK    5  A    between atoms: C_9  and  C_10
REMARK    6  A    between atoms: N_12  and  N_13
REMARK    7  A    between atoms: C_14  and  C_15
REMARK    8  A    between atoms: C_18  and  N_19
REMARK                            x       y       z     vdW  Elec       q    Type
REMARK                         _______ _______ _______ _____ _____    ______ ____
ROOT
ATOM      1  C   UNL     1       0.573  10.012  18.685  0.00  0.00    +0.000 C 
ATOM      2  O   UNL     1       1.229  10.128  19.719  0.00  0.00    +0.000 OA
ATOM      3  N   UNL     1       1.056   9.389  17.533  0.00  0.00    +0.000 N 
ATOM      4  H   UNL     1       0.501   9.292  16.697  0.00  0.00    +0.000 HD
ENDROOT
BRANCH   1   8
ATOM      5  C   UNL     1      -3.498  11.496  18.448  0.00  0.00    +0.000 A 
ATOM      6  C   UNL     1      -3.018  10.506  17.587  0.00  0.00    +0.000 A 
ATOM      7  C   UNL     1      -1.699  10.041  17.686  0.00  0.00    +0.000 A 
ATOM      8  C   UNL     1      -0.818  10.559  18.651  0.00  0.00    +0.000 A 
ATOM      9  C   UNL     1      -1.289  11.557  19.512  0.00  0.00    +0.000 A 
ATOM     10  C   UNL     1      -2.610  12.019  19.403  0.00  0.00    +0.000 A 
BRANCH   5  12
ATOM     11  N   UNL     1      -5.174  12.730  19.188  0.00  0.00    +0.000 NA
ATOM     12  N   UNL     1      -4.828  11.943  18.284  0.00  0.00    +0.000 NA
BRANCH  11  14
ATOM     13  C   UNL     1      -7.375  12.279  18.423  0.00  0.00    +0.000 C 
ATOM     14  N   UNL     1      -6.454  13.203  19.061  0.00  0.00    +0.000 N 
ATOM     15  C   UNL     1      -6.728  14.631  19.011  0.00  0.00    +0.000 C 
ENDBRANCH  11  14
ENDBRANCH   5  12
ENDBRANCH   1   8
BRANCH   3  16
ATOM     16  N   UNL     1       2.306   8.844  17.561  0.00  0.00    +0.000 NA
ATOM     17  C   UNL     1       2.387   7.571  17.766  0.00  0.00    +0.000 C 
BRANCH  17  18
ATOM     18  C   UNL     1       3.705   6.902  17.848  0.00  0.00    +0.000 A 
ATOM     19  C   UNL     1       3.977   6.005  18.890  0.00  0.00    +0.000 A 
ATOM     20  C   UNL     1       5.206   5.342  18.944  0.00  0.00    +0.000 A 
ATOM     21  C   UNL     1       6.164   5.585  17.952  0.00  0.00    +0.000 A 
ATOM     22  C   UNL     1       5.902   6.495  16.915  0.00  0.00    +0.000 A 
ATOM     23  C   UNL     1       4.667   7.154  16.866  0.00  0.00    +0.000 A 
BRANCH  21  24
ATOM     24  N   UNL     1       7.450   4.875  17.991  0.00  0.00    +0.000 N 
ATOM     25  O   UNL     1       8.032   4.797  19.082  0.00  0.00    +0.000 OA
ATOM     26  O   UNL     1       7.873   4.393  16.931  0.00  0.00    +0.000 OA
ENDBRANCH  21  24
ENDBRANCH  17  18
ENDBRANCH   3  16
TORSDOF 6
ENDMDL
MODEL 3
REMARK VINA RESULT:      -7.3      3.980     10.746
REMARK  Name = 
REMARK  8 active torsions:
REMARK  status: ('A' for Active; 'I' for Inactive)
REMARK    1  A    between atoms: C_1  and  N_2
REMARK    2  A    between atoms: N_2  and  C_3
REMARK    3  A    between atoms: N_2  and  N_4
REMARK    4  A    between atoms: N_5  and  C_6
REMARK    5  A    between atoms: C_9  and  C_10
REMARK    6  A    between atoms: N_12  and  N_13
REMARK    7  A    between atoms: C_14  and  C_15
REMARK    8  A    between atoms: C_18  and  N_19
REMARK                            x       y       z     vdW  Elec       q    Type
REMARK                         _______ _______ _______ _____ _____    ______ ____
ROOT
ATOM      1  C   UNL     1       2.469   6.404  19.358  0.00  0.00    +0.000 C 
ATOM      2  O   UNL     1       2.011   5.735  20.283  0.00  0.00    +0.000 OA
ATOM      3  N   UNL     1       2.211   7.765  19.191  0.00  0.00    +0.000 N 
ATOM      4  H   UNL     1       2.604   8.302  18.434  0.00  0.00    +0.000 HD
ENDROOT
BRANCH   1   8
ATOM      5  C   UNL     1       5.097   4.618  16.402  0.00  0.00    +0.000 A 
ATOM      6  C   UNL     1       5.056   5.997  16.622  0.00  0.00    +0.000 A 
ATOM      7  C   UNL     1       4.200   6.549  17.586  0.00  0.00    +0.000 A 
ATOM      8  C   UNL     1       3.355   5.733  18.357  0.00  0.00    +0.000 A 
ATOM      9  C   UNL     1       3.384   4.352  18.137  0.00  0.00    +0.000 A 
ATOM     10  C   UNL     1       4.241   3.808  17.167  0.00  0.00    +0.000 A 
BRANCH   5  12
ATOM     11  N   UNL     1       5.576   4.430  14.254  0.00  0.00    +0.000 NA
ATOM     12  N   UNL     1       5.960   4.122  15.400  0.00  0.00    +0.000 NA
BRANCH  11  14
ATOM     13  C   UNL     1       7.553   4.818  13.001  0.00  0.00    +0.000 C 
ATOM     14  N   UNL     1       6.392   3.982  13.248  0.00  0.00    +0.000 N 
ATOM     15  C   UNL     1       5.878   3.142  12.178  0.00  0.00    +0.000 C 
ENDBRANCH  11  14
ENDBRANCH   5  12
ENDBRANCH   1   8
BRANCH   3  16
ATOM     16  N   UNL     1       1.443   8.403  20.120  0.00  0.00    +0.000 NA
ATOM     17  C   UNL     1       0.863   9.496  19.752  0.00  0.00    +0.000 C 
BRANCH  17  18
ATOM     18  C   UNL     1       0.040  10.274  20.706  0.00  0.00    +0.000 A 
ATOM     19  C   UNL     1      -0.685  11.389  20.266  0.00  0.00    +0.000 A 
ATOM     20  C   UNL     1      -1.494  12.098  21.159  0.00  0.00    +0.000 A 
ATOM     21  C   UNL     1      -1.571  11.686  22.495  0.00  0.00    +0.000 A 
ATOM     22  C   UNL     1      -0.834  10.578  22.944  0.00  0.00    +0.000 A 
ATOM     23  C   UNL     1      -0.027   9.872  22.044  0.00  0.00    +0.000 A 
BRANCH  21  24
ATOM     24  N   UNL     1      -2.437  12.414  23.433  0.00  0.00    +0.000 N 
ATOM     25  O   UNL     1      -2.107  13.567  23.747  0.00  0.00    +0.000 OA
ATOM     26  O   UNL     1      -3.448  11.834  23.851  0.00  0.00    +0.000 OA
ENDBRANCH  21  24
ENDBRANCH  17  18
ENDBRANCH   3  16
TORSDOF 6
ENDMDL
MODEL 4
REMARK VINA RESULT:      -7.3      3.978     10.725
REMARK  Name = 
REMARK  8 active torsions:
REMARK  status: ('A' for Active; 'I' for Inactive)
REMARK    1  A    between atoms: C_1  and  N_2
REMARK    2  A    between atoms: N_2  and  C_3
REMARK    3  A    between atoms: N_2  and  N_4
REMARK    4  A    between atoms: N_5  and  C_6
REMARK    5  A    between atoms: C_9  and  C_10
REMARK    6  A    between atoms: N_12  and  N_13
REMARK    7  A    between atoms: C_14  and  C_15
REMARK    8  A    between atoms: C_18  and  N_19
REMARK                            x       y       z     vdW  Elec       q    Type
REMARK                         _______ _______ _______ _____ _____    ______ ____
ROOT
ATOM      1  C   UNL     1       2.418   6.494  19.491  0.00  0.00    +0.000 C 
ATOM      2  O   UNL     1       1.885   5.792  20.350  0.00  0.00    +0.000 OA
ATOM      3  N   UNL     1       2.211   7.870  19.385  0.00  0.00    +0.000 N 
ATOM      4  H   UNL     1       2.665   8.433  18.683  0.00  0.00    +0.000 HD
ENDROOT
BRANCH   1   8
ATOM      5  C   UNL     1       5.131   4.783  16.568  0.00  0.00    +0.000 A 
ATOM      6  C   UNL     1       4.890   6.157  16.641  0.00  0.00    +0.000 A 
ATOM      7  C   UNL     1       4.011   6.686  17.598  0.00  0.00    +0.000 A 
ATOM      8  C   UNL     1       3.343   5.849  18.509  0.00  0.00    +0.000 A 
ATOM      9  C   UNL     1       3.573   4.471  18.437  0.00  0.00    +0.000 A 
ATOM     10  C   UNL     1       4.452   3.950  17.473  0.00  0.00    +0.000 A 
BRANCH   5  12
ATOM     11  N   UNL     1       5.562   4.506  14.419  0.00  0.00    +0.000 NA
ATOM     12  N   UNL     1       6.007   4.306  15.568  0.00  0.00    +0.000 NA
BRANCH  11  14
ATOM     13  C   UNL     1       7.557   4.903  13.199  0.00  0.00    +0.000 C 
ATOM     14  N   UNL     1       6.386   4.073  13.414  0.00  0.00    +0.000 N 
ATOM     15  C   UNL     1       5.877   3.261  12.320  0.00  0.00    +0.000 C 
ENDBRANCH  11  14
ENDBRANCH   5  12
ENDBRANCH   1   8
BRANCH   3  16
ATOM     16  N   UNL     1       1.407   8.482  20.301  0.00  0.00    +0.000 NA
ATOM     17  C   UNL     1       0.722   9.499  19.894  0.00  0.00    +0.000 C 
BRANCH  17  18
ATOM     18  C   UNL     1      -0.149  10.246  20.830  0.00  0.00    +0.000 A 
ATOM     19  C   UNL     1      -0.206   9.884  22.182  0.00  0.00    +0.000 A 
ATOM     20  C   UNL     1      -0.997  10.614  23.073  0.00  0.00    +0.000 A 
ATOM     21  C   UNL     1      -1.734  11.708  22.602  0.00  0.00    +0.000 A 
ATOM     22  C   UNL     1      -1.692  12.066  21.245  0.00  0.00    +0.000 A 
ATOM     23  C   UNL     1      -0.896  11.330  20.358  0.00  0.00    +0.000 A 
BRANCH  21  24
ATOM     24  N   UNL     1      -2.550  12.494  23.538  0.00  0.00    +0.000 N 
ATOM     25  O   UNL     1      -3.597  11.983  23.960  0.00  0.00    +0.000 OA
ATOM     26  O   UNL     1      -2.139  13.620  23.853  0.00  0.00    +0.000 OA
ENDBRANCH  21  24
ENDBRANCH  17  18
ENDBRANCH   3  16
TORSDOF 6
ENDMDL
MODEL 5
REMARK VINA RESULT:      -7.2      3.579      3.994
REMARK  Name = 
REMARK  8 active torsions:
REMARK  status: ('A' for Active; 'I' for Inactive)
REMARK    1  A    between atoms: C_1  and  N_2
REMARK    2  A    between atoms: N_2  and  C_3
REMARK    3  A    between atoms: N_2  and  N_4
REMARK    4  A    between atoms: N_5  and  C_6
REMARK    5  A    between atoms: C_9  and  C_10
REMARK    6  A    between atoms: N_12  and  N_13
REMARK    7  A    between atoms: C_14  and  C_15
REMARK    8  A    between atoms: C_18  and  N_19
REMARK                            x       y       z     vdW  Elec       q    Type
REMARK                         _______ _______ _______ _____ _____    ______ ____
ROOT
ATOM      1  C   UNL     1       1.150   9.573  19.482  0.00  0.00    +0.000 C 
ATOM      2  O   UNL     1       1.338  10.313  18.517  0.00  0.00    +0.000 OA
ATOM      3  N   UNL     1       1.698   8.294  19.588  0.00  0.00    +0.000 N 
ATOM      4  H   UNL     1       1.544   7.704  20.391  0.00  0.00    +0.000 HD
ENDROOT
BRANCH   1   8
ATOM      5  C   UNL     1      -1.375  11.133  22.647  0.00  0.00    +0.000 A 
ATOM      6  C   UNL     1      -1.261  11.768  21.408  0.00  0.00    +0.000 A 
ATOM      7  C   UNL     1      -0.441  11.242  20.400  0.00  0.00    +0.000 A 
ATOM      8  C   UNL     1       0.295  10.062  20.607  0.00  0.00    +0.000 A 
ATOM      9  C   UNL     1       0.192   9.424  21.848  0.00  0.00    +0.000 A 
ATOM     10  C   UNL     1      -0.629   9.961  22.853  0.00  0.00    +0.000 A 
BRANCH   5  12
ATOM     11  N   UNL     1      -2.739  12.771  23.226  0.00  0.00    +0.000 NA
ATOM     12  N   UNL     1      -2.197  11.724  23.633  0.00  0.00    +0.000 NA
BRANCH  11  14
ATOM     13  C   UNL     1      -4.688  12.562  24.563  0.00  0.00    +0.000 C 
ATOM     14  N   UNL     1      -3.559  13.373  24.145  0.00  0.00    +0.000 N 
ATOM     15  C   UNL     1      -3.647  14.822  24.242  0.00  0.00    +0.000 C 
ENDBRANCH  11  14
ENDBRANCH   5  12
ENDBRANCH   1   8
BRANCH   3  16
ATOM     16  N   UNL     1       2.518   7.850  18.593  0.00  0.00    +0.000 NA
ATOM     17  C   UNL     1       2.922   6.625  18.668  0.00  0.00    +0.000 C 
BRANCH  17  18
ATOM     18  C   UNL     1       3.843   6.070  17.650  0.00  0.00    +0.000 A 
ATOM     19  C   UNL     1       3.871   4.691  17.401  0.00  0.00    +0.000 A 
ATOM     20  C   UNL     1       4.711   4.172  16.412  0.00  0.00    +0.000 A 
ATOM     21  C   UNL     1       5.526   5.041  15.676  0.00  0.00    +0.000 A 
ATOM     22  C   UNL     1       5.513   6.421  15.932  0.00  0.00    +0.000 A 
ATOM     23  C   UNL     1       4.667   6.935  16.923  0.00  0.00    +0.000 A 
BRANCH  21  24
ATOM     24  N   UNL     1       6.395   4.504  14.619  0.00  0.00    +0.000 N 
ATOM     25  O   UNL     1       5.947   3.591  13.912  0.00  0.00    +0.000 OA
ATOM     26  O   UNL     1       7.524   4.999  14.496  0.00  0.00    +0.000 OA
ENDBRANCH  21  24
ENDBRANCH  17  18
ENDBRANCH   3  16
TORSDOF 6
ENDMDL
MODEL 6
REMARK VINA RESULT:      -7.2      3.855     10.722
REMARK  Name = 
REMARK  8 active torsions:
REMARK  status: ('A' for Active; 'I' for Inactive)
REMARK    1  A    between atoms: C_1  and  N_2
REMARK    2  A    between atoms: N_2  and  C_3
REMARK    3  A    between atoms: N_2  and  N_4
REMARK    4  A    between atoms: N_5  and  C_6
REMARK    5  A    between atoms: C_9  and  C_10
REMARK    6  A    between atoms: N_12  and  N_13
REMARK    7  A    between atoms: C_14  and  C_15
REMARK    8  A    between atoms: C_18  and  N_19
REMARK                            x       y       z     vdW  Elec       q    Type
REMARK                         _______ _______ _______ _____ _____    ______ ____
ROOT
ATOM      1  C   UNL     1       2.854   6.734  18.826  0.00  0.00    +0.000 C 
ATOM      2  O   UNL     1       2.684   6.074  19.850  0.00  0.00    +0.000 OA
ATOM      3  N   UNL     1       2.297   7.998  18.623  0.00  0.00    +0.000 N 
ATOM      4  H   UNL     1       2.456   8.531  17.782  0.00  0.00    +0.000 HD
ENDROOT
BRANCH   1   8
ATOM      5  C   UNL     1       5.265   4.917  15.708  0.00  0.00    +0.000 A 
ATOM      6  C   UNL     1       4.398   4.167  16.508  0.00  0.00    +0.000 A 
ATOM      7  C   UNL     1       3.627   4.779  17.507  0.00  0.00    +0.000 A 
ATOM      8  C   UNL     1       3.705   6.164  17.737  0.00  0.00    +0.000 A 
ATOM      9  C   UNL     1       4.576   6.920  16.945  0.00  0.00    +0.000 A 
ATOM     10  C   UNL     1       5.347   6.299  15.950  0.00  0.00    +0.000 A 
BRANCH   5  12
ATOM     11  N   UNL     1       5.432   4.138  13.648  0.00  0.00    +0.000 NA
ATOM     12  N   UNL     1       6.035   4.242  14.735  0.00  0.00    +0.000 NA
BRANCH  11  14
ATOM     13  C   UNL     1       7.292   4.250  12.179  0.00  0.00    +0.000 C 
ATOM     14  N   UNL     1       6.148   3.502  12.667  0.00  0.00    +0.000 N 
ATOM     15  C   UNL     1       5.527   2.506  11.807  0.00  0.00    +0.000 C 
ENDBRANCH  11  14
ENDBRANCH   5  12
ENDBRANCH   1   8
BRANCH   3  16
ATOM     16  N   UNL     1       1.556   8.553  19.625  0.00  0.00    +0.000 NA
ATOM     17  C   UNL     1       0.853   9.595  19.326  0.00  0.00    +0.000 C 
BRANCH  17  18
ATOM     18  C   UNL     1       0.047  10.283  20.359  0.00  0.00    +0.000 A 
ATOM     19  C   UNL     1       0.089   9.850  21.691  0.00  0.00    +0.000 A 
ATOM     20  C   UNL     1      -0.641  10.526  22.674  0.00  0.00    +0.000 A 
ATOM     21  C   UNL     1      -1.416  11.636  22.315  0.00  0.00    +0.000 A 
ATOM     22  C   UNL     1      -1.473  12.064  20.979  0.00  0.00    +0.000 A 
ATOM     23  C   UNL     1      -0.739  11.383  20.000  0.00  0.00    +0.000 A 
BRANCH  21  24
ATOM     24  N   UNL     1      -2.167  12.363  23.347  0.00  0.00    +0.000 N 
ATOM     25  O   UNL     1      -1.734  13.468  23.705  0.00  0.00    +0.000 OA
ATOM     26  O   UNL     1      -3.192  11.831  23.795  0.00  0.00    +0.000 OA
ENDBRANCH  21  24
ENDBRANCH  17  18
ENDBRANCH   3  16
TORSDOF 6
ENDMDL
MODEL 7
REMARK VINA RESULT:      -7.1      0.781      1.717
REMARK  Name = 
REMARK  8 active torsions:
REMARK  status: ('A' for Active; 'I' for Inactive)
REMARK    1  A    between atoms: C_1  and  N_2
REMARK    2  A    between atoms: N_2  and  C_3
REMARK    3  A    between atoms: N_2  and  N_4
REMARK    4  A    between atoms: N_5  and  C_6
REMARK    5  A    between atoms: C_9  and  C_10
REMARK    6  A    between atoms: N_12  and  N_13
REMARK    7  A    between atoms: C_14  and  C_15
REMARK    8  A    between atoms: C_18  and  N_19
REMARK                            x       y       z     vdW  Elec       q    Type
REMARK                         _______ _______ _______ _____ _____    ______ ____
ROOT
ATOM      1  C   UNL     1       0.910   9.975  18.542  0.00  0.00    +0.000 C 
ATOM      2  O   UNL     1       1.816  10.656  18.063  0.00  0.00    +0.000 OA
ATOM      3  N   UNL     1       1.088   8.667  18.993  0.00  0.00    +0.000 N 
ATOM      4  H   UNL     1       0.338   8.125  19.395  0.00  0.00    +0.000 HD
ENDROOT
BRANCH   1   8
ATOM      5  C   UNL     1      -3.103  11.617  18.731  0.00  0.00    +0.000 A 
ATOM      6  C   UNL     1      -2.738  10.657  17.784  0.00  0.00    +0.000 A 
ATOM      7  C   UNL     1      -1.435  10.139  17.746  0.00  0.00    +0.000 A 
ATOM      8  C   UNL     1      -0.456  10.573  18.656  0.00  0.00    +0.000 A 
ATOM      9  C   UNL     1      -0.811  11.540  19.603  0.00  0.00    +0.000 A 
ATOM     10  C   UNL     1      -2.117  12.055  19.631  0.00  0.00    +0.000 A 
BRANCH   5  12
ATOM     11  N   UNL     1      -5.223  11.312  18.191  0.00  0.00    +0.000 NA
ATOM     12  N   UNL     1      -4.422  12.120  18.705  0.00  0.00    +0.000 NA
BRANCH  11  14
ATOM     13  C   UNL     1      -6.785  12.767  17.155  0.00  0.00    +0.000 C 
ATOM     14  N   UNL     1      -6.520  11.752  18.158  0.00  0.00    +0.000 N 
ATOM     15  C   UNL     1      -7.372  11.674  19.335  0.00  0.00    +0.000 C 
ENDBRANCH  11  14
ENDBRANCH   5  12
ENDBRANCH   1   8
BRANCH   3  16
ATOM     16  N   UNL     1       2.337   8.121  18.939  0.00  0.00    +0.000 NA
ATOM     17  C   UNL     1       2.514   7.141  18.117  0.00  0.00    +0.000 C 
BRANCH  17  18
ATOM     18  C   UNL     1       3.828   6.465  18.019  0.00  0.00    +0.000 A 
ATOM     19  C   UNL     1       4.591   6.572  16.848  0.00  0.00    +0.000 A 
ATOM     20  C   UNL     1       5.849   5.968  16.771  0.00  0.00    +0.000 A 
ATOM     21  C   UNL     1       6.338   5.253  17.871  0.00  0.00    +0.000 A 
ATOM     22  C   UNL     1       5.570   5.129  19.041  0.00  0.00    +0.000 A 
ATOM     23  C   UNL     1       4.311   5.739  19.112  0.00  0.00    +0.000 A 
BRANCH  21  24
ATOM     24  N   UNL     1       7.669   4.634  17.804  0.00  0.00    +0.000 N 
ATOM     25  O   UNL     1       8.338   4.591  18.846  0.00  0.00    +0.000 OA
ATOM     26  O   UNL     1       8.041   4.188  16.710  0.00  0.00    +0.000 OA
ENDBRANCH  21  24
ENDBRANCH  17  18
ENDBRANCH   3  16
TORSDOF 6
ENDMDL
MODEL 8
REMARK VINA RESULT:      -7.1      3.952     10.757
REMARK  Name = 
REMARK  8 active torsions:
REMARK  status: ('A' for Active; 'I' for Inactive)
REMARK    1  A    between atoms: C_1  and  N_2
REMARK    2  A    between atoms: N_2  and  C_3
REMARK    3  A    between atoms: N_2  and  N_4
REMARK    4  A    between atoms: N_5  and  C_6
REMARK    5  A    between atoms: C_9  and  C_10
REMARK    6  A    between atoms: N_12  and  N_13
REMARK    7  A    between atoms: C_14  and  C_15
REMARK    8  A    between atoms: C_18  and  N_19
REMARK                            x       y       z     vdW  Elec       q    Type
REMARK                         _______ _______ _______ _____ _____    ______ ____
ROOT
ATOM      1  C   UNL     1       2.923   6.692  18.755  0.00  0.00    +0.000 C 
ATOM      2  O   UNL     1       2.718   6.027  19.770  0.00  0.00    +0.000 OA
ATOM      3  N   UNL     1       2.434   7.986  18.573  0.00  0.00    +0.000 N 
ATOM      4  H   UNL     1       2.621   8.523  17.740  0.00  0.00    +0.000 HD
ENDROOT
BRANCH   1   8
ATOM      5  C   UNL     1       5.244   4.794  15.619  0.00  0.00    +0.000 A 
ATOM      6  C   UNL     1       4.431   4.061  16.487  0.00  0.00    +0.000 A 
ATOM      7  C   UNL     1       3.687   4.699  17.490  0.00  0.00    +0.000 A 
ATOM      8  C   UNL     1       3.741   6.093  17.657  0.00  0.00    +0.000 A 
ATOM      9  C   UNL     1       4.560   6.833  16.796  0.00  0.00    +0.000 A 
ATOM     10  C   UNL     1       5.304   6.186  15.797  0.00  0.00    +0.000 A 
BRANCH   5  12
ATOM     11  N   UNL     1       5.380   4.009  13.558  0.00  0.00    +0.000 NA
ATOM     12  N   UNL     1       5.989   4.094  14.644  0.00  0.00    +0.000 NA
BRANCH  11  14
ATOM     13  C   UNL     1       7.261   4.042  12.112  0.00  0.00    +0.000 C 
ATOM     14  N   UNL     1       6.072   3.350  12.576  0.00  0.00    +0.000 N 
ATOM     15  C   UNL     1       5.409   2.402  11.694  0.00  0.00    +0.000 C 
ENDBRANCH  11  14
ENDBRANCH   5  12
ENDBRANCH   1   8
BRANCH   3  16
ATOM     16  N   UNL     1       1.724   8.565  19.583  0.00  0.00    +0.000 NA
ATOM     17  C   UNL     1       0.999   9.590  19.279  0.00  0.00    +0.000 C 
BRANCH  17  18
ATOM     18  C   UNL     1       0.224  10.303  20.320  0.00  0.00    +0.000 A 
ATOM     19  C   UNL     1      -0.308  11.572  20.058  0.00  0.00    +0.000 A 
ATOM     20  C   UNL     1      -1.074  12.227  21.027  0.00  0.00    +0.000 A 
ATOM     21  C   UNL     1      -1.301  11.606  22.261  0.00  0.00    +0.000 A 
ATOM     22  C   UNL     1      -0.756  10.341  22.534  0.00  0.00    +0.000 A 
ATOM     23  C   UNL     1       0.008   9.689  21.558  0.00  0.00    +0.000 A 
BRANCH  21  24
ATOM     24  N   UNL     1      -2.124  12.280  23.275  0.00  0.00    +0.000 N 
ATOM     25  O   UNL     1      -3.139  11.694  23.676  0.00  0.00    +0.000 OA
ATOM     26  O   UNL     1      -1.750  13.393  23.672  0.00  0.00    +0.000 OA
ENDBRANCH  21  24
ENDBRANCH  17  18
ENDBRANCH   3  16
TORSDOF 6
ENDMDL
MODEL 9
REMARK VINA RESULT:      -7.1      0.687      1.524
REMARK  Name = 
REMARK  8 active torsions:
REMARK  status: ('A' for Active; 'I' for Inactive)
REMARK    1  A    between atoms: C_1  and  N_2
REMARK    2  A    between atoms: N_2  and  C_3
REMARK    3  A    between atoms: N_2  and  N_4
REMARK    4  A    between atoms: N_5  and  C_6
REMARK    5  A    between atoms: C_9  and  C_10
REMARK    6  A    between atoms: N_12  and  N_13
REMARK    7  A    between atoms: C_14  and  C_15
REMARK    8  A    between atoms: C_18  and  N_19
REMARK                            x       y       z     vdW  Elec       q    Type
REMARK                         _______ _______ _______ _____ _____    ______ ____
ROOT
ATOM      1  C   UNL     1       0.792   9.865  18.984  0.00  0.00    +0.000 C 
ATOM      2  O   UNL     1       1.296   9.434  20.021  0.00  0.00    +0.000 OA
ATOM      3  N   UNL     1       1.385   9.734  17.728  0.00  0.00    +0.000 N 
ATOM      4  H   UNL     1       0.953  10.083  16.886  0.00  0.00    +0.000 HD
ENDROOT
BRANCH   1   8
ATOM      5  C   UNL     1      -3.090  11.803  19.067  0.00  0.00    +0.000 A 
ATOM      6  C   UNL     1      -2.749  10.866  18.087  0.00  0.00    +0.000 A 
ATOM      7  C   UNL     1      -1.489  10.252  18.085  0.00  0.00    +0.000 A 
ATOM      8  C   UNL     1      -0.529  10.561  19.064  0.00  0.00    +0.000 A 
ATOM      9  C   UNL     1      -0.860  11.504  20.043  0.00  0.00    +0.000 A 
ATOM     10  C   UNL     1      -2.123  12.118  20.036  0.00  0.00    +0.000 A 
BRANCH   5  12
ATOM     11  N   UNL     1      -5.243  11.614  18.610  0.00  0.00    +0.000 NA
ATOM     12  N   UNL     1      -4.364  12.408  19.003  0.00  0.00    +0.000 NA
BRANCH  11  14
ATOM     13  C   UNL     1      -7.426  11.637  19.539  0.00  0.00    +0.000 C 
ATOM     14  N   UNL     1      -6.501  12.154  18.548  0.00  0.00    +0.000 N 
ATOM     15  C   UNL     1      -7.022  12.708  17.307  0.00  0.00    +0.000 C 
ENDBRANCH  11  14
ENDBRANCH   5  12
ENDBRANCH   1   8
BRANCH   3  16
ATOM     16  N   UNL     1       2.568   9.062  17.631  0.00  0.00    +0.000 NA
ATOM     17  C   UNL     1       2.510   7.771  17.619  0.00  0.00    +0.000 C 
BRANCH  17  18
ATOM     18  C   UNL     1       3.747   6.960  17.553  0.00  0.00    +0.000 A 
ATOM     19  C   UNL     1       4.547   6.987  16.404  0.00  0.00    +0.000 A 
ATOM     20  C   UNL     1       5.736   6.253  16.357  0.00  0.00    +0.000 A 
ATOM     21  C   UNL     1       6.117   5.489  17.467  0.00  0.00    +0.000 A 
ATOM     22  C   UNL     1       5.310   5.447  18.616  0.00  0.00    +0.000 A 
ATOM     23  C   UNL     1       4.122   6.186  18.656  0.00  0.00    +0.000 A 
BRANCH  21  24
ATOM     24  N   UNL     1       7.377   4.733  17.433  0.00  0.00    +0.000 N 
ATOM     25  O   UNL     1       7.904   4.441  18.515  0.00  0.00    +0.000 OA
ATOM     26  O   UNL     1       7.835   4.430  16.322  0.00  0.00    +0.000 OA
ENDBRANCH  21  24
ENDBRANCH  17  18
ENDBRANCH   3  16
TORSDOF 6
ENDMDL
