MODEL 1
REMARK VINA RESULT:      -6.6      0.000      0.000
REMARK  Name = 
REMARK  1 active torsions:
REMARK  status: ('A' for Active; 'I' for Inactive)
REMARK    1  A    between atoms: C_5  and  C_6
REMARK                            x       y       z     vdW  Elec       q    Type
REMARK                         _______ _______ _______ _____ _____    ______ ____
ROOT
ATOM      1  C   UNL     1       4.307   4.603  17.395  0.00  0.00    +0.000 C 
ATOM      2  C   UNL     1       3.732   3.169  17.467  0.00  0.00    +0.000 C 
ATOM      3  C   UNL     1       4.023   2.750  18.916  0.00  0.00    +0.000 C 
ATOM      4  C   UNL     1       3.121   3.513  19.887  0.00  0.00    +0.000 C 
ATOM      5  C   UNL     1       3.699   4.928  19.836  0.00  0.00    +0.000 C 
ATOM      6  C   UNL     1       4.856   4.790  18.834  0.00  0.00    +0.000 C 
ATOM      7  N   UNL     1       5.316   3.418  19.132  0.00  0.00    +0.000 NA
ATOM      8  H   UNL     1       5.595   3.341  20.112  0.00  0.00    +0.000 HD
ENDROOT
BRANCH   1  13
ATOM      9 CL   UNL     1       8.278   5.308  12.983  0.00  0.00    +0.000 Cl
ATOM     10  C   UNL     1       7.110   5.063  14.216  0.00  0.00    +0.000 A 
ATOM     11  C   UNL     1       6.042   4.205  14.022  0.00  0.00    +0.000 A 
ATOM     12  C   UNL     1       5.127   4.061  15.065  0.00  0.00    +0.000 A 
ATOM     13  C   UNL     1       5.304   4.768  16.262  0.00  0.00    +0.000 A 
ATOM     14  C   UNL     1       6.432   5.584  16.344  0.00  0.00    +0.000 A 
ATOM     15  N   UNL     1       7.332   5.757  15.346  0.00  0.00    +0.000 NA
ENDBRANCH   1  13
TORSDOF 1
ENDMDL
MODEL 2
REMARK VINA RESULT:      -6.6      3.193      5.447
REMARK  Name = 
REMARK  1 active torsions:
REMARK  status: ('A' for Active; 'I' for Inactive)
REMARK    1  A    between atoms: C_5  and  C_6
REMARK                            x       y       z     vdW  Elec       q    Type
REMARK                         _______ _______ _______ _____ _____    ______ ____
ROOT
ATOM      1  C   UNL     1       4.578   4.670  16.266  0.00  0.00    +0.000 C 
ATOM      2  C   UNL     1       5.434   5.936  16.502  0.00  0.00    +0.000 C 
ATOM      3  C   UNL     1       6.865   5.444  16.233  0.00  0.00    +0.000 C 
ATOM      4  C   UNL     1       7.071   5.183  14.740  0.00  0.00    +0.000 C 
ATOM      5  C   UNL     1       6.243   3.919  14.506  0.00  0.00    +0.000 C 
ATOM      6  C   UNL     1       5.664   3.625  15.899  0.00  0.00    +0.000 C 
ATOM      7  N   UNL     1       6.778   4.073  16.760  0.00  0.00    +0.000 NA
ATOM      8  H   UNL     1       7.630   3.554  16.539  0.00  0.00    +0.000 HD
ENDROOT
BRANCH   1  13
ATOM      9 CL   UNL     1       1.151   3.421  21.002  0.00  0.00    +0.000 Cl
ATOM     10  C   UNL     1       2.097   3.748  19.608  0.00  0.00    +0.000 A 
ATOM     11  C   UNL     1       1.783   3.176  18.387  0.00  0.00    +0.000 A 
ATOM     12  C   UNL     1       2.600   3.480  17.298  0.00  0.00    +0.000 A 
ATOM     13  C   UNL     1       3.696   4.340  17.457  0.00  0.00    +0.000 A 
ATOM     14  C   UNL     1       3.895   4.869  18.731  0.00  0.00    +0.000 A 
ATOM     15  N   UNL     1       3.129   4.585  19.812  0.00  0.00    +0.000 NA
ENDBRANCH   1  13
TORSDOF 1
ENDMDL
MODEL 3
REMARK VINA RESULT:      -6.6      1.747      2.317
REMARK  Name = 
REMARK  1 active torsions:
REMARK  status: ('A' for Active; 'I' for Inactive)
REMARK    1  A    between atoms: C_5  and  C_6
REMARK                            x       y       z     vdW  Elec       q    Type
REMARK                         _______ _______ _______ _____ _____    ______ ____
ROOT
ATOM      1  C   UNL     1       2.684   4.862  18.349  0.00  0.00    +0.000 C 
ATOM      2  C   UNL     1       1.790   3.618  18.143  0.00  0.00    +0.000 C 
ATOM      3  C   UNL     1       1.778   2.964  19.533  0.00  0.00    +0.000 C 
ATOM      4  C   UNL     1       0.954   3.799  20.513  0.00  0.00    +0.000 C 
ATOM      5  C   UNL     1       1.843   5.023  20.737  0.00  0.00    +0.000 C 
ATOM      6  C   UNL     1       3.062   4.729  19.848  0.00  0.00    +0.000 C 
ATOM      7  N   UNL     1       3.149   3.259  19.979  0.00  0.00    +0.000 NA
ATOM      8  H   UNL     1       3.268   2.996  20.959  0.00  0.00    +0.000 HD
ENDROOT
BRANCH   1  13
ATOM      9 CL   UNL     1       7.220   4.986  14.458  0.00  0.00    +0.000 Cl
ATOM     10  C   UNL     1       5.917   5.011  15.574  0.00  0.00    +0.000 A 
ATOM     11  C   UNL     1       5.427   6.208  16.067  0.00  0.00    +0.000 A 
ATOM     12  C   UNL     1       4.371   6.153  16.977  0.00  0.00    +0.000 A 
ATOM     13  C   UNL     1       3.836   4.915  17.362  0.00  0.00    +0.000 A 
ATOM     14  C   UNL     1       4.401   3.782  16.778  0.00  0.00    +0.000 A 
ATOM     15  N   UNL     1       5.435   3.800  15.903  0.00  0.00    +0.000 NA
ENDBRANCH   1  13
TORSDOF 1
ENDMDL
MODEL 4
REMARK VINA RESULT:      -6.6      1.668      1.992
REMARK  Name = 
REMARK  1 active torsions:
REMARK  status: ('A' for Active; 'I' for Inactive)
REMARK    1  A    between atoms: C_5  and  C_6
REMARK                            x       y       z     vdW  Elec       q    Type
REMARK                         _______ _______ _______ _____ _____    ______ ____
ROOT
ATOM      1  C   UNL     1       2.852   5.184  18.276  0.00  0.00    +0.000 C 
ATOM      2  C   UNL     1       1.694   4.231  17.904  0.00  0.00    +0.000 C 
ATOM      3  C   UNL     1       1.546   3.356  19.158  0.00  0.00    +0.000 C 
ATOM      4  C   UNL     1       0.947   4.164  20.310  0.00  0.00    +0.000 C 
ATOM      5  C   UNL     1       2.097   5.095  20.697  0.00  0.00    +0.000 C 
ATOM      6  C   UNL     1       3.205   4.700  19.707  0.00  0.00    +0.000 C 
ATOM      7  N   UNL     1       2.953   3.250  19.576  0.00  0.00    +0.000 NA
ATOM      8  H   UNL     1       3.019   2.793  20.488  0.00  0.00    +0.000 HD
ENDROOT
BRANCH   1  13
ATOM      9 CL   UNL     1       7.280   5.151  14.260  0.00  0.00    +0.000 Cl
ATOM     10  C   UNL     1       6.008   5.100  15.411  0.00  0.00    +0.000 A 
ATOM     11  C   UNL     1       5.427   3.898  15.775  0.00  0.00    +0.000 A 
ATOM     12  C   UNL     1       4.394   3.932  16.711  0.00  0.00    +0.000 A 
ATOM     13  C   UNL     1       3.975   5.155  17.255  0.00  0.00    +0.000 A 
ATOM     14  C   UNL     1       4.653   6.295  16.825  0.00  0.00    +0.000 A 
ATOM     15  N   UNL     1       5.652   6.297  15.909  0.00  0.00    +0.000 NA
ENDBRANCH   1  13
TORSDOF 1
ENDMDL
MODEL 5
REMARK VINA RESULT:      -6.5      2.754      3.240
REMARK  Name = 
REMARK  1 active torsions:
REMARK  status: ('A' for Active; 'I' for Inactive)
REMARK    1  A    between atoms: C_5  and  C_6
REMARK                            x       y       z     vdW  Elec       q    Type
REMARK                         _______ _______ _______ _____ _____    ______ ____
ROOT
ATOM      1  C   UNL     1       2.627   4.666  19.069  0.00  0.00    +0.000 C 
ATOM      2  C   UNL     1       1.811   4.097  17.886  0.00  0.00    +0.000 C 
ATOM      3  C   UNL     1       1.603   2.628  18.280  0.00  0.00    +0.000 C 
ATOM      4  C   UNL     1       0.613   2.518  19.441  0.00  0.00    +0.000 C 
ATOM      5  C   UNL     1       1.423   3.059  20.620  0.00  0.00    +0.000 C 
ATOM      6  C   UNL     1       2.772   3.415  19.975  0.00  0.00    +0.000 C 
ATOM      7  N   UNL     1       2.879   2.350  18.956  0.00  0.00    +0.000 NA
ATOM      8  H   UNL     1       2.853   1.429  19.400  0.00  0.00    +0.000 HD
ENDROOT
BRANCH   1  13
ATOM      9 CL   UNL     1       7.744   7.234  17.350  0.00  0.00    +0.000 Cl
ATOM     10  C   UNL     1       6.248   6.521  17.795  0.00  0.00    +0.000 A 
ATOM     11  C   UNL     1       5.096   6.776  17.071  0.00  0.00    +0.000 A 
ATOM     12  C   UNL     1       3.914   6.168  17.494  0.00  0.00    +0.000 A 
ATOM     13  C   UNL     1       3.916   5.328  18.617  0.00  0.00    +0.000 A 
ATOM     14  C   UNL     1       5.144   5.132  19.249  0.00  0.00    +0.000 A 
ATOM     15  N   UNL     1       6.306   5.717  18.871  0.00  0.00    +0.000 NA
ENDBRANCH   1  13
TORSDOF 1
ENDMDL
MODEL 6
REMARK VINA RESULT:      -6.5      3.202      5.562
REMARK  Name = 
REMARK  1 active torsions:
REMARK  status: ('A' for Active; 'I' for Inactive)
REMARK    1  A    between atoms: C_5  and  C_6
REMARK                            x       y       z     vdW  Elec       q    Type
REMARK                         _______ _______ _______ _____ _____    ______ ____
ROOT
ATOM      1  C   UNL     1       4.538   4.549  16.278  0.00  0.00    +0.000 C 
ATOM      2  C   UNL     1       5.309   5.876  16.470  0.00  0.00    +0.000 C 
ATOM      3  C   UNL     1       6.768   5.471  16.215  0.00  0.00    +0.000 C 
ATOM      4  C   UNL     1       6.992   5.174  14.732  0.00  0.00    +0.000 C 
ATOM      5  C   UNL     1       6.249   3.851  14.541  0.00  0.00    +0.000 C 
ATOM      6  C   UNL     1       5.690   3.566  15.944  0.00  0.00    +0.000 C 
ATOM      7  N   UNL     1       6.772   4.115  16.788  0.00  0.00    +0.000 NA
ATOM      8  H   UNL     1       7.657   3.646  16.582  0.00  0.00    +0.000 HD
ENDROOT
BRANCH   1  13
ATOM      9 CL   UNL     1       1.187   3.105  21.013  0.00  0.00    +0.000 Cl
ATOM     10  C   UNL     1       2.129   3.576  19.658  0.00  0.00    +0.000 A 
ATOM     11  C   UNL     1       2.042   4.859  19.146  0.00  0.00    +0.000 A 
ATOM     12  C   UNL     1       2.831   5.171  18.038  0.00  0.00    +0.000 A 
ATOM     13  C   UNL     1       3.679   4.202  17.481  0.00  0.00    +0.000 A 
ATOM     14  C   UNL     1       3.693   2.953  18.101  0.00  0.00    +0.000 A 
ATOM     15  N   UNL     1       2.930   2.615  19.169  0.00  0.00    +0.000 NA
ENDBRANCH   1  13
TORSDOF 1
ENDMDL
MODEL 7
REMARK VINA RESULT:      -6.5      1.761      2.661
REMARK  Name = 
REMARK  1 active torsions:
REMARK  status: ('A' for Active; 'I' for Inactive)
REMARK    1  A    between atoms: C_5  and  C_6
REMARK                            x       y       z     vdW  Elec       q    Type
REMARK                         _______ _______ _______ _____ _____    ______ ____
ROOT
ATOM      1  C   UNL     1       3.425   4.091  19.600  0.00  0.00    +0.000 C 
ATOM      2  C   UNL     1       1.965   4.402  19.199  0.00  0.00    +0.000 C 
ATOM      3  C   UNL     1       1.210   3.132  19.619  0.00  0.00    +0.000 C 
ATOM      4  C   UNL     1       1.117   3.041  21.143  0.00  0.00    +0.000 C 
ATOM      5  C   UNL     1       2.556   2.711  21.544  0.00  0.00    +0.000 C 
ATOM      6  C   UNL     1       3.287   2.664  20.192  0.00  0.00    +0.000 C 
ATOM      7  N   UNL     1       2.226   2.109  19.326  0.00  0.00    +0.000 NA
ATOM      8  H   UNL     1       1.922   1.197  19.674  0.00  0.00    +0.000 HD
ENDROOT
BRANCH   1  13
ATOM      9 CL   UNL     1       7.284   4.739  15.081  0.00  0.00    +0.000 Cl
ATOM     10  C   UNL     1       6.134   4.538  16.339  0.00  0.00    +0.000 A 
ATOM     11  C   UNL     1       4.811   4.249  16.051  0.00  0.00    +0.000 A 
ATOM     12  C   UNL     1       3.929   4.106  17.122  0.00  0.00    +0.000 A 
ATOM     13  C   UNL     1       4.389   4.252  18.439  0.00  0.00    +0.000 A 
ATOM     14  C   UNL     1       5.748   4.521  18.599  0.00  0.00    +0.000 A 
ATOM     15  N   UNL     1       6.628   4.678  17.581  0.00  0.00    +0.000 NA
ENDBRANCH   1  13
TORSDOF 1
ENDMDL
MODEL 8
REMARK VINA RESULT:      -6.4      1.158      1.678
REMARK  Name = 
REMARK  1 active torsions:
REMARK  status: ('A' for Active; 'I' for Inactive)
REMARK    1  A    between atoms: C_5  and  C_6
REMARK                            x       y       z     vdW  Elec       q    Type
REMARK                         _______ _______ _______ _____ _____    ______ ____
ROOT
ATOM      1  C   UNL     1       4.889   4.191  17.895  0.00  0.00    +0.000 C 
ATOM      2  C   UNL     1       5.126   5.269  18.977  0.00  0.00    +0.000 C 
ATOM      3  C   UNL     1       3.703   5.728  19.329  0.00  0.00    +0.000 C 
ATOM      4  C   UNL     1       2.964   4.640  20.108  0.00  0.00    +0.000 C 
ATOM      5  C   UNL     1       2.708   3.579  19.037  0.00  0.00    +0.000 C 
ATOM      6  C   UNL     1       3.342   4.199  17.782  0.00  0.00    +0.000 C 
ATOM      7  N   UNL     1       3.058   5.631  18.009  0.00  0.00    +0.000 NA
ATOM      8  H   UNL     1       2.051   5.785  18.094  0.00  0.00    +0.000 HD
ENDROOT
BRANCH   1  13
ATOM      9 CL   UNL     1       7.994   5.346  12.919  0.00  0.00    +0.000 Cl
ATOM     10  C   UNL     1       7.066   4.978  14.315  0.00  0.00    +0.000 A 
ATOM     11  C   UNL     1       5.930   4.193  14.226  0.00  0.00    +0.000 A 
ATOM     12  C   UNL     1       5.221   3.941  15.401  0.00  0.00    +0.000 A 
ATOM     13  C   UNL     1       5.663   4.473  16.620  0.00  0.00    +0.000 A 
ATOM     14  C   UNL     1       6.834   5.230  16.583  0.00  0.00    +0.000 A 
ATOM     15  N   UNL     1       7.539   5.504  15.459  0.00  0.00    +0.000 NA
ENDBRANCH   1  13
TORSDOF 1
ENDMDL
MODEL 9
REMARK VINA RESULT:      -6.4      1.849      2.873
REMARK  Name = 
REMARK  1 active torsions:
REMARK  status: ('A' for Active; 'I' for Inactive)
REMARK    1  A    between atoms: C_5  and  C_6
REMARK                            x       y       z     vdW  Elec       q    Type
REMARK                         _______ _______ _______ _____ _____    ______ ____
ROOT
ATOM      1  C   UNL     1       3.361   4.097  19.497  0.00  0.00    +0.000 C 
ATOM      2  C   UNL     1       1.899   4.291  19.033  0.00  0.00    +0.000 C 
ATOM      3  C   UNL     1       1.210   3.002  19.504  0.00  0.00    +0.000 C 
ATOM      4  C   UNL     1       1.071   2.994  21.027  0.00  0.00    +0.000 C 
ATOM      5  C   UNL     1       2.512   2.780  21.492  0.00  0.00    +0.000 C 
ATOM      6  C   UNL     1       3.291   2.701  20.170  0.00  0.00    +0.000 C 
ATOM      7  N   UNL     1       2.297   2.030  19.305  0.00  0.00    +0.000 NA
ATOM      8  H   UNL     1       2.038   1.123  19.698  0.00  0.00    +0.000 HD
ENDROOT
BRANCH   1  13
ATOM      9 CL   UNL     1       7.208   4.689  14.960  0.00  0.00    +0.000 Cl
ATOM     10  C   UNL     1       6.148   4.536  16.301  0.00  0.00    +0.000 A 
ATOM     11  C   UNL     1       6.608   4.712  17.594  0.00  0.00    +0.000 A 
ATOM     12  C   UNL     1       5.692   4.565  18.636  0.00  0.00    +0.000 A 
ATOM     13  C   UNL     1       4.354   4.251  18.359  0.00  0.00    +0.000 A 
ATOM     14  C   UNL     1       4.008   4.120  17.014  0.00  0.00    +0.000 A 
ATOM     15  N   UNL     1       4.875   4.244  15.981  0.00  0.00    +0.000 NA
ENDBRANCH   1  13
TORSDOF 1
ENDMDL
