MODEL 1
REMARK VINA RESULT:      -6.8      0.000      0.000
REMARK  Name = 
REMARK  5 active torsions:
REMARK  status: ('A' for Active; 'I' for Inactive)
REMARK    1  A    between atoms: N_1  and  S_2
REMARK    2  A    between atoms: S_2  and  C_5
REMARK    3  A    between atoms: C_8  and  N_9
REMARK    4  A    between atoms: C_13  and  C_14
REMARK    5  A    between atoms: C_21  and  C_22
REMARK                            x       y       z     vdW  Elec       q    Type
REMARK                         _______ _______ _______ _____ _____    ______ ____
ROOT
ATOM      1  N   UNL     1       0.329  11.487  19.916  0.00  0.00    +0.000 N 
ATOM      2  C   UNL     1       0.877  12.364  20.852  0.00  0.00    +0.000 C 
ATOM      3  O   UNL     1       2.044  12.437  21.224  0.00  0.00    +0.000 OA
ATOM      4  C   UNL     1      -0.218  13.254  21.372  0.00  0.00    +0.000 C 
ATOM      5  C   UNL     1      -1.419  12.929  20.481  0.00  0.00    +0.000 C 
ATOM      6  C   UNL     1      -1.128  11.490  20.034  0.00  0.00    +0.000 C 
ENDROOT
BRANCH   5   7
ATOM      7  C   UNL     1      -2.691  13.098  21.295  0.00  0.00    +0.000 C 
ATOM      8  O   UNL     1      -3.199  12.149  21.891  0.00  0.00    +0.000 OA
ATOM      9  N   UNL     1      -3.159  14.393  21.442  0.00  0.00    +0.000 N 
ATOM     10  C   UNL     1      -2.739  15.597  20.743  0.00  0.00    +0.000 C 
ATOM     11  C   UNL     1      -2.687  16.613  21.865  0.00  0.00    +0.000 C 
ATOM     12  C   UNL     1      -3.921  16.259  22.694  0.00  0.00    +0.000 C 
ATOM     13  C   UNL     1      -4.097  14.748  22.499  0.00  0.00    +0.000 C 
ENDBRANCH   5   7
BRANCH   6  14
ATOM     14  C   UNL     1      -1.820  11.127  18.733  0.00  0.00    +0.000 A 
ATOM     15  C   UNL     1      -1.760  11.982  17.617  0.00  0.00    +0.000 A 
ATOM     16  C   UNL     1      -2.333  11.612  16.402  0.00  0.00    +0.000 A 
ATOM     17  C   UNL     1      -2.987  10.388  16.292  0.00  0.00    +0.000 A 
ATOM     18 CL   UNL     1      -3.668   9.920  14.784  0.00  0.00    +0.000 Cl
ATOM     19  C   UNL     1      -3.080   9.538  17.392  0.00  0.00    +0.000 A 
ATOM     20  C   UNL     1      -2.498   9.905  18.609  0.00  0.00    +0.000 A 
ENDBRANCH   6  14
BRANCH   1  24
ATOM     21  C   UNL     1       2.204   7.901  18.802  0.00  0.00    +0.000 A 
ATOM     22  C   UNL     1       2.198   8.969  17.904  0.00  0.00    +0.000 A 
ATOM     23  C   UNL     1       1.618  10.184  18.285  0.00  0.00    +0.000 A 
ATOM     24  C   UNL     1       1.039  10.318  19.552  0.00  0.00    +0.000 A 
ATOM     25  C   UNL     1       1.048   9.239  20.443  0.00  0.00    +0.000 A 
ATOM     26  C   UNL     1       1.628   8.027  20.070  0.00  0.00    +0.000 A 
BRANCH  21  27
ATOM     27  S   UNL     1       2.926   6.353  18.352  0.00  0.00    +0.000 S 
ATOM     28  O   UNL     1       4.086   6.581  17.524  0.00  0.00    +0.000 OA
ATOM     29  O   UNL     1       1.878   5.428  17.987  0.00  0.00    +0.000 OA
BRANCH  27  30
ATOM     30  N   UNL     1       3.499   5.834  19.841  0.00  0.00    +0.000 NA
ATOM     31  H   UNL     1       3.975   4.938  19.732  0.00  0.00    +0.000 HD
ATOM     32  H   UNL     1       2.751   5.830  20.533  0.00  0.00    +0.000 HD
ENDBRANCH  27  30
ENDBRANCH  21  27
ENDBRANCH   1  24
TORSDOF 5
ENDMDL
MODEL 2
REMARK VINA RESULT:      -6.7      3.101      7.585
REMARK  Name = 
REMARK  5 active torsions:
REMARK  status: ('A' for Active; 'I' for Inactive)
REMARK    1  A    between atoms: N_1  and  S_2
REMARK    2  A    between atoms: S_2  and  C_5
REMARK    3  A    between atoms: C_8  and  N_9
REMARK    4  A    between atoms: C_13  and  C_14
REMARK    5  A    between atoms: C_21  and  C_22
REMARK                            x       y       z     vdW  Elec       q    Type
REMARK                         _______ _______ _______ _____ _____    ______ ____
ROOT
ATOM      1  N   UNL     1       0.198  10.242  21.046  0.00  0.00    +0.000 N 
ATOM      2  C   UNL     1       1.080   9.417  21.743  0.00  0.00    +0.000 C 
ATOM      3  O   UNL     1       1.298   9.394  22.950  0.00  0.00    +0.000 OA
ATOM      4  C   UNL     1       1.768   8.512  20.758  0.00  0.00    +0.000 C 
ATOM      5  C   UNL     1       1.034   8.767  19.439  0.00  0.00    +0.000 C 
ATOM      6  C   UNL     1       0.507  10.198  19.618  0.00  0.00    +0.000 C 
ENDROOT
BRANCH   5   7
ATOM      7  C   UNL     1       2.013   8.587  18.291  0.00  0.00    +0.000 C 
ATOM      8  O   UNL     1       2.314   9.526  17.556  0.00  0.00    +0.000 OA
ATOM      9  N   UNL     1       2.645   7.358  18.210  0.00  0.00    +0.000 N 
ATOM     10  C   UNL     1       2.345   6.131  18.929  0.00  0.00    +0.000 C 
ATOM     11  C   UNL     1       3.726   5.632  19.299  0.00  0.00    +0.000 C 
ATOM     12  C   UNL     1       4.539   5.938  18.041  0.00  0.00    +0.000 C 
ATOM     13  C   UNL     1       3.871   7.182  17.442  0.00  0.00    +0.000 C 
ENDBRANCH   5   7
BRANCH   6  14
ATOM     14  C   UNL     1      -0.702  10.492  18.749  0.00  0.00    +0.000 A 
ATOM     15  C   UNL     1      -1.674   9.506  18.503  0.00  0.00    +0.000 A 
ATOM     16  C   UNL     1      -2.821   9.800  17.766  0.00  0.00    +0.000 A 
ATOM     17  C   UNL     1      -3.000  11.082  17.255  0.00  0.00    +0.000 A 
ATOM     18 CL   UNL     1      -4.428  11.453  16.372  0.00  0.00    +0.000 Cl
ATOM     19  C   UNL     1      -2.037  12.066  17.465  0.00  0.00    +0.000 A 
ATOM     20  C   UNL     1      -0.891  11.774  18.211  0.00  0.00    +0.000 A 
ENDBRANCH   6  14
BRANCH   1  24
ATOM     21  C   UNL     1      -1.149  13.650  23.093  0.00  0.00    +0.000 A 
ATOM     22  C   UNL     1      -0.080  13.772  22.203  0.00  0.00    +0.000 A 
ATOM     23  C   UNL     1       0.344  12.652  21.481  0.00  0.00    +0.000 A 
ATOM     24  C   UNL     1      -0.292  11.419  21.660  0.00  0.00    +0.000 A 
ATOM     25  C   UNL     1      -1.361  11.307  22.557  0.00  0.00    +0.000 A 
ATOM     26  C   UNL     1      -1.791  12.421  23.277  0.00  0.00    +0.000 A 
BRANCH  21  27
ATOM     27  S   UNL     1      -1.709  15.043  24.022  0.00  0.00    +0.000 S 
ATOM     28  O   UNL     1      -2.166  16.076  23.122  0.00  0.00    +0.000 OA
ATOM     29  O   UNL     1      -0.778  15.303  25.097  0.00  0.00    +0.000 OA
BRANCH  27  30
ATOM     30  N   UNL     1      -3.080  14.403  24.746  0.00  0.00    +0.000 NA
ATOM     31  H   UNL     1      -3.480  13.682  24.146  0.00  0.00    +0.000 HD
ATOM     32  H   UNL     1      -3.731  15.144  25.004  0.00  0.00    +0.000 HD
ENDBRANCH  27  30
ENDBRANCH  21  27
ENDBRANCH   1  24
TORSDOF 5
ENDMDL
MODEL 3
REMARK VINA RESULT:      -6.7      0.370      1.303
REMARK  Name = 
REMARK  5 active torsions:
REMARK  status: ('A' for Active; 'I' for Inactive)
REMARK    1  A    between atoms: N_1  and  S_2
REMARK    2  A    between atoms: S_2  and  C_5
REMARK    3  A    between atoms: C_8  and  N_9
REMARK    4  A    between atoms: C_13  and  C_14
REMARK    5  A    between atoms: C_21  and  C_22
REMARK                            x       y       z     vdW  Elec       q    Type
REMARK                         _______ _______ _______ _____ _____    ______ ____
ROOT
ATOM      1  N   UNL     1       0.285  11.172  19.796  0.00  0.00    +0.000 N 
ATOM      2  C   UNL     1       0.872  12.016  20.739  0.00  0.00    +0.000 C 
ATOM      3  O   UNL     1       2.023  11.988  21.163  0.00  0.00    +0.000 OA
ATOM      4  C   UNL     1      -0.156  13.015  21.193  0.00  0.00    +0.000 C 
ATOM      5  C   UNL     1      -1.344  12.783  20.255  0.00  0.00    +0.000 C 
ATOM      6  C   UNL     1      -1.169  11.313  19.848  0.00  0.00    +0.000 C 
ENDROOT
BRANCH   5   7
ATOM      7  C   UNL     1      -2.628  13.088  21.007  0.00  0.00    +0.000 C 
ATOM      8  O   UNL     1      -3.297  12.191  21.517  0.00  0.00    +0.000 OA
ATOM      9  N   UNL     1      -2.922  14.426  21.203  0.00  0.00    +0.000 N 
ATOM     10  C   UNL     1      -2.298  15.593  20.600  0.00  0.00    +0.000 C 
ATOM     11  C   UNL     1      -2.177  16.534  21.780  0.00  0.00    +0.000 C 
ATOM     12  C   UNL     1      -3.497  16.316  22.519  0.00  0.00    +0.000 C 
ATOM     13  C   UNL     1      -3.866  14.856  22.226  0.00  0.00    +0.000 C 
ENDBRANCH   5   7
BRANCH   6  14
ATOM     14  C   UNL     1      -1.835  10.986  18.524  0.00  0.00    +0.000 A 
ATOM     15  C   UNL     1      -2.580   9.805  18.360  0.00  0.00    +0.000 A 
ATOM     16  C   UNL     1      -3.252   9.543  17.166  0.00  0.00    +0.000 A 
ATOM     17  C   UNL     1      -3.172  10.454  16.117  0.00  0.00    +0.000 A 
ATOM     18 CL   UNL     1      -4.024  10.145  14.656  0.00  0.00    +0.000 Cl
ATOM     19  C   UNL     1      -2.417  11.618  16.250  0.00  0.00    +0.000 A 
ATOM     20  C   UNL     1      -1.751  11.885  17.449  0.00  0.00    +0.000 A 
ENDBRANCH   6  14
BRANCH   1  24
ATOM     21  C   UNL     1       2.335   7.624  18.890  0.00  0.00    +0.000 A 
ATOM     22  C   UNL     1       1.781   7.780  20.161  0.00  0.00    +0.000 A 
ATOM     23  C   UNL     1       1.055   8.938  20.457  0.00  0.00    +0.000 A 
ATOM     24  C   UNL     1       0.898   9.935  19.487  0.00  0.00    +0.000 A 
ATOM     25  C   UNL     1       1.460   9.768  18.216  0.00  0.00    +0.000 A 
ATOM     26  C   UNL     1       2.182   8.615  17.915  0.00  0.00    +0.000 A 
BRANCH  21  27
ATOM     27  S   UNL     1       3.259   6.174  18.485  0.00  0.00    +0.000 S 
ATOM     28  O   UNL     1       4.517   6.552  17.884  0.00  0.00    +0.000 OA
ATOM     29  O   UNL     1       2.376   5.197  17.892  0.00  0.00    +0.000 OA
BRANCH  27  30
ATOM     30  N   UNL     1       3.620   5.598  20.019  0.00  0.00    +0.000 NA
ATOM     31  H   UNL     1       4.020   6.348  20.582  0.00  0.00    +0.000 HD
ATOM     32  H   UNL     1       4.198   4.761  19.962  0.00  0.00    +0.000 HD
ENDBRANCH  27  30
ENDBRANCH  21  27
ENDBRANCH   1  24
TORSDOF 5
ENDMDL
MODEL 4
REMARK VINA RESULT:      -6.7      3.141      7.527
REMARK  Name = 
REMARK  5 active torsions:
REMARK  status: ('A' for Active; 'I' for Inactive)
REMARK    1  A    between atoms: N_1  and  S_2
REMARK    2  A    between atoms: S_2  and  C_5
REMARK    3  A    between atoms: C_8  and  N_9
REMARK    4  A    between atoms: C_13  and  C_14
REMARK    5  A    between atoms: C_21  and  C_22
REMARK                            x       y       z     vdW  Elec       q    Type
REMARK                         _______ _______ _______ _____ _____    ______ ____
ROOT
ATOM      1  N   UNL     1       0.127  10.307  21.121  0.00  0.00    +0.000 N 
ATOM      2  C   UNL     1       1.034   9.505  21.814  0.00  0.00    +0.000 C 
ATOM      3  O   UNL     1       1.257   9.487  23.020  0.00  0.00    +0.000 OA
ATOM      4  C   UNL     1       1.743   8.620  20.825  0.00  0.00    +0.000 C 
ATOM      5  C   UNL     1       0.996   8.856  19.510  0.00  0.00    +0.000 C 
ATOM      6  C   UNL     1       0.432  10.272  19.692  0.00  0.00    +0.000 C 
ENDROOT
BRANCH   5   7
ATOM      7  C   UNL     1       1.975   8.704  18.358  0.00  0.00    +0.000 C 
ATOM      8  O   UNL     1       2.287   9.663  17.654  0.00  0.00    +0.000 OA
ATOM      9  N   UNL     1       2.596   7.472  18.238  0.00  0.00    +0.000 N 
ATOM     10  C   UNL     1       2.283   6.225  18.917  0.00  0.00    +0.000 C 
ATOM     11  C   UNL     1       3.659   5.702  19.272  0.00  0.00    +0.000 C 
ATOM     12  C   UNL     1       4.476   6.040  18.026  0.00  0.00    +0.000 C 
ATOM     13  C   UNL     1       3.821   7.309  17.466  0.00  0.00    +0.000 C 
ENDBRANCH   5   7
BRANCH   6  14
ATOM     14  C   UNL     1      -0.789  10.534  18.828  0.00  0.00    +0.000 A 
ATOM     15  C   UNL     1      -0.985  11.782  18.210  0.00  0.00    +0.000 A 
ATOM     16  C   UNL     1      -2.067  11.996  17.358  0.00  0.00    +0.000 A 
ATOM     17  C   UNL     1      -2.976  10.967  17.128  0.00  0.00    +0.000 A 
ATOM     18 CL   UNL     1      -4.294  11.223  16.054  0.00  0.00    +0.000 Cl
ATOM     19  C   UNL     1      -2.815   9.731  17.751  0.00  0.00    +0.000 A 
ATOM     20  C   UNL     1      -1.724   9.514  18.598  0.00  0.00    +0.000 A 
ENDBRANCH   6  14
BRANCH   1  24
ATOM     21  C   UNL     1      -1.313  13.669  23.179  0.00  0.00    +0.000 A 
ATOM     22  C   UNL     1      -0.223  13.817  22.320  0.00  0.00    +0.000 A 
ATOM     23  C   UNL     1       0.234  12.712  21.593  0.00  0.00    +0.000 A 
ATOM     24  C   UNL     1      -0.393  11.469  21.738  0.00  0.00    +0.000 A 
ATOM     25  C   UNL     1      -1.484  11.333  22.605  0.00  0.00    +0.000 A 
ATOM     26  C   UNL     1      -1.945  12.431  23.329  0.00  0.00    +0.000 A 
BRANCH  21  27
ATOM     27  S   UNL     1      -1.913  15.044  24.112  0.00  0.00    +0.000 S 
ATOM     28  O   UNL     1      -2.922  14.595  25.043  0.00  0.00    +0.000 OA
ATOM     29  O   UNL     1      -2.114  16.168  23.227  0.00  0.00    +0.000 OA
BRANCH  27  30
ATOM     30  N   UNL     1      -0.555  15.415  25.025  0.00  0.00    +0.000 NA
ATOM     31  H   UNL     1      -0.670  15.057  25.973  0.00  0.00    +0.000 HD
ATOM     32  H   UNL     1      -0.348  16.411  24.974  0.00  0.00    +0.000 HD
ENDBRANCH  27  30
ENDBRANCH  21  27
ENDBRANCH   1  24
TORSDOF 5
ENDMDL
MODEL 5
REMARK VINA RESULT:      -6.6      0.666      1.202
REMARK  Name = 
REMARK  5 active torsions:
REMARK  status: ('A' for Active; 'I' for Inactive)
REMARK    1  A    between atoms: N_1  and  S_2
REMARK    2  A    between atoms: S_2  and  C_5
REMARK    3  A    between atoms: C_8  and  N_9
REMARK    4  A    between atoms: C_13  and  C_14
REMARK    5  A    between atoms: C_21  and  C_22
REMARK                            x       y       z     vdW  Elec       q    Type
REMARK                         _______ _______ _______ _____ _____    ______ ____
ROOT
ATOM      1  N   UNL     1       0.316  11.438  19.852  0.00  0.00    +0.000 N 
ATOM      2  C   UNL     1       0.837  12.337  20.782  0.00  0.00    +0.000 C 
ATOM      3  O   UNL     1       1.989  12.409  21.198  0.00  0.00    +0.000 OA
ATOM      4  C   UNL     1      -0.266  13.255  21.231  0.00  0.00    +0.000 C 
ATOM      5  C   UNL     1      -1.436  12.916  20.303  0.00  0.00    +0.000 C 
ATOM      6  C   UNL     1      -1.145  11.460  19.912  0.00  0.00    +0.000 C 
ENDROOT
BRANCH   5   7
ATOM      7  C   UNL     1      -2.737  13.124  21.060  0.00  0.00    +0.000 C 
ATOM      8  O   UNL     1      -3.343  12.178  21.561  0.00  0.00    +0.000 OA
ATOM      9  N   UNL     1      -3.120  14.437  21.273  0.00  0.00    +0.000 N 
ATOM     10  C   UNL     1      -2.578  15.650  20.683  0.00  0.00    +0.000 C 
ATOM     11  C   UNL     1      -2.518  16.584  21.874  0.00  0.00    +0.000 C 
ATOM     12  C   UNL     1      -3.819  16.268  22.611  0.00  0.00    +0.000 C 
ATOM     13  C   UNL     1      -4.089  14.790  22.302  0.00  0.00    +0.000 C 
ENDBRANCH   5   7
BRANCH   6  14
ATOM     14  C   UNL     1      -1.789  11.065  18.596  0.00  0.00    +0.000 A 
ATOM     15  C   UNL     1      -2.498   9.856  18.471  0.00  0.00    +0.000 A 
ATOM     16  C   UNL     1      -3.151   9.530  17.283  0.00  0.00    +0.000 A 
ATOM     17  C   UNL     1      -3.090  10.404  16.201  0.00  0.00    +0.000 A 
ATOM     18 CL   UNL     1      -3.920  10.015  14.747  0.00  0.00    +0.000 Cl
ATOM     19  C   UNL     1      -2.372  11.594  16.296  0.00  0.00    +0.000 A 
ATOM     20  C   UNL     1      -1.724  11.925  17.490  0.00  0.00    +0.000 A 
ENDBRANCH   6  14
BRANCH   1  24
ATOM     21  C   UNL     1       2.189   7.794  18.940  0.00  0.00    +0.000 A 
ATOM     22  C   UNL     1       2.167   8.804  17.977  0.00  0.00    +0.000 A 
ATOM     23  C   UNL     1       1.588  10.038  18.289  0.00  0.00    +0.000 A 
ATOM     24  C   UNL     1       1.025  10.251  19.553  0.00  0.00    +0.000 A 
ATOM     25  C   UNL     1       1.050   9.229  20.510  0.00  0.00    +0.000 A 
ATOM     26  C   UNL     1       1.629   7.998  20.206  0.00  0.00    +0.000 A 
BRANCH  21  27
ATOM     27  S   UNL     1       2.910   6.223  18.578  0.00  0.00    +0.000 S 
ATOM     28  O   UNL     1       1.949   5.394  17.891  0.00  0.00    +0.000 OA
ATOM     29  O   UNL     1       3.652   5.764  19.730  0.00  0.00    +0.000 OA
BRANCH  27  30
ATOM     30  N   UNL     1       4.059   6.665  17.438  0.00  0.00    +0.000 NA
ATOM     31  H   UNL     1       4.819   5.985  17.435  0.00  0.00    +0.000 HD
ATOM     32  H   UNL     1       4.358   7.629  17.583  0.00  0.00    +0.000 HD
ENDBRANCH  27  30
ENDBRANCH  21  27
ENDBRANCH   1  24
TORSDOF 5
ENDMDL
MODEL 6
REMARK VINA RESULT:      -6.5      3.089      7.628
REMARK  Name = 
REMARK  5 active torsions:
REMARK  status: ('A' for Active; 'I' for Inactive)
REMARK    1  A    between atoms: N_1  and  S_2
REMARK    2  A    between atoms: S_2  and  C_5
REMARK    3  A    between atoms: C_8  and  N_9
REMARK    4  A    between atoms: C_13  and  C_14
REMARK    5  A    between atoms: C_21  and  C_22
REMARK                            x       y       z     vdW  Elec       q    Type
REMARK                         _______ _______ _______ _____ _____    ______ ____
ROOT
ATOM      1  N   UNL     1       0.300  10.179  21.117  0.00  0.00    +0.000 N 
ATOM      2  C   UNL     1       1.174   9.317  21.779  0.00  0.00    +0.000 C 
ATOM      3  O   UNL     1       1.410   9.260  22.982  0.00  0.00    +0.000 OA
ATOM      4  C   UNL     1       1.827   8.422  20.762  0.00  0.00    +0.000 C 
ATOM      5  C   UNL     1       1.078   8.726  19.461  0.00  0.00    +0.000 C 
ATOM      6  C   UNL     1       0.586  10.163  19.683  0.00  0.00    +0.000 C 
ENDROOT
BRANCH   5   7
ATOM      7  C   UNL     1       2.036   8.553  18.294  0.00  0.00    +0.000 C 
ATOM      8  O   UNL     1       2.317   9.495  17.554  0.00  0.00    +0.000 OA
ATOM      9  N   UNL     1       2.674   7.328  18.200  0.00  0.00    +0.000 N 
ATOM     10  C   UNL     1       2.395   6.098  18.923  0.00  0.00    +0.000 C 
ATOM     11  C   UNL     1       3.787   5.608  19.265  0.00  0.00    +0.000 C 
ATOM     12  C   UNL     1       4.572   5.920  17.991  0.00  0.00    +0.000 C 
ATOM     13  C   UNL     1       3.885   7.160  17.407  0.00  0.00    +0.000 C 
ENDBRANCH   5   7
BRANCH   6  14
ATOM     14  C   UNL     1      -0.630  10.504  18.841  0.00  0.00    +0.000 A 
ATOM     15  C   UNL     1      -1.623   9.544  18.580  0.00  0.00    +0.000 A 
ATOM     16  C   UNL     1      -2.774   9.880  17.869  0.00  0.00    +0.000 A 
ATOM     17  C   UNL     1      -2.937  11.180  17.398  0.00  0.00    +0.000 A 
ATOM     18 CL   UNL     1      -4.370  11.602  16.547  0.00  0.00    +0.000 Cl
ATOM     19  C   UNL     1      -1.953  12.140  17.623  0.00  0.00    +0.000 A 
ATOM     20  C   UNL     1      -0.802  11.805  18.343  0.00  0.00    +0.000 A 
ENDBRANCH   6  14
BRANCH   1  24
ATOM     21  C   UNL     1      -1.151  13.732  22.815  0.00  0.00    +0.000 A 
ATOM     22  C   UNL     1      -1.798  12.530  23.104  0.00  0.00    +0.000 A 
ATOM     23  C   UNL     1      -1.293  11.334  22.582  0.00  0.00    +0.000 A 
ATOM     24  C   UNL     1      -0.155  11.350  21.767  0.00  0.00    +0.000 A 
ATOM     25  C   UNL     1       0.484  12.562  21.481  0.00  0.00    +0.000 A 
ATOM     26  C   UNL     1      -0.013  13.756  22.001  0.00  0.00    +0.000 A 
BRANCH  21  27
ATOM     27  S   UNL     1      -1.764  15.259  23.457  0.00  0.00    +0.000 S 
ATOM     28  O   UNL     1      -3.151  15.108  23.828  0.00  0.00    +0.000 OA
ATOM     29  O   UNL     1      -1.293  16.346  22.629  0.00  0.00    +0.000 OA
BRANCH  27  30
ATOM     30  N   UNL     1      -0.897  15.364  24.889  0.00  0.00    +0.000 NA
ATOM     31  H   UNL     1      -0.806  14.436  25.304  0.00  0.00    +0.000 HD
ATOM     32  H   UNL     1      -1.306  16.063  25.508  0.00  0.00    +0.000 HD
ENDBRANCH  27  30
ENDBRANCH  21  27
ENDBRANCH   1  24
TORSDOF 5
ENDMDL
MODEL 7
REMARK VINA RESULT:      -6.4      3.055      7.574
REMARK  Name = 
REMARK  5 active torsions:
REMARK  status: ('A' for Active; 'I' for Inactive)
REMARK    1  A    between atoms: N_1  and  S_2
REMARK    2  A    between atoms: S_2  and  C_5
REMARK    3  A    between atoms: C_8  and  N_9
REMARK    4  A    between atoms: C_13  and  C_14
REMARK    5  A    between atoms: C_21  and  C_22
REMARK                            x       y       z     vdW  Elec       q    Type
REMARK                         _______ _______ _______ _____ _____    ______ ____
ROOT
ATOM      1  N   UNL     1       0.217  10.224  21.181  0.00  0.00    +0.000 N 
ATOM      2  C   UNL     1       1.117   9.384  21.836  0.00  0.00    +0.000 C 
ATOM      3  O   UNL     1       1.357   9.326  23.037  0.00  0.00    +0.000 OA
ATOM      4  C   UNL     1       1.792   8.514  20.811  0.00  0.00    +0.000 C 
ATOM      5  C   UNL     1       1.032   8.804  19.515  0.00  0.00    +0.000 C 
ATOM      6  C   UNL     1       0.500  10.225  19.747  0.00  0.00    +0.000 C 
ENDROOT
BRANCH   5   7
ATOM      7  C   UNL     1       1.991   8.666  18.344  0.00  0.00    +0.000 C 
ATOM      8  O   UNL     1       2.279   9.631  17.638  0.00  0.00    +0.000 OA
ATOM      9  N   UNL     1       2.622   7.441  18.209  0.00  0.00    +0.000 N 
ATOM     10  C   UNL     1       2.335   6.189  18.889  0.00  0.00    +0.000 C 
ATOM     11  C   UNL     1       3.723   5.679  19.217  0.00  0.00    +0.000 C 
ATOM     12  C   UNL     1       4.513   6.030  17.956  0.00  0.00    +0.000 C 
ATOM     13  C   UNL     1       3.834   7.293  17.414  0.00  0.00    +0.000 C 
ENDBRANCH   5   7
BRANCH   6  14
ATOM     14  C   UNL     1      -0.727  10.537  18.909  0.00  0.00    +0.000 A 
ATOM     15  C   UNL     1      -0.892  11.798  18.308  0.00  0.00    +0.000 A 
ATOM     16  C   UNL     1      -1.983  12.058  17.480  0.00  0.00    +0.000 A 
ATOM     17  C   UNL     1      -2.930  11.062  17.256  0.00  0.00    +0.000 A 
ATOM     18 CL   UNL     1      -4.259  11.374  16.211  0.00  0.00    +0.000 Cl
ATOM     19  C   UNL     1      -2.799   9.815  17.863  0.00  0.00    +0.000 A 
ATOM     20  C   UNL     1      -1.701   9.552  18.687  0.00  0.00    +0.000 A 
ENDBRANCH   6  14
BRANCH   1  24
ATOM     21  C   UNL     1      -1.331  13.724  22.905  0.00  0.00    +0.000 A 
ATOM     22  C   UNL     1      -1.939  12.501  23.192  0.00  0.00    +0.000 A 
ATOM     23  C   UNL     1      -1.401  11.324  22.661  0.00  0.00    +0.000 A 
ATOM     24  C   UNL     1      -0.270  11.378  21.839  0.00  0.00    +0.000 A 
ATOM     25  C   UNL     1       0.330  12.611  21.556  0.00  0.00    +0.000 A 
ATOM     26  C   UNL     1      -0.200  13.786  22.085  0.00  0.00    +0.000 A 
BRANCH  21  27
ATOM     27  S   UNL     1      -1.986  15.228  23.558  0.00  0.00    +0.000 S 
ATOM     28  O   UNL     1      -2.543  16.021  22.487  0.00  0.00    +0.000 OA
ATOM     29  O   UNL     1      -1.061  15.769  24.527  0.00  0.00    +0.000 OA
BRANCH  27  30
ATOM     30  N   UNL     1      -3.286  14.642  24.441  0.00  0.00    +0.000 NA
ATOM     31  H   UNL     1      -3.414  13.649  24.247  0.00  0.00    +0.000 HD
ATOM     32  H   UNL     1      -4.116  15.212  24.282  0.00  0.00    +0.000 HD
ENDBRANCH  27  30
ENDBRANCH  21  27
ENDBRANCH   1  24
TORSDOF 5
ENDMDL
MODEL 8
REMARK VINA RESULT:      -6.2      5.554      8.102
REMARK  Name = 
REMARK  5 active torsions:
REMARK  status: ('A' for Active; 'I' for Inactive)
REMARK    1  A    between atoms: N_1  and  S_2
REMARK    2  A    between atoms: S_2  and  C_5
REMARK    3  A    between atoms: C_8  and  N_9
REMARK    4  A    between atoms: C_13  and  C_14
REMARK    5  A    between atoms: C_21  and  C_22
REMARK                            x       y       z     vdW  Elec       q    Type
REMARK                         _______ _______ _______ _____ _____    ______ ____
ROOT
ATOM      1  N   UNL     1      -3.049  14.878  22.703  0.00  0.00    +0.000 N 
ATOM      2  C   UNL     1      -4.081  15.736  22.322  0.00  0.00    +0.000 C 
ATOM      3  O   UNL     1      -4.197  16.931  22.570  0.00  0.00    +0.000 OA
ATOM      4  C   UNL     1      -5.087  14.950  21.526  0.00  0.00    +0.000 C 
ATOM      5  C   UNL     1      -4.418  13.590  21.316  0.00  0.00    +0.000 C 
ATOM      6  C   UNL     1      -3.471  13.490  22.520  0.00  0.00    +0.000 C 
ENDROOT
BRANCH   5   7
ATOM      7  C   UNL     1      -5.495  12.519  21.262  0.00  0.00    +0.000 C 
ATOM      8  O   UNL     1      -6.258  12.333  22.210  0.00  0.00    +0.000 OA
ATOM      9  N   UNL     1      -5.657  11.871  20.050  0.00  0.00    +0.000 N 
ATOM     10  C   UNL     1      -4.797  11.904  18.879  0.00  0.00    +0.000 C 
ATOM     11  C   UNL     1      -5.800  12.018  17.750  0.00  0.00    +0.000 C 
ATOM     12  C   UNL     1      -6.919  11.081  18.203  0.00  0.00    +0.000 C 
ATOM     13  C   UNL     1      -6.877  11.140  19.735  0.00  0.00    +0.000 C 
ENDBRANCH   5   7
BRANCH   6  14
ATOM     14  C   UNL     1      -2.303  12.553  22.273  0.00  0.00    +0.000 A 
ATOM     15  C   UNL     1      -1.935  11.586  23.226  0.00  0.00    +0.000 A 
ATOM     16  C   UNL     1      -0.910  10.678  22.965  0.00  0.00    +0.000 A 
ATOM     17  C   UNL     1      -0.230  10.738  21.752  0.00  0.00    +0.000 A 
ATOM     18 CL   UNL     1       1.015   9.599  21.420  0.00  0.00    +0.000 Cl
ATOM     19  C   UNL     1      -0.560  11.704  20.805  0.00  0.00    +0.000 A 
ATOM     20  C   UNL     1      -1.594  12.609  21.063  0.00  0.00    +0.000 A 
ENDBRANCH   6  14
BRANCH   1  24
ATOM     21  C   UNL     1      -0.544  16.241  25.782  0.00  0.00    +0.000 A 
ATOM     22  C   UNL     1      -1.698  15.529  26.113  0.00  0.00    +0.000 A 
ATOM     23  C   UNL     1      -2.513  15.029  25.092  0.00  0.00    +0.000 A 
ATOM     24  C   UNL     1      -2.178  15.254  23.752  0.00  0.00    +0.000 A 
ATOM     25  C   UNL     1      -1.019  15.972  23.433  0.00  0.00    +0.000 A 
ATOM     26  C   UNL     1      -0.201  16.469  24.446  0.00  0.00    +0.000 A 
BRANCH  21  27
ATOM     27  S   UNL     1       0.506  16.887  27.047  0.00  0.00    +0.000 S 
ATOM     28  O   UNL     1      -0.043  18.125  27.548  0.00  0.00    +0.000 OA
ATOM     29  O   UNL     1       1.884  16.757  26.634  0.00  0.00    +0.000 OA
BRANCH  27  30
ATOM     30  N   UNL     1       0.278  15.744  28.253  0.00  0.00    +0.000 NA
ATOM     31  H   UNL     1      -0.561  15.198  28.055  0.00  0.00    +0.000 HD
ATOM     32  H   UNL     1       0.286  16.184  29.173  0.00  0.00    +0.000 HD
ENDBRANCH  27  30
ENDBRANCH  21  27
ENDBRANCH   1  24
TORSDOF 5
ENDMDL
MODEL 9
REMARK VINA RESULT:      -6.1      3.076      7.600
REMARK  Name = 
REMARK  5 active torsions:
REMARK  status: ('A' for Active; 'I' for Inactive)
REMARK    1  A    between atoms: N_1  and  S_2
REMARK    2  A    between atoms: S_2  and  C_5
REMARK    3  A    between atoms: C_8  and  N_9
REMARK    4  A    between atoms: C_13  and  C_14
REMARK    5  A    between atoms: C_21  and  C_22
REMARK                            x       y       z     vdW  Elec       q    Type
REMARK                         _______ _______ _______ _____ _____    ______ ____
ROOT
ATOM      1  N   UNL     1       0.115  10.296  21.224  0.00  0.00    +0.000 N 
ATOM      2  C   UNL     1       1.055   9.477  21.849  0.00  0.00    +0.000 C 
ATOM      3  O   UNL     1       1.320   9.410  23.044  0.00  0.00    +0.000 OA
ATOM      4  C   UNL     1       1.738   8.645  20.798  0.00  0.00    +0.000 C 
ATOM      5  C   UNL     1       0.943   8.928  19.521  0.00  0.00    +0.000 C 
ATOM      6  C   UNL     1       0.369  10.327  19.784  0.00  0.00    +0.000 C 
ENDROOT
BRANCH   5   7
ATOM      7  C   UNL     1       1.883   8.839  18.330  0.00  0.00    +0.000 C 
ATOM      8  O   UNL     1       2.159   9.832  17.659  0.00  0.00    +0.000 OA
ATOM      9  N   UNL     1       2.512   7.622  18.134  0.00  0.00    +0.000 N 
ATOM     10  C   UNL     1       2.237   6.342  18.767  0.00  0.00    +0.000 C 
ATOM     11  C   UNL     1       3.630   5.821  19.051  0.00  0.00    +0.000 C 
ATOM     12  C   UNL     1       4.399   6.224  17.793  0.00  0.00    +0.000 C 
ATOM     13  C   UNL     1       3.711   7.508  17.314  0.00  0.00    +0.000 C 
ENDBRANCH   5   7
BRANCH   6  14
ATOM     14  C   UNL     1      -0.884  10.611  18.976  0.00  0.00    +0.000 A 
ATOM     15  C   UNL     1      -1.315   9.724  17.973  0.00  0.00    +0.000 A 
ATOM     16  C   UNL     1      -2.505   9.948  17.283  0.00  0.00    +0.000 A 
ATOM     17  C   UNL     1      -3.271  11.072  17.580  0.00  0.00    +0.000 A 
ATOM     18 CL   UNL     1      -4.754  11.333  16.749  0.00  0.00    +0.000 Cl
ATOM     19  C   UNL     1      -2.849  11.977  18.551  0.00  0.00    +0.000 A 
ATOM     20  C   UNL     1      -1.659  11.748  19.249  0.00  0.00    +0.000 A 
ENDBRANCH   6  14
BRANCH   1  24
ATOM     21  C   UNL     1      -1.502  13.723  23.028  0.00  0.00    +0.000 A 
ATOM     22  C   UNL     1      -2.104  12.486  23.263  0.00  0.00    +0.000 A 
ATOM     23  C   UNL     1      -1.544  11.332  22.705  0.00  0.00    +0.000 A 
ATOM     24  C   UNL     1      -0.396  11.424  21.909  0.00  0.00    +0.000 A 
ATOM     25  C   UNL     1       0.197  12.670  21.677  0.00  0.00    +0.000 A 
ATOM     26  C   UNL     1      -0.355  13.823  22.233  0.00  0.00    +0.000 A 
BRANCH  21  27
ATOM     27  S   UNL     1      -2.185  15.200  23.715  0.00  0.00    +0.000 S 
ATOM     28  O   UNL     1      -1.220  16.270  23.625  0.00  0.00    +0.000 OA
ATOM     29  O   UNL     1      -2.878  14.877  24.941  0.00  0.00    +0.000 OA
BRANCH  27  30
ATOM     30  N   UNL     1      -3.381  15.542  22.588  0.00  0.00    +0.000 NA
ATOM     31  H   UNL     1      -3.619  16.533  22.630  0.00  0.00    +0.000 HD
ATOM     32  H   UNL     1      -4.175  14.914  22.704  0.00  0.00    +0.000 HD
ENDBRANCH  27  30
ENDBRANCH  21  27
ENDBRANCH   1  24
TORSDOF 5
ENDMDL
