MODEL 1
REMARK VINA RESULT:      -6.8      0.000      0.000
REMARK  Name = 
REMARK  4 active torsions:
REMARK  status: ('A' for Active; 'I' for Inactive)
REMARK    1  A    between atoms: C_4  and  S_5
REMARK    2  A    between atoms: S_5  and  C_6
REMARK    3  A    between atoms: N_12  and  S_13
REMARK    4  A    between atoms: S_13  and  O_16
REMARK                            x       y       z     vdW  Elec       q    Type
REMARK                         _______ _______ _______ _____ _____    ______ ____
ROOT
ATOM      1  O   UNL     1       7.754   5.250  14.877  0.00  0.00    +0.000 OA
ATOM      2  C   UNL     1       6.676   5.068  15.390  0.00  0.00    +0.000 C 
ATOM      3  C   UNL     1       5.163   5.108  15.034  0.00  0.00    +0.000 C 
ATOM      4  C   UNL     1       4.962   5.085  16.569  0.00  0.00    +0.000 C 
ATOM      5  N   UNL     1       6.387   4.761  16.714  0.00  0.00    +0.000 N 
ENDROOT
BRANCH   5   6
ATOM      6  S   UNL     1       7.412   5.052  17.960  0.00  0.00    +0.000 S 
ATOM      7  O   UNL     1       8.487   4.092  17.875  0.00  0.00    +0.000 OA
ATOM      8  O   UNL     1       7.675   6.470  18.016  0.00  0.00    +0.000 OA
BRANCH   6   9
ATOM      9  O   UNL     1       6.542   4.659  19.253  0.00  0.00    +0.000 OA
ATOM     10  H   UNL     1       6.890   5.156  20.025  0.00  0.00    +0.000 HD
ENDBRANCH   6   9
ENDBRANCH   5   6
BRANCH   4  11
ATOM     11  S   UNL     1       3.991   3.677  17.196  0.00  0.00    +0.000 S 
BRANCH  11  12
ATOM     12  C   UNL     1       3.101   4.467  18.509  0.00  0.00    +0.000 A 
ATOM     13  C   UNL     1       2.342   3.668  19.370  0.00  0.00    +0.000 A 
ATOM     14  C   UNL     1       1.608   4.246  20.405  0.00  0.00    +0.000 A 
ATOM     15  C   UNL     1       1.636   5.627  20.588  0.00  0.00    +0.000 A 
ATOM     16  C   UNL     1       2.412   6.426  19.750  0.00  0.00    +0.000 A 
ATOM     17  C   UNL     1       3.150   5.849  18.714  0.00  0.00    +0.000 A 
ENDBRANCH  11  12
ENDBRANCH   4  11
TORSDOF 4
ENDMDL
MODEL 2
REMARK VINA RESULT:      -6.8      0.391      1.676
REMARK  Name = 
REMARK  4 active torsions:
REMARK  status: ('A' for Active; 'I' for Inactive)
REMARK    1  A    between atoms: C_4  and  S_5
REMARK    2  A    between atoms: S_5  and  C_6
REMARK    3  A    between atoms: N_12  and  S_13
REMARK    4  A    between atoms: S_13  and  O_16
REMARK                            x       y       z     vdW  Elec       q    Type
REMARK                         _______ _______ _______ _____ _____    ______ ____
ROOT
ATOM      1  O   UNL     1       7.590   5.211  14.879  0.00  0.00    +0.000 OA
ATOM      2  C   UNL     1       6.555   4.927  15.434  0.00  0.00    +0.000 C 
ATOM      3  C   UNL     1       5.030   4.842  15.145  0.00  0.00    +0.000 C 
ATOM      4  C   UNL     1       4.900   4.775  16.687  0.00  0.00    +0.000 C 
ATOM      5  N   UNL     1       6.353   4.572  16.762  0.00  0.00    +0.000 N 
ENDROOT
BRANCH   5   6
ATOM      6  S   UNL     1       7.404   4.929  17.969  0.00  0.00    +0.000 S 
ATOM      7  O   UNL     1       6.652   4.990  19.200  0.00  0.00    +0.000 OA
ATOM      8  O   UNL     1       8.560   4.074  17.839  0.00  0.00    +0.000 OA
BRANCH   6   9
ATOM      9  O   UNL     1       7.860   6.433  17.629  0.00  0.00    +0.000 OA
ATOM     10  H   UNL     1       7.367   7.047  18.215  0.00  0.00    +0.000 HD
ENDBRANCH   6   9
ENDBRANCH   5   6
BRANCH   4  11
ATOM     11  S   UNL     1       4.082   3.277  17.323  0.00  0.00    +0.000 S 
BRANCH  11  12
ATOM     12  C   UNL     1       3.032   3.993  18.559  0.00  0.00    +0.000 A 
ATOM     13  C   UNL     1       3.213   5.342  18.881  0.00  0.00    +0.000 A 
ATOM     14  C   UNL     1       2.426   5.944  19.862  0.00  0.00    +0.000 A 
ATOM     15  C   UNL     1       1.449   5.201  20.521  0.00  0.00    +0.000 A 
ATOM     16  C   UNL     1       1.247   3.862  20.186  0.00  0.00    +0.000 A 
ATOM     17  C   UNL     1       2.033   3.258  19.202  0.00  0.00    +0.000 A 
ENDBRANCH  11  12
ENDBRANCH   4  11
TORSDOF 4
ENDMDL
MODEL 3
REMARK VINA RESULT:      -6.8      1.801      2.691
REMARK  Name = 
REMARK  4 active torsions:
REMARK  status: ('A' for Active; 'I' for Inactive)
REMARK    1  A    between atoms: C_4  and  S_5
REMARK    2  A    between atoms: S_5  and  C_6
REMARK    3  A    between atoms: N_12  and  S_13
REMARK    4  A    between atoms: S_13  and  O_16
REMARK                            x       y       z     vdW  Elec       q    Type
REMARK                         _______ _______ _______ _____ _____    ______ ____
ROOT
ATOM      1  O   UNL     1       6.013   7.441  16.336  0.00  0.00    +0.000 OA
ATOM      2  C   UNL     1       5.422   6.515  16.837  0.00  0.00    +0.000 C 
ATOM      3  C   UNL     1       4.385   6.227  17.958  0.00  0.00    +0.000 C 
ATOM      4  C   UNL     1       4.832   4.755  17.778  0.00  0.00    +0.000 C 
ATOM      5  N   UNL     1       5.537   5.159  16.555  0.00  0.00    +0.000 N 
ENDROOT
BRANCH   5   6
ATOM      6  S   UNL     1       6.844   4.490  15.824  0.00  0.00    +0.000 S 
ATOM      7  O   UNL     1       7.878   4.348  16.821  0.00  0.00    +0.000 OA
ATOM      8  O   UNL     1       6.403   3.365  15.034  0.00  0.00    +0.000 OA
BRANCH   6   9
ATOM      9  O   UNL     1       7.331   5.643  14.813  0.00  0.00    +0.000 OA
ATOM     10  H   UNL     1       6.805   5.575  13.988  0.00  0.00    +0.000 HD
ENDBRANCH   6   9
ENDBRANCH   5   6
BRANCH   4  11
ATOM     11  S   UNL     1       3.502   3.600  17.313  0.00  0.00    +0.000 S 
BRANCH  11  12
ATOM     12  C   UNL     1       2.728   3.361  18.890  0.00  0.00    +0.000 A 
ATOM     13  C   UNL     1       1.406   3.791  19.050  0.00  0.00    +0.000 A 
ATOM     14  C   UNL     1       0.762   3.646  20.278  0.00  0.00    +0.000 A 
ATOM     15  C   UNL     1       1.434   3.061  21.349  0.00  0.00    +0.000 A 
ATOM     16  C   UNL     1       2.742   2.607  21.188  0.00  0.00    +0.000 A 
ATOM     17  C   UNL     1       3.389   2.750  19.958  0.00  0.00    +0.000 A 
ENDBRANCH  11  12
ENDBRANCH   4  11
TORSDOF 4
ENDMDL
MODEL 4
REMARK VINA RESULT:      -6.7      1.722      2.867
REMARK  Name = 
REMARK  4 active torsions:
REMARK  status: ('A' for Active; 'I' for Inactive)
REMARK    1  A    between atoms: C_4  and  S_5
REMARK    2  A    between atoms: S_5  and  C_6
REMARK    3  A    between atoms: N_12  and  S_13
REMARK    4  A    between atoms: S_13  and  O_16
REMARK                            x       y       z     vdW  Elec       q    Type
REMARK                         _______ _______ _______ _____ _____    ______ ____
ROOT
ATOM      1  O   UNL     1       8.187   4.432  17.277  0.00  0.00    +0.000 OA
ATOM      2  C   UNL     1       6.995   4.494  17.457  0.00  0.00    +0.000 C 
ATOM      3  C   UNL     1       5.928   4.116  18.523  0.00  0.00    +0.000 C 
ATOM      4  C   UNL     1       4.920   4.355  17.372  0.00  0.00    +0.000 C 
ATOM      5  N   UNL     1       6.010   4.958  16.593  0.00  0.00    +0.000 N 
ENDROOT
BRANCH   5   6
ATOM      6  S   UNL     1       6.205   5.072  14.970  0.00  0.00    +0.000 S 
ATOM      7  O   UNL     1       6.069   3.744  14.418  0.00  0.00    +0.000 OA
ATOM      8  O   UNL     1       5.403   6.171  14.486  0.00  0.00    +0.000 OA
BRANCH   6   9
ATOM      9  O   UNL     1       7.752   5.481  14.811  0.00  0.00    +0.000 OA
ATOM     10  H   UNL     1       8.305   4.730  15.116  0.00  0.00    +0.000 HD
ENDBRANCH   6   9
ENDBRANCH   5   6
BRANCH   4  11
ATOM     11  S   UNL     1       3.674   5.643  17.698  0.00  0.00    +0.000 S 
BRANCH  11  12
ATOM     12  C   UNL     1       2.478   4.701  18.606  0.00  0.00    +0.000 A 
ATOM     13  C   UNL     1       2.155   5.114  19.902  0.00  0.00    +0.000 A 
ATOM     14  C   UNL     1       1.237   4.392  20.664  0.00  0.00    +0.000 A 
ATOM     15  C   UNL     1       0.630   3.258  20.128  0.00  0.00    +0.000 A 
ATOM     16  C   UNL     1       0.928   2.857  18.826  0.00  0.00    +0.000 A 
ATOM     17  C   UNL     1       1.846   3.579  18.061  0.00  0.00    +0.000 A 
ENDBRANCH  11  12
ENDBRANCH   4  11
TORSDOF 4
ENDMDL
MODEL 5
REMARK VINA RESULT:      -6.5      1.747      2.449
REMARK  Name = 
REMARK  4 active torsions:
REMARK  status: ('A' for Active; 'I' for Inactive)
REMARK    1  A    between atoms: C_4  and  S_5
REMARK    2  A    between atoms: S_5  and  C_6
REMARK    3  A    between atoms: N_12  and  S_13
REMARK    4  A    between atoms: S_13  and  O_16
REMARK                            x       y       z     vdW  Elec       q    Type
REMARK                         _______ _______ _______ _____ _____    ______ ____
ROOT
ATOM      1  O   UNL     1       6.782   6.931  16.870  0.00  0.00    +0.000 OA
ATOM      2  C   UNL     1       5.652   6.668  17.206  0.00  0.00    +0.000 C 
ATOM      3  C   UNL     1       4.226   7.287  17.185  0.00  0.00    +0.000 C 
ATOM      4  C   UNL     1       3.897   6.171  18.208  0.00  0.00    +0.000 C 
ATOM      5  N   UNL     1       5.189   5.549  17.889  0.00  0.00    +0.000 N 
ENDROOT
BRANCH   5   6
ATOM      6  S   UNL     1       6.145   4.581  18.802  0.00  0.00    +0.000 S 
ATOM      7  O   UNL     1       6.718   5.394  19.849  0.00  0.00    +0.000 OA
ATOM      8  O   UNL     1       5.418   3.371  19.106  0.00  0.00    +0.000 OA
BRANCH   6   9
ATOM      9  O   UNL     1       7.346   4.199  17.804  0.00  0.00    +0.000 OA
ATOM     10  H   UNL     1       7.853   3.456  18.197  0.00  0.00    +0.000 HD
ENDBRANCH   6   9
ENDBRANCH   5   6
BRANCH   4  11
ATOM     11  S   UNL     1       2.573   5.028  17.697  0.00  0.00    +0.000 S 
BRANCH  11  12
ATOM     12  C   UNL     1       2.247   4.216  19.239  0.00  0.00    +0.000 A 
ATOM     13  C   UNL     1       1.624   2.964  19.209  0.00  0.00    +0.000 A 
ATOM     14  C   UNL     1       1.326   2.297  20.396  0.00  0.00    +0.000 A 
ATOM     15  C   UNL     1       1.659   2.875  21.620  0.00  0.00    +0.000 A 
ATOM     16  C   UNL     1       2.304   4.111  21.655  0.00  0.00    +0.000 A 
ATOM     17  C   UNL     1       2.604   4.780  20.466  0.00  0.00    +0.000 A 
ENDBRANCH  11  12
ENDBRANCH   4  11
TORSDOF 4
ENDMDL
MODEL 6
REMARK VINA RESULT:      -6.5      1.622      1.912
REMARK  Name = 
REMARK  4 active torsions:
REMARK  status: ('A' for Active; 'I' for Inactive)
REMARK    1  A    between atoms: C_4  and  S_5
REMARK    2  A    between atoms: S_5  and  C_6
REMARK    3  A    between atoms: N_12  and  S_13
REMARK    4  A    between atoms: S_13  and  O_16
REMARK                            x       y       z     vdW  Elec       q    Type
REMARK                         _______ _______ _______ _____ _____    ______ ____
ROOT
ATOM      1  O   UNL     1       7.240   7.365  16.993  0.00  0.00    +0.000 OA
ATOM      2  C   UNL     1       6.152   6.856  17.118  0.00  0.00    +0.000 C 
ATOM      3  C   UNL     1       4.650   7.176  16.876  0.00  0.00    +0.000 C 
ATOM      4  C   UNL     1       4.403   5.943  17.781  0.00  0.00    +0.000 C 
ATOM      5  N   UNL     1       5.831   5.619  17.666  0.00  0.00    +0.000 N 
ENDROOT
BRANCH   5   6
ATOM      6  S   UNL     1       6.810   4.797  18.692  0.00  0.00    +0.000 S 
ATOM      7  O   UNL     1       7.928   4.300  17.925  0.00  0.00    +0.000 OA
ATOM      8  O   UNL     1       7.010   5.597  19.876  0.00  0.00    +0.000 OA
BRANCH   6   9
ATOM      9  O   UNL     1       5.925   3.519  19.102  0.00  0.00    +0.000 OA
ATOM     10  H   UNL     1       5.479   3.179  18.297  0.00  0.00    +0.000 HD
ENDBRANCH   6   9
ENDBRANCH   5   6
BRANCH   4  11
ATOM     11  S   UNL     1       3.450   4.600  17.004  0.00  0.00    +0.000 S 
BRANCH  11  12
ATOM     12  C   UNL     1       2.420   4.117  18.365  0.00  0.00    +0.000 A 
ATOM     13  C   UNL     1       1.704   2.920  18.262  0.00  0.00    +0.000 A 
ATOM     14  C   UNL     1       0.864   2.510  19.296  0.00  0.00    +0.000 A 
ATOM     15  C   UNL     1       0.744   3.292  20.444  0.00  0.00    +0.000 A 
ATOM     16  C   UNL     1       1.476   4.472  20.563  0.00  0.00    +0.000 A 
ATOM     17  C   UNL     1       2.319   4.884  19.528  0.00  0.00    +0.000 A 
ENDBRANCH  11  12
ENDBRANCH   4  11
TORSDOF 4
ENDMDL
MODEL 7
REMARK VINA RESULT:      -6.5      1.889      3.003
REMARK  Name = 
REMARK  4 active torsions:
REMARK  status: ('A' for Active; 'I' for Inactive)
REMARK    1  A    between atoms: C_4  and  S_5
REMARK    2  A    between atoms: S_5  and  C_6
REMARK    3  A    between atoms: N_12  and  S_13
REMARK    4  A    between atoms: S_13  and  O_16
REMARK                            x       y       z     vdW  Elec       q    Type
REMARK                         _______ _______ _______ _____ _____    ______ ____
ROOT
ATOM      1  O   UNL     1       7.919   5.490  19.290  0.00  0.00    +0.000 OA
ATOM      2  C   UNL     1       6.764   5.357  18.962  0.00  0.00    +0.000 C 
ATOM      3  C   UNL     1       5.499   4.541  19.350  0.00  0.00    +0.000 C 
ATOM      4  C   UNL     1       4.958   5.026  17.983  0.00  0.00    +0.000 C 
ATOM      5  N   UNL     1       6.086   5.963  17.911  0.00  0.00    +0.000 N 
ENDROOT
BRANCH   5   6
ATOM      6  S   UNL     1       6.831   6.616  16.605  0.00  0.00    +0.000 S 
ATOM      7  O   UNL     1       7.420   7.868  17.017  0.00  0.00    +0.000 OA
ATOM      8  O   UNL     1       7.622   5.590  15.966  0.00  0.00    +0.000 OA
BRANCH   6   9
ATOM      9  O   UNL     1       5.609   6.980  15.625  0.00  0.00    +0.000 OA
ATOM     10  H   UNL     1       5.937   6.967  14.701  0.00  0.00    +0.000 HD
ENDBRANCH   6   9
ENDBRANCH   5   6
BRANCH   4  11
ATOM     11  S   UNL     1       3.417   5.994  18.066  0.00  0.00    +0.000 S 
BRANCH  11  12
ATOM     12  C   UNL     1       2.317   4.777  18.736  0.00  0.00    +0.000 A 
ATOM     13  C   UNL     1       1.907   4.915  20.067  0.00  0.00    +0.000 A 
ATOM     14  C   UNL     1       1.060   3.971  20.645  0.00  0.00    +0.000 A 
ATOM     15  C   UNL     1       0.610   2.888  19.891  0.00  0.00    +0.000 A 
ATOM     16  C   UNL     1       0.994   2.760  18.557  0.00  0.00    +0.000 A 
ATOM     17  C   UNL     1       1.842   3.705  17.976  0.00  0.00    +0.000 A 
ENDBRANCH  11  12
ENDBRANCH   4  11
TORSDOF 4
ENDMDL
MODEL 8
REMARK VINA RESULT:      -6.4      1.207      2.056
REMARK  Name = 
REMARK  4 active torsions:
REMARK  status: ('A' for Active; 'I' for Inactive)
REMARK    1  A    between atoms: C_4  and  S_5
REMARK    2  A    between atoms: S_5  and  C_6
REMARK    3  A    between atoms: N_12  and  S_13
REMARK    4  A    between atoms: S_13  and  O_16
REMARK                            x       y       z     vdW  Elec       q    Type
REMARK                         _______ _______ _______ _____ _____    ______ ____
ROOT
ATOM      1  O   UNL     1       7.545   6.700  16.336  0.00  0.00    +0.000 OA
ATOM      2  C   UNL     1       6.413   6.311  16.491  0.00  0.00    +0.000 C 
ATOM      3  C   UNL     1       4.969   6.612  15.997  0.00  0.00    +0.000 C 
ATOM      4  C   UNL     1       4.543   5.740  17.205  0.00  0.00    +0.000 C 
ATOM      5  N   UNL     1       5.944   5.326  17.353  0.00  0.00    +0.000 N 
ENDROOT
BRANCH   5   6
ATOM      6  S   UNL     1       6.758   4.822  18.683  0.00  0.00    +0.000 S 
ATOM      7  O   UNL     1       7.271   5.993  19.353  0.00  0.00    +0.000 OA
ATOM      8  O   UNL     1       5.943   3.856  19.381  0.00  0.00    +0.000 OA
BRANCH   6   9
ATOM      9  O   UNL     1       8.026   4.047  18.069  0.00  0.00    +0.000 OA
ATOM     10  H   UNL     1       8.817   4.273  18.605  0.00  0.00    +0.000 HD
ENDBRANCH   6   9
ENDBRANCH   5   6
BRANCH   4  11
ATOM     11  S   UNL     1       3.557   4.269  16.779  0.00  0.00    +0.000 S 
BRANCH  11  12
ATOM     12  C   UNL     1       2.549   4.135  18.231  0.00  0.00    +0.000 A 
ATOM     13  C   UNL     1       2.631   5.149  19.190  0.00  0.00    +0.000 A 
ATOM     14  C   UNL     1       1.874   5.077  20.359  0.00  0.00    +0.000 A 
ATOM     15  C   UNL     1       1.025   3.993  20.570  0.00  0.00    +0.000 A 
ATOM     16  C   UNL     1       0.919   2.992  19.605  0.00  0.00    +0.000 A 
ATOM     17  C   UNL     1       1.675   3.063  18.433  0.00  0.00    +0.000 A 
ENDBRANCH  11  12
ENDBRANCH   4  11
TORSDOF 4
ENDMDL
MODEL 9
REMARK VINA RESULT:      -6.4      1.779      2.810
REMARK  Name = 
REMARK  4 active torsions:
REMARK  status: ('A' for Active; 'I' for Inactive)
REMARK    1  A    between atoms: C_4  and  S_5
REMARK    2  A    between atoms: S_5  and  C_6
REMARK    3  A    between atoms: N_12  and  S_13
REMARK    4  A    between atoms: S_13  and  O_16
REMARK                            x       y       z     vdW  Elec       q    Type
REMARK                         _______ _______ _______ _____ _____    ______ ____
ROOT
ATOM      1  O   UNL     1       7.821   4.786  18.575  0.00  0.00    +0.000 OA
ATOM      2  C   UNL     1       6.628   4.834  18.394  0.00  0.00    +0.000 C 
ATOM      3  C   UNL     1       5.334   4.053  18.758  0.00  0.00    +0.000 C 
ATOM      4  C   UNL     1       4.692   4.902  17.634  0.00  0.00    +0.000 C 
ATOM      5  N   UNL     1       5.903   5.734  17.622  0.00  0.00    +0.000 N 
ENDROOT
BRANCH   5   6
ATOM      6  S   UNL     1       6.556   6.625  16.412  0.00  0.00    +0.000 S 
ATOM      7  O   UNL     1       5.521   6.857  15.432  0.00  0.00    +0.000 OA
ATOM      8  O   UNL     1       7.295   7.720  16.994  0.00  0.00    +0.000 OA
BRANCH   6   9
ATOM      9  O   UNL     1       7.612   5.617  15.739  0.00  0.00    +0.000 OA
ATOM     10  H   UNL     1       7.826   5.945  14.839  0.00  0.00    +0.000 HD
ENDBRANCH   6   9
ENDBRANCH   5   6
BRANCH   4  11
ATOM     11  S   UNL     1       3.292   5.942  18.161  0.00  0.00    +0.000 S 
BRANCH  11  12
ATOM     12  C   UNL     1       2.264   4.719  18.929  0.00  0.00    +0.000 A 
ATOM     13  C   UNL     1       1.661   3.755  18.114  0.00  0.00    +0.000 A 
ATOM     14  C   UNL     1       0.826   2.786  18.669  0.00  0.00    +0.000 A 
ATOM     15  C   UNL     1       0.596   2.773  20.044  0.00  0.00    +0.000 A 
ATOM     16  C   UNL     1       1.215   3.715  20.863  0.00  0.00    +0.000 A 
ATOM     17  C   UNL     1       2.054   4.685  20.309  0.00  0.00    +0.000 A 
ENDBRANCH  11  12
ENDBRANCH   4  11
TORSDOF 4
ENDMDL
