MODEL 1
REMARK VINA RESULT:      -9.6      0.000      0.000
REMARK  Name = 
REMARK  6 active torsions:
REMARK  status: ('A' for Active; 'I' for Inactive)
REMARK    1  A    between atoms: C_1  and  C_2
REMARK    2  A    between atoms: C_2  and  N_3
REMARK    3  A    between atoms: C_2  and  C_15
REMARK    4  A    between atoms: C_4  and  C_6
REMARK    5  A    between atoms: C_7  and  C_8
REMARK    6  A    between atoms: C_19  and  C_20
REMARK                            x       y       z     vdW  Elec       q    Type
REMARK                         _______ _______ _______ _____ _____    ______ ____
ROOT
ATOM      1  C   UNL     1       6.747   4.858  17.111  0.00  0.00    +0.000 C 
ATOM      2  C   UNL     1       6.084   6.094  16.505  0.00  0.00    +0.000 C 
ENDROOT
BRANCH   2   3
ATOM      3  C   UNL     1       4.697   6.335  17.076  0.00  0.00    +0.000 A 
ATOM      4  C   UNL     1       4.130   7.613  17.064  0.00  0.00    +0.000 A 
ATOM      5  C   UNL     1       2.943   7.860  17.750  0.00  0.00    +0.000 A 
ATOM      6  C   UNL     1       2.328   6.840  18.484  0.00  0.00    +0.000 A 
ATOM      7  C   UNL     1       2.857   5.539  18.505  0.00  0.00    +0.000 A 
ATOM      8  C   UNL     1       4.010   5.302  17.737  0.00  0.00    +0.000 A 
BRANCH   7   9
ATOM      9  C   UNL     1       2.330   4.476  19.386  0.00  0.00    +0.000 A 
ATOM     10  C   UNL     1       1.419   3.510  18.968  0.00  0.00    +0.000 A 
ATOM     11  C   UNL     1       0.885   2.629  19.906  0.00  0.00    +0.000 A 
ATOM     12  C   UNL     1       1.277   2.720  21.235  0.00  0.00    +0.000 A 
ATOM     13  C   UNL     1       2.207   3.684  21.571  0.00  0.00    +0.000 A 
ATOM     14  N   UNL     1       2.737   4.552  20.683  0.00  0.00    +0.000 NA
ENDBRANCH   7   9
ENDBRANCH   2   3
BRANCH   2  15
ATOM     15  N   UNL     1       6.903   7.280  16.723  0.00  0.00    +0.000 N 
ATOM     16  C   UNL     1       7.650   7.484  17.849  0.00  0.00    +0.000 C 
ATOM     17  O   UNL     1       7.728   6.696  18.783  0.00  0.00    +0.000 OA
ATOM     18  H   UNL     1       6.864   8.009  16.022  0.00  0.00    +0.000 HD
BRANCH  16  19
ATOM     19  C   UNL     1       8.352   8.791  17.834  0.00  0.00    +0.000 C 
ATOM     20  C   UNL     1       8.894   9.281  18.960  0.00  0.00    +0.000 C 
BRANCH  20  21
ATOM     21  C   UNL     1       9.517  10.613  19.059  0.00  0.00    +0.000 A 
ATOM     22  C   UNL     1      10.031  11.213  17.901  0.00  0.00    +0.000 A 
ATOM     23  C   UNL     1      10.687  12.450  17.968  0.00  0.00    +0.000 A 
ATOM     24  C   UNL     1      10.844  13.096  19.193  0.00  0.00    +0.000 A 
ATOM     25  C   UNL     1      10.349  12.507  20.352  0.00  0.00    +0.000 A 
ATOM     26  C   UNL     1       9.699  11.277  20.280  0.00  0.00    +0.000 A 
ATOM     27  F   UNL     1       9.268  10.730  21.429  0.00  0.00    +0.000 F 
ENDBRANCH  20  21
ENDBRANCH  16  19
ENDBRANCH   2  15
TORSDOF 5
ENDMDL
MODEL 2
REMARK VINA RESULT:      -9.5      4.830      7.729
REMARK  Name = 
REMARK  6 active torsions:
REMARK  status: ('A' for Active; 'I' for Inactive)
REMARK    1  A    between atoms: C_1  and  C_2
REMARK    2  A    between atoms: C_2  and  N_3
REMARK    3  A    between atoms: C_2  and  C_15
REMARK    4  A    between atoms: C_4  and  C_6
REMARK    5  A    between atoms: C_7  and  C_8
REMARK    6  A    between atoms: C_19  and  C_20
REMARK                            x       y       z     vdW  Elec       q    Type
REMARK                         _______ _______ _______ _____ _____    ______ ____
ROOT
ATOM      1  C   UNL     1       2.365   3.763  17.417  0.00  0.00    +0.000 C 
ATOM      2  C   UNL     1       3.266   4.400  18.474  0.00  0.00    +0.000 C 
ENDROOT
BRANCH   2   3
ATOM      3  C   UNL     1       4.716   4.462  18.025  0.00  0.00    +0.000 A 
ATOM      4  C   UNL     1       5.721   4.875  18.906  0.00  0.00    +0.000 A 
ATOM      5  C   UNL     1       7.013   5.105  18.438  0.00  0.00    +0.000 A 
ATOM      6  C   UNL     1       7.306   4.956  17.078  0.00  0.00    +0.000 A 
ATOM      7  C   UNL     1       6.328   4.524  16.167  0.00  0.00    +0.000 A 
ATOM      8  C   UNL     1       5.056   4.223  16.683  0.00  0.00    +0.000 A 
BRANCH   7   9
ATOM      9  C   UNL     1       6.552   4.502  14.705  0.00  0.00    +0.000 A 
ATOM     10  C   UNL     1       5.873   3.655  13.834  0.00  0.00    +0.000 A 
ATOM     11  C   UNL     1       6.244   3.620  12.492  0.00  0.00    +0.000 A 
ATOM     12  C   UNL     1       7.274   4.437  12.045  0.00  0.00    +0.000 A 
ATOM     13  C   UNL     1       7.883   5.273  12.960  0.00  0.00    +0.000 A 
ATOM     14  N   UNL     1       7.544   5.324  14.265  0.00  0.00    +0.000 NA
ENDBRANCH   7   9
ENDBRANCH   2   3
BRANCH   2  15
ATOM     15  N   UNL     1       2.809   5.745  18.801  0.00  0.00    +0.000 N 
ATOM     16  C   UNL     1       2.298   6.091  20.021  0.00  0.00    +0.000 C 
ATOM     17  O   UNL     1       2.185   5.325  20.969  0.00  0.00    +0.000 OA
ATOM     18  H   UNL     1       2.821   6.436  18.062  0.00  0.00    +0.000 HD
BRANCH  16  19
ATOM     19  C   UNL     1       1.867   7.510  20.073  0.00  0.00    +0.000 C 
ATOM     20  C   UNL     1       1.112   7.952  21.091  0.00  0.00    +0.000 C 
BRANCH  20  21
ATOM     21  C   UNL     1       0.556   9.313  21.170  0.00  0.00    +0.000 A 
ATOM     22  C   UNL     1       0.650  10.154  20.051  0.00  0.00    +0.000 A 
ATOM     23  C   UNL     1       0.188  11.477  20.111  0.00  0.00    +0.000 A 
ATOM     24  C   UNL     1      -0.363  11.975  21.290  0.00  0.00    +0.000 A 
ATOM     25  C   UNL     1      -0.451  11.156  22.411  0.00  0.00    +0.000 A 
ATOM     26  C   UNL     1       0.009   9.843  22.347  0.00  0.00    +0.000 A 
ATOM     27  F   UNL     1      -0.066   9.100  23.463  0.00  0.00    +0.000 F 
ENDBRANCH  20  21
ENDBRANCH  16  19
ENDBRANCH   2  15
TORSDOF 5
ENDMDL
MODEL 3
REMARK VINA RESULT:      -9.4      4.749      7.917
REMARK  Name = 
REMARK  6 active torsions:
REMARK  status: ('A' for Active; 'I' for Inactive)
REMARK    1  A    between atoms: C_1  and  C_2
REMARK    2  A    between atoms: C_2  and  N_3
REMARK    3  A    between atoms: C_2  and  C_15
REMARK    4  A    between atoms: C_4  and  C_6
REMARK    5  A    between atoms: C_7  and  C_8
REMARK    6  A    between atoms: C_19  and  C_20
REMARK                            x       y       z     vdW  Elec       q    Type
REMARK                         _______ _______ _______ _____ _____    ______ ____
ROOT
ATOM      1  C   UNL     1       2.448   3.601  17.367  0.00  0.00    +0.000 C 
ATOM      2  C   UNL     1       3.320   4.237  18.447  0.00  0.00    +0.000 C 
ENDROOT
BRANCH   2   3
ATOM      3  C   UNL     1       4.764   4.387  18.000  0.00  0.00    +0.000 A 
ATOM      4  C   UNL     1       5.740   4.867  18.879  0.00  0.00    +0.000 A 
ATOM      5  C   UNL     1       7.017   5.173  18.411  0.00  0.00    +0.000 A 
ATOM      6  C   UNL     1       7.320   5.034  17.053  0.00  0.00    +0.000 A 
ATOM      7  C   UNL     1       6.373   4.536  16.143  0.00  0.00    +0.000 A 
ATOM      8  C   UNL     1       5.121   4.160  16.660  0.00  0.00    +0.000 A 
BRANCH   7   9
ATOM      9  C   UNL     1       6.600   4.520  14.682  0.00  0.00    +0.000 A 
ATOM     10  C   UNL     1       5.922   3.676  13.807  0.00  0.00    +0.000 A 
ATOM     11  C   UNL     1       6.297   3.645  12.465  0.00  0.00    +0.000 A 
ATOM     12  C   UNL     1       7.328   4.462  12.023  0.00  0.00    +0.000 A 
ATOM     13  C   UNL     1       7.935   5.295  12.942  0.00  0.00    +0.000 A 
ATOM     14  N   UNL     1       7.594   5.342  14.247  0.00  0.00    +0.000 NA
ENDBRANCH   7   9
ENDBRANCH   2   3
BRANCH   2  15
ATOM     15  N   UNL     1       2.801   5.545  18.829  0.00  0.00    +0.000 N 
ATOM     16  C   UNL     1       2.314   5.828  20.074  0.00  0.00    +0.000 C 
ATOM     17  O   UNL     1       2.275   5.031  21.002  0.00  0.00    +0.000 OA
ATOM     18  H   UNL     1       2.750   6.256  18.109  0.00  0.00    +0.000 HD
BRANCH  16  19
ATOM     19  C   UNL     1       1.806   7.219  20.181  0.00  0.00    +0.000 C 
ATOM     20  C   UNL     1       1.103   7.602  21.258  0.00  0.00    +0.000 C 
BRANCH  20  21
ATOM     21  C   UNL     1       0.477   8.928  21.400  0.00  0.00    +0.000 A 
ATOM     22  C   UNL     1      -0.019   9.317  22.653  0.00  0.00    +0.000 A 
ATOM     23  C   UNL     1      -0.679  10.544  22.810  0.00  0.00    +0.000 A 
ATOM     24  C   UNL     1      -0.857  11.391  21.717  0.00  0.00    +0.000 A 
ATOM     25  C   UNL     1      -0.381  11.012  20.466  0.00  0.00    +0.000 A 
ATOM     26  C   UNL     1       0.273   9.791  20.315  0.00  0.00    +0.000 A 
ATOM     27  F   UNL     1       0.686   9.452  19.082  0.00  0.00    +0.000 F 
ENDBRANCH  20  21
ENDBRANCH  16  19
ENDBRANCH   2  15
TORSDOF 5
ENDMDL
MODEL 4
REMARK VINA RESULT:      -9.3      2.113      3.232
REMARK  Name = 
REMARK  6 active torsions:
REMARK  status: ('A' for Active; 'I' for Inactive)
REMARK    1  A    between atoms: C_1  and  C_2
REMARK    2  A    between atoms: C_2  and  N_3
REMARK    3  A    between atoms: C_2  and  C_15
REMARK    4  A    between atoms: C_4  and  C_6
REMARK    5  A    between atoms: C_7  and  C_8
REMARK    6  A    between atoms: C_19  and  C_20
REMARK                            x       y       z     vdW  Elec       q    Type
REMARK                         _______ _______ _______ _____ _____    ______ ____
ROOT
ATOM      1  C   UNL     1       6.787   5.042  15.716  0.00  0.00    +0.000 C 
ATOM      2  C   UNL     1       5.953   6.257  16.117  0.00  0.00    +0.000 C 
ENDROOT
BRANCH   2   3
ATOM      3  C   UNL     1       4.761   5.872  16.977  0.00  0.00    +0.000 A 
ATOM      4  C   UNL     1       4.184   4.602  16.875  0.00  0.00    +0.000 A 
ATOM      5  C   UNL     1       2.986   4.321  17.529  0.00  0.00    +0.000 A 
ATOM      6  C   UNL     1       2.335   5.317  18.264  0.00  0.00    +0.000 A 
ATOM      7  C   UNL     1       2.893   6.598  18.407  0.00  0.00    +0.000 A 
ATOM      8  C   UNL     1       4.141   6.826  17.803  0.00  0.00    +0.000 A 
BRANCH   7   9
ATOM      9  C   UNL     1       2.168   7.719  19.042  0.00  0.00    +0.000 A 
ATOM     10  C   UNL     1       1.684   7.682  20.346  0.00  0.00    +0.000 A 
ATOM     11  C   UNL     1       0.903   8.738  20.812  0.00  0.00    +0.000 A 
ATOM     12  C   UNL     1       0.633   9.812  19.973  0.00  0.00    +0.000 A 
ATOM     13  C   UNL     1       1.172   9.793  18.702  0.00  0.00    +0.000 A 
ATOM     14  N   UNL     1       1.928   8.782  18.226  0.00  0.00    +0.000 NA
ENDBRANCH   7   9
ENDBRANCH   2   3
BRANCH   2  15
ATOM     15  N   UNL     1       6.766   7.229  16.837  0.00  0.00    +0.000 N 
ATOM     16  C   UNL     1       7.604   6.898  17.865  0.00  0.00    +0.000 C 
ATOM     17  O   UNL     1       7.776   5.760  18.281  0.00  0.00    +0.000 OA
ATOM     18  H   UNL     1       6.654   8.205  16.592  0.00  0.00    +0.000 HD
BRANCH  16  19
ATOM     19  C   UNL     1       8.278   8.083  18.451  0.00  0.00    +0.000 C 
ATOM     20  C   UNL     1       8.177   9.283  17.857  0.00  0.00    +0.000 C 
BRANCH  20  21
ATOM     21  C   UNL     1       8.895  10.486  18.311  0.00  0.00    +0.000 A 
ATOM     22  C   UNL     1       9.875  10.360  19.307  0.00  0.00    +0.000 A 
ATOM     23  C   UNL     1      10.533  11.492  19.808  0.00  0.00    +0.000 A 
ATOM     24  C   UNL     1      10.214  12.761  19.327  0.00  0.00    +0.000 A 
ATOM     25  C   UNL     1       9.235  12.901  18.348  0.00  0.00    +0.000 A 
ATOM     26  C   UNL     1       8.583  11.774  17.853  0.00  0.00    +0.000 A 
ATOM     27  F   UNL     1       7.623  11.961  16.933  0.00  0.00    +0.000 F 
ENDBRANCH  20  21
ENDBRANCH  16  19
ENDBRANCH   2  15
TORSDOF 5
ENDMDL
MODEL 5
REMARK VINA RESULT:      -9.2      1.298      1.542
REMARK  Name = 
REMARK  6 active torsions:
REMARK  status: ('A' for Active; 'I' for Inactive)
REMARK    1  A    between atoms: C_1  and  C_2
REMARK    2  A    between atoms: C_2  and  N_3
REMARK    3  A    between atoms: C_2  and  C_15
REMARK    4  A    between atoms: C_4  and  C_6
REMARK    5  A    between atoms: C_7  and  C_8
REMARK    6  A    between atoms: C_19  and  C_20
REMARK                            x       y       z     vdW  Elec       q    Type
REMARK                         _______ _______ _______ _____ _____    ______ ____
ROOT
ATOM      1  C   UNL     1       7.335   4.768  17.344  0.00  0.00    +0.000 C 
ATOM      2  C   UNL     1       6.592   5.865  16.583  0.00  0.00    +0.000 C 
ENDROOT
BRANCH   2   3
ATOM      3  C   UNL     1       5.171   6.048  17.088  0.00  0.00    +0.000 A 
ATOM      4  C   UNL     1       4.489   7.253  16.890  0.00  0.00    +0.000 A 
ATOM      5  C   UNL     1       3.263   7.476  17.512  0.00  0.00    +0.000 A 
ATOM      6  C   UNL     1       2.721   6.510  18.366  0.00  0.00    +0.000 A 
ATOM      7  C   UNL     1       3.366   5.279  18.574  0.00  0.00    +0.000 A 
ATOM      8  C   UNL     1       4.560   5.052  17.870  0.00  0.00    +0.000 A 
BRANCH   7   9
ATOM      9  C   UNL     1       2.909   4.299  19.582  0.00  0.00    +0.000 A 
ATOM     10  C   UNL     1       1.777   4.477  20.373  0.00  0.00    +0.000 A 
ATOM     11  C   UNL     1       1.501   3.557  21.382  0.00  0.00    +0.000 A 
ATOM     12  C   UNL     1       2.350   2.475  21.574  0.00  0.00    +0.000 A 
ATOM     13  C   UNL     1       3.437   2.346  20.732  0.00  0.00    +0.000 A 
ATOM     14  N   UNL     1       3.729   3.225  19.750  0.00  0.00    +0.000 NA
ENDBRANCH   7   9
ENDBRANCH   2   3
BRANCH   2  15
ATOM     15  N   UNL     1       7.301   7.135  16.681  0.00  0.00    +0.000 N 
ATOM     16  C   UNL     1       7.897   7.578  17.828  0.00  0.00    +0.000 C 
ATOM     17  O   UNL     1       7.918   6.959  18.885  0.00  0.00    +0.000 OA
ATOM     18  H   UNL     1       7.296   7.737  15.868  0.00  0.00    +0.000 HD
BRANCH  16  19
ATOM     19  C   UNL     1       8.509   8.921  17.667  0.00  0.00    +0.000 C 
ATOM     20  C   UNL     1       8.867   9.636  18.745  0.00  0.00    +0.000 C 
BRANCH  20  21
ATOM     21  C   UNL     1       9.384  11.014  18.681  0.00  0.00    +0.000 A 
ATOM     22  C   UNL     1      10.481  11.368  19.480  0.00  0.00    +0.000 A 
ATOM     23  C   UNL     1      10.959  12.687  19.492  0.00  0.00    +0.000 A 
ATOM     24  C   UNL     1      10.342  13.665  18.714  0.00  0.00    +0.000 A 
ATOM     25  C   UNL     1       9.245  13.329  17.926  0.00  0.00    +0.000 A 
ATOM     26  C   UNL     1       8.773  12.019  17.918  0.00  0.00    +0.000 A 
ATOM     27  F   UNL     1       7.692  11.749  17.168  0.00  0.00    +0.000 F 
ENDBRANCH  20  21
ENDBRANCH  16  19
ENDBRANCH   2  15
TORSDOF 5
ENDMDL
MODEL 6
REMARK VINA RESULT:      -9.1      1.982      3.129
REMARK  Name = 
REMARK  6 active torsions:
REMARK  status: ('A' for Active; 'I' for Inactive)
REMARK    1  A    between atoms: C_1  and  C_2
REMARK    2  A    between atoms: C_2  and  N_3
REMARK    3  A    between atoms: C_2  and  C_15
REMARK    4  A    between atoms: C_4  and  C_6
REMARK    5  A    between atoms: C_7  and  C_8
REMARK    6  A    between atoms: C_19  and  C_20
REMARK                            x       y       z     vdW  Elec       q    Type
REMARK                         _______ _______ _______ _____ _____    ______ ____
ROOT
ATOM      1  C   UNL     1       7.636   4.567  17.488  0.00  0.00    +0.000 C 
ATOM      2  C   UNL     1       6.617   5.404  16.717  0.00  0.00    +0.000 C 
ENDROOT
BRANCH   2   3
ATOM      3  C   UNL     1       5.205   5.209  17.240  0.00  0.00    +0.000 A 
ATOM      4  C   UNL     1       4.492   4.038  16.961  0.00  0.00    +0.000 A 
ATOM      5  C   UNL     1       3.141   3.944  17.286  0.00  0.00    +0.000 A 
ATOM      6  C   UNL     1       2.479   5.033  17.864  0.00  0.00    +0.000 A 
ATOM      7  C   UNL     1       3.165   6.218  18.178  0.00  0.00    +0.000 A 
ATOM      8  C   UNL     1       4.545   6.252  17.912  0.00  0.00    +0.000 A 
BRANCH   7   9
ATOM      9  C   UNL     1       2.476   7.440  18.644  0.00  0.00    +0.000 A 
ATOM     10  C   UNL     1       2.016   7.616  19.947  0.00  0.00    +0.000 A 
ATOM     11  C   UNL     1       1.267   8.749  20.256  0.00  0.00    +0.000 A 
ATOM     12  C   UNL     1       1.003   9.687  19.266  0.00  0.00    +0.000 A 
ATOM     13  C   UNL     1       1.517   9.461  18.005  0.00  0.00    +0.000 A 
ATOM     14  N   UNL     1       2.242   8.370  17.678  0.00  0.00    +0.000 NA
ENDBRANCH   7   9
ENDBRANCH   2   3
BRANCH   2  15
ATOM     15  N   UNL     1       6.958   6.820  16.778  0.00  0.00    +0.000 N 
ATOM     16  C   UNL     1       7.681   7.379  17.794  0.00  0.00    +0.000 C 
ATOM     17  O   UNL     1       8.134   6.757  18.747  0.00  0.00    +0.000 OA
ATOM     18  H   UNL     1       6.585   7.422  16.054  0.00  0.00    +0.000 HD
BRANCH  16  19
ATOM     19  C   UNL     1       7.846   8.845  17.634  0.00  0.00    +0.000 C 
ATOM     20  C   UNL     1       8.794   9.499  18.323  0.00  0.00    +0.000 C 
BRANCH  20  21
ATOM     21  C   UNL     1       8.960  10.963  18.304  0.00  0.00    +0.000 A 
ATOM     22  C   UNL     1       8.033  11.744  17.599  0.00  0.00    +0.000 A 
ATOM     23  C   UNL     1       8.196  13.134  17.506  0.00  0.00    +0.000 A 
ATOM     24  C   UNL     1       9.289  13.755  18.106  0.00  0.00    +0.000 A 
ATOM     25  C   UNL     1      10.223  12.990  18.798  0.00  0.00    +0.000 A 
ATOM     26  C   UNL     1      10.058  11.610  18.888  0.00  0.00    +0.000 A 
ATOM     27  F   UNL     1      11.002  10.908  19.537  0.00  0.00    +0.000 F 
ENDBRANCH  20  21
ENDBRANCH  16  19
ENDBRANCH   2  15
TORSDOF 5
ENDMDL
MODEL 7
REMARK VINA RESULT:      -9.0      4.795      7.317
REMARK  Name = 
REMARK  6 active torsions:
REMARK  status: ('A' for Active; 'I' for Inactive)
REMARK    1  A    between atoms: C_1  and  C_2
REMARK    2  A    between atoms: C_2  and  N_3
REMARK    3  A    between atoms: C_2  and  C_15
REMARK    4  A    between atoms: C_4  and  C_6
REMARK    5  A    between atoms: C_7  and  C_8
REMARK    6  A    between atoms: C_19  and  C_20
REMARK                            x       y       z     vdW  Elec       q    Type
REMARK                         _______ _______ _______ _____ _____    ______ ____
ROOT
ATOM      1  C   UNL     1       2.517   3.995  17.590  0.00  0.00    +0.000 C 
ATOM      2  C   UNL     1       3.466   4.663  18.583  0.00  0.00    +0.000 C 
ENDROOT
BRANCH   2   3
ATOM      3  C   UNL     1       4.903   4.659  18.092  0.00  0.00    +0.000 A 
ATOM      4  C   UNL     1       5.949   5.051  18.932  0.00  0.00    +0.000 A 
ATOM      5  C   UNL     1       7.235   5.219  18.422  0.00  0.00    +0.000 A 
ATOM      6  C   UNL     1       7.481   5.029  17.058  0.00  0.00    +0.000 A 
ATOM      7  C   UNL     1       6.460   4.615  16.186  0.00  0.00    +0.000 A 
ATOM      8  C   UNL     1       5.194   4.376  16.746  0.00  0.00    +0.000 A 
BRANCH   7   9
ATOM      9  C   UNL     1       6.639   4.552  14.720  0.00  0.00    +0.000 A 
ATOM     10  C   UNL     1       5.911   3.703  13.890  0.00  0.00    +0.000 A 
ATOM     11  C   UNL     1       6.241   3.626  12.539  0.00  0.00    +0.000 A 
ATOM     12  C   UNL     1       7.279   4.403  12.041  0.00  0.00    +0.000 A 
ATOM     13  C   UNL     1       7.937   5.243  12.917  0.00  0.00    +0.000 A 
ATOM     14  N   UNL     1       7.640   5.335  14.230  0.00  0.00    +0.000 NA
ENDBRANCH   7   9
ENDBRANCH   2   3
BRANCH   2  15
ATOM     15  N   UNL     1       3.056   6.037  18.848  0.00  0.00    +0.000 N 
ATOM     16  C   UNL     1       2.218   6.390  19.868  0.00  0.00    +0.000 C 
ATOM     17  O   UNL     1       1.737   5.606  20.675  0.00  0.00    +0.000 OA
ATOM     18  H   UNL     1       3.369   6.751  18.201  0.00  0.00    +0.000 HD
BRANCH  16  19
ATOM     19  C   UNL     1       1.928   7.846  19.885  0.00  0.00    +0.000 C 
ATOM     20  C   UNL     1       1.566   8.477  18.756  0.00  0.00    +0.000 C 
BRANCH  20  21
ATOM     21  C   UNL     1       1.360   9.933  18.661  0.00  0.00    +0.000 A 
ATOM     22  C   UNL     1       2.368  10.729  18.098  0.00  0.00    +0.000 A 
ATOM     23  C   UNL     1       2.233  12.124  18.049  0.00  0.00    +0.000 A 
ATOM     24  C   UNL     1       1.095  12.737  18.569  0.00  0.00    +0.000 A 
ATOM     25  C   UNL     1       0.093  11.961  19.142  0.00  0.00    +0.000 A 
ATOM     26  C   UNL     1       0.232  10.575  19.189  0.00  0.00    +0.000 A 
ATOM     27  F   UNL     1      -0.745   9.869  19.781  0.00  0.00    +0.000 F 
ENDBRANCH  20  21
ENDBRANCH  16  19
ENDBRANCH   2  15
TORSDOF 5
ENDMDL
MODEL 8
REMARK VINA RESULT:      -9.0      2.051      3.232
REMARK  Name = 
REMARK  6 active torsions:
REMARK  status: ('A' for Active; 'I' for Inactive)
REMARK    1  A    between atoms: C_1  and  C_2
REMARK    2  A    between atoms: C_2  and  N_3
REMARK    3  A    between atoms: C_2  and  C_15
REMARK    4  A    between atoms: C_4  and  C_6
REMARK    5  A    between atoms: C_7  and  C_8
REMARK    6  A    between atoms: C_19  and  C_20
REMARK                            x       y       z     vdW  Elec       q    Type
REMARK                         _______ _______ _______ _____ _____    ______ ____
ROOT
ATOM      1  C   UNL     1       7.253   5.127  16.130  0.00  0.00    +0.000 C 
ATOM      2  C   UNL     1       6.303   6.317  16.258  0.00  0.00    +0.000 C 
ENDROOT
BRANCH   2   3
ATOM      3  C   UNL     1       5.022   5.948  16.986  0.00  0.00    +0.000 A 
ATOM      4  C   UNL     1       4.481   4.663  16.879  0.00  0.00    +0.000 A 
ATOM      5  C   UNL     1       3.217   4.388  17.398  0.00  0.00    +0.000 A 
ATOM      6  C   UNL     1       2.467   5.404  17.999  0.00  0.00    +0.000 A 
ATOM      7  C   UNL     1       2.984   6.702  18.143  0.00  0.00    +0.000 A 
ATOM      8  C   UNL     1       4.293   6.927  17.683  0.00  0.00    +0.000 A 
BRANCH   7   9
ATOM      9  C   UNL     1       2.170   7.836  18.629  0.00  0.00    +0.000 A 
ATOM     10  C   UNL     1       1.805   8.919  17.834  0.00  0.00    +0.000 A 
ATOM     11  C   UNL     1       1.146   9.999  18.417  0.00  0.00    +0.000 A 
ATOM     12  C   UNL     1       0.855   9.972  19.775  0.00  0.00    +0.000 A 
ATOM     13  C   UNL     1       1.221   8.853  20.495  0.00  0.00    +0.000 A 
ATOM     14  N   UNL     1       1.863   7.795  19.955  0.00  0.00    +0.000 NA
ENDBRANCH   7   9
ENDBRANCH   2   3
BRANCH   2  15
ATOM     15  N   UNL     1       6.947   7.423  16.955  0.00  0.00    +0.000 N 
ATOM     16  C   UNL     1       7.752   7.259  18.047  0.00  0.00    +0.000 C 
ATOM     17  O   UNL     1       8.033   6.177  18.547  0.00  0.00    +0.000 OA
ATOM     18  H   UNL     1       6.735   8.361  16.640  0.00  0.00    +0.000 HD
BRANCH  16  19
ATOM     19  C   UNL     1       8.242   8.550  18.589  0.00  0.00    +0.000 C 
ATOM     20  C   UNL     1       8.540   9.563  17.761  0.00  0.00    +0.000 C 
BRANCH  20  21
ATOM     21  C   UNL     1       9.128  10.840  18.204  0.00  0.00    +0.000 A 
ATOM     22  C   UNL     1      10.198  10.820  19.110  0.00  0.00    +0.000 A 
ATOM     23  C   UNL     1      10.739  12.016  19.602  0.00  0.00    +0.000 A 
ATOM     24  C   UNL     1      10.213  13.242  19.201  0.00  0.00    +0.000 A 
ATOM     25  C   UNL     1       9.144  13.277  18.311  0.00  0.00    +0.000 A 
ATOM     26  C   UNL     1       8.608  12.086  17.826  0.00  0.00    +0.000 A 
ATOM     27  F   UNL     1       7.556  12.167  16.996  0.00  0.00    +0.000 F 
ENDBRANCH  20  21
ENDBRANCH  16  19
ENDBRANCH   2  15
TORSDOF 5
ENDMDL
MODEL 9
REMARK VINA RESULT:      -8.9      4.190      7.554
REMARK  Name = 
REMARK  6 active torsions:
REMARK  status: ('A' for Active; 'I' for Inactive)
REMARK    1  A    between atoms: C_1  and  C_2
REMARK    2  A    between atoms: C_2  and  N_3
REMARK    3  A    between atoms: C_2  and  C_15
REMARK    4  A    between atoms: C_4  and  C_6
REMARK    5  A    between atoms: C_7  and  C_8
REMARK    6  A    between atoms: C_19  and  C_20
REMARK                            x       y       z     vdW  Elec       q    Type
REMARK                         _______ _______ _______ _____ _____    ______ ____
ROOT
ATOM      1  C   UNL     1       4.051   2.736  18.465  0.00  0.00    +0.000 C 
ATOM      2  C   UNL     1       4.702   3.855  19.276  0.00  0.00    +0.000 C 
ENDROOT
BRANCH   2   3
ATOM      3  C   UNL     1       5.767   4.591  18.481  0.00  0.00    +0.000 A 
ATOM      4  C   UNL     1       6.434   5.693  19.026  0.00  0.00    +0.000 A 
ATOM      5  C   UNL     1       7.272   6.470  18.229  0.00  0.00    +0.000 A 
ATOM      6  C   UNL     1       7.425   6.174  16.870  0.00  0.00    +0.000 A 
ATOM      7  C   UNL     1       6.787   5.064  16.292  0.00  0.00    +0.000 A 
ATOM      8  C   UNL     1       6.014   4.253  17.139  0.00  0.00    +0.000 A 
BRANCH   7   9
ATOM      9  C   UNL     1       6.798   4.805  14.836  0.00  0.00    +0.000 A 
ATOM     10  C   UNL     1       5.973   3.873  14.213  0.00  0.00    +0.000 A 
ATOM     11  C   UNL     1       6.147   3.611  12.856  0.00  0.00    +0.000 A 
ATOM     12  C   UNL     1       7.128   4.292  12.147  0.00  0.00    +0.000 A 
ATOM     13  C   UNL     1       7.888   5.224  12.824  0.00  0.00    +0.000 A 
ATOM     14  N   UNL     1       7.743   5.494  14.139  0.00  0.00    +0.000 NA
ENDBRANCH   7   9
ENDBRANCH   2   3
BRANCH   2  15
ATOM     15  N   UNL     1       3.703   4.811  19.736  0.00  0.00    +0.000 N 
ATOM     16  C   UNL     1       2.691   5.282  18.947  0.00  0.00    +0.000 C 
ATOM     17  O   UNL     1       2.502   4.945  17.785  0.00  0.00    +0.000 OA
ATOM     18  H   UNL     1       3.807   5.183  20.672  0.00  0.00    +0.000 HD
BRANCH  16  19
ATOM     19  C   UNL     1       1.842   6.278  19.647  0.00  0.00    +0.000 C 
ATOM     20  C   UNL     1       2.131   7.587  19.570  0.00  0.00    +0.000 C 
BRANCH  20  21
ATOM     21  C   UNL     1       1.407   8.632  20.314  0.00  0.00    +0.000 A 
ATOM     22  C   UNL     1       1.323   8.540  21.711  0.00  0.00    +0.000 A 
ATOM     23  C   UNL     1       0.587   9.482  22.445  0.00  0.00    +0.000 A 
ATOM     24  C   UNL     1      -0.077  10.518  21.792  0.00  0.00    +0.000 A 
ATOM     25  C   UNL     1      -0.012  10.614  20.406  0.00  0.00    +0.000 A 
ATOM     26  C   UNL     1       0.719   9.676  19.680  0.00  0.00    +0.000 A 
ATOM     27  F   UNL     1       0.727   9.789  18.342  0.00  0.00    +0.000 F 
ENDBRANCH  20  21
ENDBRANCH  16  19
ENDBRANCH   2  15
TORSDOF 5
ENDMDL
