MODEL 1
REMARK VINA RESULT:      -7.6      0.000      0.000
REMARK  Name = 
REMARK  10 active torsions:
REMARK  status: ('A' for Active; 'I' for Inactive)
REMARK    1  A    between atoms: S_2  and  C_3
REMARK    2  A    between atoms: S_2  and  C_19
REMARK    3  A    between atoms: C_3  and  C_4
REMARK    4  A    between atoms: C_5  and  C_6
REMARK    5  A    between atoms: C_11  and  C_12
REMARK    6  A    between atoms: C_13  and  C_14
REMARK    7  A    between atoms: C_14  and  C_15
REMARK    8  A    between atoms: C_15  and  C_16
REMARK    9  A    between atoms: C_16  and  C_17
REMARK   10  A    between atoms: C_17  and  O_18
REMARK                            x       y       z     vdW  Elec       q    Type
REMARK                         _______ _______ _______ _____ _____    ______ ____
ROOT
ATOM      1  C   UNL     1       2.827   7.384  18.326  0.00  0.00    +0.000 C 
ATOM      2  C   UNL     1       3.677   6.599  17.727  0.00  0.00    +0.000 C 
ENDROOT
BRANCH   2   3
ATOM      3  C   UNL     1       4.666   5.799  17.070  0.00  0.00    +0.000 A 
ATOM      4  C   UNL     1       5.823   6.397  16.559  0.00  0.00    +0.000 A 
ATOM      5  C   UNL     1       6.682   5.661  15.740  0.00  0.00    +0.000 A 
ATOM      6  C   UNL     1       6.430   4.311  15.496  0.00  0.00    +0.000 A 
ATOM      7  C   UNL     1       5.334   3.687  16.095  0.00  0.00    +0.000 A 
ATOM      8  C   UNL     1       4.434   4.436  16.860  0.00  0.00    +0.000 A 
BRANCH   8   9
ATOM      9  C   UNL     1       3.254   3.818  17.385  0.00  0.00    +0.000 C 
ATOM     10  C   UNL     1       2.200   3.226  17.874  0.00  0.00    +0.000 C 
BRANCH  10  11
ATOM     11  C   UNL     1       0.972   2.536  18.445  0.00  0.00    +0.000 C 
BRANCH  11  12
ATOM     12  C   UNL     1       1.042   2.530  19.966  0.00  0.00    +0.000 C 
BRANCH  12  13
ATOM     13  C   UNL     1       0.997   3.949  20.516  0.00  0.00    +0.000 C 
BRANCH  13  14
ATOM     14  C   UNL     1       2.192   4.223  21.415  0.00  0.00    +0.000 C 
BRANCH  14  15
ATOM     15  O   UNL     1       3.068   5.142  20.779  0.00  0.00    +0.000 OA
ATOM     16  H   UNL     1       3.839   4.640  20.464  0.00  0.00    +0.000 HD
ENDBRANCH  14  15
ENDBRANCH  13  14
ENDBRANCH  12  13
ENDBRANCH  11  12
ENDBRANCH  10  11
ENDBRANCH   8   9
ENDBRANCH   2   3
BRANCH   1  17
ATOM     17  C   UNL     1       1.836   8.301  19.024  0.00  0.00    +0.000 C 
BRANCH  17  19
ATOM     18  O   UNL     1       2.518  10.603  17.639  0.00  0.00    +0.000 OA
ATOM     19  S   UNL     1       1.337   9.578  17.792  0.00  0.00    +0.000 S 
BRANCH  19  20
ATOM     20  C   UNL     1      -0.020  10.431  18.633  0.00  0.00    +0.000 A 
ATOM     21  C   UNL     1       0.155  11.223  19.778  0.00  0.00    +0.000 A 
ATOM     22  F   UNL     1       1.337  11.301  20.399  0.00  0.00    +0.000 F 
ATOM     23  C   UNL     1      -0.913  11.955  20.305  0.00  0.00    +0.000 A 
ATOM     24  F   UNL     1      -0.721  12.716  21.396  0.00  0.00    +0.000 F 
ATOM     25  C   UNL     1      -2.159  11.919  19.711  0.00  0.00    +0.000 A 
ATOM     26  F   UNL     1      -3.173  12.638  20.214  0.00  0.00    +0.000 F 
ATOM     27  C   UNL     1      -2.353  11.126  18.590  0.00  0.00    +0.000 A 
ATOM     28  F   UNL     1      -3.553  11.072  18.004  0.00  0.00    +0.000 F 
ATOM     29  C   UNL     1      -1.295  10.395  18.064  0.00  0.00    +0.000 A 
ATOM     30  F   UNL     1      -1.508   9.646  16.967  0.00  0.00    +0.000 F 
ENDBRANCH  19  20
ENDBRANCH  17  19
ENDBRANCH   1  17
TORSDOF 10
ENDMDL
MODEL 2
REMARK VINA RESULT:      -7.5      2.052      2.186
REMARK  Name = 
REMARK  10 active torsions:
REMARK  status: ('A' for Active; 'I' for Inactive)
REMARK    1  A    between atoms: S_2  and  C_3
REMARK    2  A    between atoms: S_2  and  C_19
REMARK    3  A    between atoms: C_3  and  C_4
REMARK    4  A    between atoms: C_5  and  C_6
REMARK    5  A    between atoms: C_11  and  C_12
REMARK    6  A    between atoms: C_13  and  C_14
REMARK    7  A    between atoms: C_14  and  C_15
REMARK    8  A    between atoms: C_15  and  C_16
REMARK    9  A    between atoms: C_16  and  C_17
REMARK   10  A    between atoms: C_17  and  O_18
REMARK                            x       y       z     vdW  Elec       q    Type
REMARK                         _______ _______ _______ _____ _____    ______ ____
ROOT
ATOM      1  C   UNL     1       3.079   6.889  18.509  0.00  0.00    +0.000 C 
ATOM      2  C   UNL     1       3.833   6.274  17.642  0.00  0.00    +0.000 C 
ENDROOT
BRANCH   2   3
ATOM      3  C   UNL     1       4.701   5.562  16.752  0.00  0.00    +0.000 A 
ATOM      4  C   UNL     1       5.596   6.264  15.939  0.00  0.00    +0.000 A 
ATOM      5  C   UNL     1       6.288   5.594  14.928  0.00  0.00    +0.000 A 
ATOM      6  C   UNL     1       6.149   4.214  14.781  0.00  0.00    +0.000 A 
ATOM      7  C   UNL     1       5.337   3.497  15.662  0.00  0.00    +0.000 A 
ATOM      8  C   UNL     1       4.590   4.174  16.632  0.00  0.00    +0.000 A 
BRANCH   8   9
ATOM      9  C   UNL     1       3.678   3.450  17.466  0.00  0.00    +0.000 C 
ATOM     10  C   UNL     1       2.834   2.774  18.194  0.00  0.00    +0.000 C 
BRANCH  10  11
ATOM     11  C   UNL     1       1.850   1.985  19.043  0.00  0.00    +0.000 C 
BRANCH  11  12
ATOM     12  C   UNL     1       0.739   2.903  19.533  0.00  0.00    +0.000 C 
BRANCH  12  13
ATOM     13  C   UNL     1       1.275   3.914  20.537  0.00  0.00    +0.000 C 
BRANCH  13  14
ATOM     14  C   UNL     1       2.119   3.230  21.601  0.00  0.00    +0.000 C 
BRANCH  14  15
ATOM     15  O   UNL     1       1.283   2.462  22.453  0.00  0.00    +0.000 OA
ATOM     16  H   UNL     1       1.573   2.619  23.368  0.00  0.00    +0.000 HD
ENDBRANCH  14  15
ENDBRANCH  13  14
ENDBRANCH  12  13
ENDBRANCH  11  12
ENDBRANCH  10  11
ENDBRANCH   8   9
ENDBRANCH   2   3
BRANCH   1  17
ATOM     17  C   UNL     1       2.200   7.606  19.520  0.00  0.00    +0.000 C 
BRANCH  17  19
ATOM     18  O   UNL     1       2.226   9.601  17.596  0.00  0.00    +0.000 OA
ATOM     19  S   UNL     1       1.245   8.876  18.585  0.00  0.00    +0.000 S 
BRANCH  19  20
ATOM     20  C   UNL     1       0.796  10.063  19.876  0.00  0.00    +0.000 A 
ATOM     21  C   UNL     1       0.992  11.447  19.756  0.00  0.00    +0.000 A 
ATOM     22  F   UNL     1       1.643  11.973  18.712  0.00  0.00    +0.000 F 
ATOM     23  C   UNL     1       0.508  12.320  20.735  0.00  0.00    +0.000 A 
ATOM     24  F   UNL     1       0.697  13.643  20.596  0.00  0.00    +0.000 F 
ATOM     25  C   UNL     1      -0.173  11.843  21.837  0.00  0.00    +0.000 A 
ATOM     26  F   UNL     1      -0.647  12.689  22.763  0.00  0.00    +0.000 F 
ATOM     27  C   UNL     1      -0.359  10.475  21.980  0.00  0.00    +0.000 A 
ATOM     28  F   UNL     1      -1.010   9.992  23.042  0.00  0.00    +0.000 F 
ATOM     29  C   UNL     1       0.122   9.604  21.010  0.00  0.00    +0.000 A 
ATOM     30  F   UNL     1      -0.084   8.284  21.167  0.00  0.00    +0.000 F 
ENDBRANCH  19  20
ENDBRANCH  17  19
ENDBRANCH   1  17
TORSDOF 10
ENDMDL
MODEL 3
REMARK VINA RESULT:      -7.4      1.834      2.116
REMARK  Name = 
REMARK  10 active torsions:
REMARK  status: ('A' for Active; 'I' for Inactive)
REMARK    1  A    between atoms: S_2  and  C_3
REMARK    2  A    between atoms: S_2  and  C_19
REMARK    3  A    between atoms: C_3  and  C_4
REMARK    4  A    between atoms: C_5  and  C_6
REMARK    5  A    between atoms: C_11  and  C_12
REMARK    6  A    between atoms: C_13  and  C_14
REMARK    7  A    between atoms: C_14  and  C_15
REMARK    8  A    between atoms: C_15  and  C_16
REMARK    9  A    between atoms: C_16  and  C_17
REMARK   10  A    between atoms: C_17  and  O_18
REMARK                            x       y       z     vdW  Elec       q    Type
REMARK                         _______ _______ _______ _____ _____    ______ ____
ROOT
ATOM      1  C   UNL     1       2.897   7.126  18.605  0.00  0.00    +0.000 C 
ATOM      2  C   UNL     1       3.760   6.481  17.871  0.00  0.00    +0.000 C 
ENDROOT
BRANCH   2   3
ATOM      3  C   UNL     1       4.709   5.714  17.122  0.00  0.00    +0.000 A 
ATOM      4  C   UNL     1       5.852   6.331  16.603  0.00  0.00    +0.000 A 
ATOM      5  C   UNL     1       6.665   5.640  15.701  0.00  0.00    +0.000 A 
ATOM      6  C   UNL     1       6.384   4.312  15.382  0.00  0.00    +0.000 A 
ATOM      7  C   UNL     1       5.304   3.663  15.984  0.00  0.00    +0.000 A 
ATOM      8  C   UNL     1       4.448   4.371  16.834  0.00  0.00    +0.000 A 
BRANCH   8   9
ATOM      9  C   UNL     1       3.282   3.734  17.366  0.00  0.00    +0.000 C 
ATOM     10  C   UNL     1       2.211   3.186  17.869  0.00  0.00    +0.000 C 
BRANCH  10  11
ATOM     11  C   UNL     1       0.961   2.548  18.455  0.00  0.00    +0.000 C 
BRANCH  11  12
ATOM     12  C   UNL     1       0.942   2.741  19.965  0.00  0.00    +0.000 C 
BRANCH  12  13
ATOM     13  C   UNL     1       1.127   4.209  20.325  0.00  0.00    +0.000 C 
BRANCH  13  14
ATOM     14  C   UNL     1       2.228   4.382  21.359  0.00  0.00    +0.000 C 
BRANCH  14  15
ATOM     15  O   UNL     1       2.267   3.245  22.209  0.00  0.00    +0.000 OA
ATOM     16  H   UNL     1       2.025   3.541  23.104  0.00  0.00    +0.000 HD
ENDBRANCH  14  15
ENDBRANCH  13  14
ENDBRANCH  12  13
ENDBRANCH  11  12
ENDBRANCH  10  11
ENDBRANCH   8   9
ENDBRANCH   2   3
BRANCH   1  17
ATOM     17  C   UNL     1       1.891   7.876  19.461  0.00  0.00    +0.000 C 
BRANCH  17  19
ATOM     18  O   UNL     1       2.393   9.911  17.647  0.00  0.00    +0.000 OA
ATOM     19  S   UNL     1       1.203   9.226  18.409  0.00  0.00    +0.000 S 
BRANCH  19  20
ATOM     20  C   UNL     1       0.587  10.407  19.635  0.00  0.00    +0.000 A 
ATOM     21  C   UNL     1      -0.142  10.032  20.773  0.00  0.00    +0.000 A 
ATOM     22  F   UNL     1      -0.536   8.768  20.966  0.00  0.00    +0.000 F 
ATOM     23  C   UNL     1      -0.479  10.979  21.745  0.00  0.00    +0.000 A 
ATOM     24  F   UNL     1      -1.168  10.597  22.833  0.00  0.00    +0.000 F 
ATOM     25  C   UNL     1      -0.102  12.300  21.608  0.00  0.00    +0.000 A 
ATOM     26  F   UNL     1      -0.417  13.199  22.553  0.00  0.00    +0.000 F 
ATOM     27  C   UNL     1       0.602  12.691  20.479  0.00  0.00    +0.000 A 
ATOM     28  F   UNL     1       0.971  13.966  20.324  0.00  0.00    +0.000 F 
ATOM     29  C   UNL     1       0.938  11.753  19.510  0.00  0.00    +0.000 A 
ATOM     30  F   UNL     1       1.634  12.158  18.432  0.00  0.00    +0.000 F 
ENDBRANCH  19  20
ENDBRANCH  17  19
ENDBRANCH   1  17
TORSDOF 10
ENDMDL
MODEL 4
REMARK VINA RESULT:      -7.4      1.669      2.139
REMARK  Name = 
REMARK  10 active torsions:
REMARK  status: ('A' for Active; 'I' for Inactive)
REMARK    1  A    between atoms: S_2  and  C_3
REMARK    2  A    between atoms: S_2  and  C_19
REMARK    3  A    between atoms: C_3  and  C_4
REMARK    4  A    between atoms: C_5  and  C_6
REMARK    5  A    between atoms: C_11  and  C_12
REMARK    6  A    between atoms: C_13  and  C_14
REMARK    7  A    between atoms: C_14  and  C_15
REMARK    8  A    between atoms: C_15  and  C_16
REMARK    9  A    between atoms: C_16  and  C_17
REMARK   10  A    between atoms: C_17  and  O_18
REMARK                            x       y       z     vdW  Elec       q    Type
REMARK                         _______ _______ _______ _____ _____    ______ ____
ROOT
ATOM      1  C   UNL     1       3.117   6.765  18.497  0.00  0.00    +0.000 C 
ATOM      2  C   UNL     1       3.908   6.187  17.638  0.00  0.00    +0.000 C 
ENDROOT
BRANCH   2   3
ATOM      3  C   UNL     1       4.742   5.480  16.713  0.00  0.00    +0.000 A 
ATOM      4  C   UNL     1       5.630   6.183  15.894  0.00  0.00    +0.000 A 
ATOM      5  C   UNL     1       6.286   5.523  14.852  0.00  0.00    +0.000 A 
ATOM      6  C   UNL     1       6.119   4.150  14.679  0.00  0.00    +0.000 A 
ATOM      7  C   UNL     1       5.315   3.428  15.565  0.00  0.00    +0.000 A 
ATOM      8  C   UNL     1       4.603   4.096  16.566  0.00  0.00    +0.000 A 
BRANCH   8   9
ATOM      9  C   UNL     1       3.698   3.370  17.406  0.00  0.00    +0.000 C 
ATOM     10  C   UNL     1       2.886   2.729  18.199  0.00  0.00    +0.000 C 
BRANCH  10  11
ATOM     11  C   UNL     1       1.940   1.982  19.126  0.00  0.00    +0.000 C 
BRANCH  11  12
ATOM     12  C   UNL     1       0.810   2.904  19.563  0.00  0.00    +0.000 C 
BRANCH  12  13
ATOM     13  C   UNL     1       1.320   3.965  20.528  0.00  0.00    +0.000 C 
BRANCH  13  14
ATOM     14  C   UNL     1       2.125   3.336  21.654  0.00  0.00    +0.000 C 
BRANCH  14  15
ATOM     15  O   UNL     1       1.295   2.462  22.404  0.00  0.00    +0.000 OA
ATOM     16  H   UNL     1       1.855   1.739  22.735  0.00  0.00    +0.000 HD
ENDBRANCH  14  15
ENDBRANCH  13  14
ENDBRANCH  12  13
ENDBRANCH  11  12
ENDBRANCH  10  11
ENDBRANCH   8   9
ENDBRANCH   2   3
BRANCH   1  17
ATOM     17  C   UNL     1       2.194   7.438  19.500  0.00  0.00    +0.000 C 
BRANCH  17  19
ATOM     18  O   UNL     1       2.469   9.740  17.981  0.00  0.00    +0.000 OA
ATOM     19  S   UNL     1       1.361   8.819  18.607  0.00  0.00    +0.000 S 
BRANCH  19  20
ATOM     20  C   UNL     1       0.578   9.745  19.951  0.00  0.00    +0.000 A 
ATOM     21  C   UNL     1       0.451   9.251  21.258  0.00  0.00    +0.000 A 
ATOM     22  F   UNL     1       0.799   7.997  21.569  0.00  0.00    +0.000 F 
ATOM     23  C   UNL     1      -0.049  10.064  22.279  0.00  0.00    +0.000 A 
ATOM     24  F   UNL     1      -0.153   9.576  23.527  0.00  0.00    +0.000 F 
ATOM     25  C   UNL     1      -0.427  11.368  22.027  0.00  0.00    +0.000 A 
ATOM     26  F   UNL     1      -0.890  12.146  23.016  0.00  0.00    +0.000 F 
ATOM     27  C   UNL     1      -0.325  11.866  20.736  0.00  0.00    +0.000 A 
ATOM     28  F   UNL     1      -0.690  13.123  20.468  0.00  0.00    +0.000 F 
ATOM     29  C   UNL     1       0.171  11.060  19.717  0.00  0.00    +0.000 A 
ATOM     30  F   UNL     1       0.272  11.572  18.478  0.00  0.00    +0.000 F 
ENDBRANCH  19  20
ENDBRANCH  17  19
ENDBRANCH   1  17
TORSDOF 10
ENDMDL
MODEL 5
REMARK VINA RESULT:      -7.3      4.705      7.532
REMARK  Name = 
REMARK  10 active torsions:
REMARK  status: ('A' for Active; 'I' for Inactive)
REMARK    1  A    between atoms: S_2  and  C_3
REMARK    2  A    between atoms: S_2  and  C_19
REMARK    3  A    between atoms: C_3  and  C_4
REMARK    4  A    between atoms: C_5  and  C_6
REMARK    5  A    between atoms: C_11  and  C_12
REMARK    6  A    between atoms: C_13  and  C_14
REMARK    7  A    between atoms: C_14  and  C_15
REMARK    8  A    between atoms: C_15  and  C_16
REMARK    9  A    between atoms: C_16  and  C_17
REMARK   10  A    between atoms: C_17  and  O_18
REMARK                            x       y       z     vdW  Elec       q    Type
REMARK                         _______ _______ _______ _____ _____    ______ ____
ROOT
ATOM      1  C   UNL     1       3.482   5.087  17.318  0.00  0.00    +0.000 C 
ATOM      2  C   UNL     1       2.850   6.079  17.880  0.00  0.00    +0.000 C 
ENDROOT
BRANCH   2   3
ATOM      3  C   UNL     1       2.230   7.199  18.521  0.00  0.00    +0.000 A 
ATOM      4  C   UNL     1       2.086   8.407  17.832  0.00  0.00    +0.000 A 
ATOM      5  C   UNL     1       1.677   9.553  18.518  0.00  0.00    +0.000 A 
ATOM      6  C   UNL     1       1.335   9.476  19.868  0.00  0.00    +0.000 A 
ATOM      7  C   UNL     1       1.375   8.247  20.528  0.00  0.00    +0.000 A 
ATOM      8  C   UNL     1       1.849   7.111  19.864  0.00  0.00    +0.000 A 
BRANCH   8   9
ATOM      9  C   UNL     1       1.990   5.875  20.572  0.00  0.00    +0.000 C 
ATOM     10  C   UNL     1       2.081   4.749  21.224  0.00  0.00    +0.000 C 
BRANCH  10  11
ATOM     11  C   UNL     1       2.187   3.436  21.984  0.00  0.00    +0.000 C 
BRANCH  11  12
ATOM     12  C   UNL     1       1.568   2.313  21.164  0.00  0.00    +0.000 C 
BRANCH  12  13
ATOM     13  C   UNL     1       2.010   2.398  19.710  0.00  0.00    +0.000 C 
BRANCH  13  14
ATOM     14  C   UNL     1       0.821   2.270  18.771  0.00  0.00    +0.000 C 
BRANCH  14  15
ATOM     15  O   UNL     1       0.823   3.350  17.849  0.00  0.00    +0.000 OA
ATOM     16  H   UNL     1       1.480   3.997  18.158  0.00  0.00    +0.000 HD
ENDBRANCH  14  15
ENDBRANCH  13  14
ENDBRANCH  12  13
ENDBRANCH  11  12
ENDBRANCH  10  11
ENDBRANCH   8   9
ENDBRANCH   2   3
BRANCH   1  17
ATOM     17  C   UNL     1       4.220   3.931  16.663  0.00  0.00    +0.000 C 
BRANCH  17  19
ATOM     18  O   UNL     1       6.503   3.517  15.147  0.00  0.00    +0.000 OA
ATOM     19  S   UNL     1       5.560   4.673  15.636  0.00  0.00    +0.000 S 
BRANCH  19  20
ATOM     20  C   UNL     1       6.483   5.656  16.843  0.00  0.00    +0.000 A 
ATOM     21  C   UNL     1       7.244   5.094  17.880  0.00  0.00    +0.000 A 
ATOM     22  F   UNL     1       7.237   3.778  18.117  0.00  0.00    +0.000 F 
ATOM     23  C   UNL     1       8.035   5.905  18.700  0.00  0.00    +0.000 A 
ATOM     24  F   UNL     1       8.764   5.346  19.680  0.00  0.00    +0.000 F 
ATOM     25  C   UNL     1       8.087   7.271  18.508  0.00  0.00    +0.000 A 
ATOM     26  F   UNL     1       8.861   8.039  19.290  0.00  0.00    +0.000 F 
ATOM     27  C   UNL     1       7.327   7.845  17.500  0.00  0.00    +0.000 A 
ATOM     28  F   UNL     1       7.359   9.165  17.301  0.00  0.00    +0.000 F 
ATOM     29  C   UNL     1       6.538   7.043  16.683  0.00  0.00    +0.000 A 
ATOM     30  F   UNL     1       5.822   7.624  15.704  0.00  0.00    +0.000 F 
ENDBRANCH  19  20
ENDBRANCH  17  19
ENDBRANCH   1  17
TORSDOF 10
ENDMDL
MODEL 6
REMARK VINA RESULT:      -7.3      1.936      2.741
REMARK  Name = 
REMARK  10 active torsions:
REMARK  status: ('A' for Active; 'I' for Inactive)
REMARK    1  A    between atoms: S_2  and  C_3
REMARK    2  A    between atoms: S_2  and  C_19
REMARK    3  A    between atoms: C_3  and  C_4
REMARK    4  A    between atoms: C_5  and  C_6
REMARK    5  A    between atoms: C_11  and  C_12
REMARK    6  A    between atoms: C_13  and  C_14
REMARK    7  A    between atoms: C_14  and  C_15
REMARK    8  A    between atoms: C_15  and  C_16
REMARK    9  A    between atoms: C_16  and  C_17
REMARK   10  A    between atoms: C_17  and  O_18
REMARK                            x       y       z     vdW  Elec       q    Type
REMARK                         _______ _______ _______ _____ _____    ______ ____
ROOT
ATOM      1  C   UNL     1       2.975   8.519  17.633  0.00  0.00    +0.000 C 
ATOM      2  C   UNL     1       3.662   7.477  17.260  0.00  0.00    +0.000 C 
ENDROOT
BRANCH   2   3
ATOM      3  C   UNL     1       4.466   6.382  16.807  0.00  0.00    +0.000 A 
ATOM      4  C   UNL     1       5.214   6.503  15.631  0.00  0.00    +0.000 A 
ATOM      5  C   UNL     1       5.826   5.377  15.078  0.00  0.00    +0.000 A 
ATOM      6  C   UNL     1       5.760   4.150  15.737  0.00  0.00    +0.000 A 
ATOM      7  C   UNL     1       5.104   4.052  16.966  0.00  0.00    +0.000 A 
ATOM      8  C   UNL     1       4.432   5.162  17.490  0.00  0.00    +0.000 A 
BRANCH   8   9
ATOM      9  C   UNL     1       3.671   5.033  18.696  0.00  0.00    +0.000 C 
ATOM     10  C   UNL     1       2.966   4.883  19.782  0.00  0.00    +0.000 C 
BRANCH  10  11
ATOM     11  C   UNL     1       2.143   4.708  21.048  0.00  0.00    +0.000 C 
BRANCH  11  12
ATOM     12  C   UNL     1       0.967   3.780  20.776  0.00  0.00    +0.000 C 
BRANCH  12  13
ATOM     13  C   UNL     1       1.449   2.441  20.236  0.00  0.00    +0.000 C 
BRANCH  13  14
ATOM     14  C   UNL     1       0.992   2.236  18.800  0.00  0.00    +0.000 C 
BRANCH  14  15
ATOM     15  O   UNL     1       2.085   1.789  18.011  0.00  0.00    +0.000 OA
ATOM     16  H   UNL     1       2.496   2.574  17.610  0.00  0.00    +0.000 HD
ENDBRANCH  14  15
ENDBRANCH  13  14
ENDBRANCH  12  13
ENDBRANCH  11  12
ENDBRANCH  10  11
ENDBRANCH   8   9
ENDBRANCH   2   3
BRANCH   1  17
ATOM     17  C   UNL     1       2.174   9.736  18.067  0.00  0.00    +0.000 C 
BRANCH  17  19
ATOM     18  O   UNL     1      -0.516   9.555  17.424  0.00  0.00    +0.000 OA
ATOM     19  S   UNL     1       0.500   9.125  18.541  0.00  0.00    +0.000 S 
BRANCH  19  20
ATOM     20  C   UNL     1       0.129  10.100  20.021  0.00  0.00    +0.000 A 
ATOM     21  C   UNL     1      -0.205  11.462  19.986  0.00  0.00    +0.000 A 
ATOM     22  F   UNL     1      -0.151  12.167  18.850  0.00  0.00    +0.000 F 
ATOM     23  C   UNL     1      -0.604  12.125  21.151  0.00  0.00    +0.000 A 
ATOM     24  F   UNL     1      -0.929  13.428  21.094  0.00  0.00    +0.000 F 
ATOM     25  C   UNL     1      -0.681  11.457  22.356  0.00  0.00    +0.000 A 
ATOM     26  F   UNL     1      -1.081  12.098  23.465  0.00  0.00    +0.000 F 
ATOM     27  C   UNL     1      -0.337  10.114  22.411  0.00  0.00    +0.000 A 
ATOM     28  F   UNL     1      -0.399   9.451  23.568  0.00  0.00    +0.000 F 
ATOM     29  C   UNL     1       0.062   9.451  21.256  0.00  0.00    +0.000 A 
ATOM     30  F   UNL     1       0.376   8.146  21.335  0.00  0.00    +0.000 F 
ENDBRANCH  19  20
ENDBRANCH  17  19
ENDBRANCH   1  17
TORSDOF 10
ENDMDL
MODEL 7
REMARK VINA RESULT:      -7.3      0.530      2.023
REMARK  Name = 
REMARK  10 active torsions:
REMARK  status: ('A' for Active; 'I' for Inactive)
REMARK    1  A    between atoms: S_2  and  C_3
REMARK    2  A    between atoms: S_2  and  C_19
REMARK    3  A    between atoms: C_3  and  C_4
REMARK    4  A    between atoms: C_5  and  C_6
REMARK    5  A    between atoms: C_11  and  C_12
REMARK    6  A    between atoms: C_13  and  C_14
REMARK    7  A    between atoms: C_14  and  C_15
REMARK    8  A    between atoms: C_15  and  C_16
REMARK    9  A    between atoms: C_16  and  C_17
REMARK   10  A    between atoms: C_17  and  O_18
REMARK                            x       y       z     vdW  Elec       q    Type
REMARK                         _______ _______ _______ _____ _____    ______ ____
ROOT
ATOM      1  C   UNL     1       2.789   7.411  18.408  0.00  0.00    +0.000 C 
ATOM      2  C   UNL     1       3.638   6.619  17.816  0.00  0.00    +0.000 C 
ENDROOT
BRANCH   2   3
ATOM      3  C   UNL     1       4.628   5.807  17.174  0.00  0.00    +0.000 A 
ATOM      4  C   UNL     1       5.782   6.397  16.650  0.00  0.00    +0.000 A 
ATOM      5  C   UNL     1       6.642   5.646  15.844  0.00  0.00    +0.000 A 
ATOM      6  C   UNL     1       6.393   4.291  15.629  0.00  0.00    +0.000 A 
ATOM      7  C   UNL     1       5.298   3.677  16.241  0.00  0.00    +0.000 A 
ATOM      8  C   UNL     1       4.398   4.440  16.992  0.00  0.00    +0.000 A 
BRANCH   8   9
ATOM      9  C   UNL     1       3.220   3.830  17.531  0.00  0.00    +0.000 C 
ATOM     10  C   UNL     1       2.167   3.244  18.029  0.00  0.00    +0.000 C 
BRANCH  10  11
ATOM     11  C   UNL     1       0.939   2.560  18.609  0.00  0.00    +0.000 C 
BRANCH  11  12
ATOM     12  C   UNL     1       0.590   3.179  19.955  0.00  0.00    +0.000 C 
BRANCH  12  13
ATOM     13  C   UNL     1       1.541   2.690  21.038  0.00  0.00    +0.000 C 
BRANCH  13  14
ATOM     14  C   UNL     1       2.336   3.844  21.628  0.00  0.00    +0.000 C 
BRANCH  14  15
ATOM     15  O   UNL     1       1.957   5.057  20.995  0.00  0.00    +0.000 OA
ATOM     16  H   UNL     1       2.317   5.040  20.091  0.00  0.00    +0.000 HD
ENDBRANCH  14  15
ENDBRANCH  13  14
ENDBRANCH  12  13
ENDBRANCH  11  12
ENDBRANCH  10  11
ENDBRANCH   8   9
ENDBRANCH   2   3
BRANCH   1  17
ATOM     17  C   UNL     1       1.801   8.336  19.099  0.00  0.00    +0.000 C 
BRANCH  17  19
ATOM     18  O   UNL     1       2.555  10.567  17.636  0.00  0.00    +0.000 OA
ATOM     19  S   UNL     1       1.324   9.618  17.862  0.00  0.00    +0.000 S 
BRANCH  19  20
ATOM     20  C   UNL     1       0.059  10.566  18.744  0.00  0.00    +0.000 A 
ATOM     21  C   UNL     1      -1.253  10.730  18.274  0.00  0.00    +0.000 A 
ATOM     22  F   UNL     1      -1.624  10.287  17.067  0.00  0.00    +0.000 F 
ATOM     23  C   UNL     1      -2.216  11.367  19.063  0.00  0.00    +0.000 A 
ATOM     24  F   UNL     1      -3.470  11.503  18.599  0.00  0.00    +0.000 F 
ATOM     25  C   UNL     1      -1.900  11.846  20.319  0.00  0.00    +0.000 A 
ATOM     26  F   UNL     1      -2.834  12.442  21.075  0.00  0.00    +0.000 F 
ATOM     27  C   UNL     1      -0.602  11.710  20.790  0.00  0.00    +0.000 A 
ATOM     28  F   UNL     1      -0.274  12.172  21.999  0.00  0.00    +0.000 F 
ATOM     29  C   UNL     1       0.359  11.078  20.008  0.00  0.00    +0.000 A 
ATOM     30  F   UNL     1       1.605  10.947  20.496  0.00  0.00    +0.000 F 
ENDBRANCH  19  20
ENDBRANCH  17  19
ENDBRANCH   1  17
TORSDOF 10
ENDMDL
MODEL 8
REMARK VINA RESULT:      -7.3      1.762      4.408
REMARK  Name = 
REMARK  10 active torsions:
REMARK  status: ('A' for Active; 'I' for Inactive)
REMARK    1  A    between atoms: S_2  and  C_3
REMARK    2  A    between atoms: S_2  and  C_19
REMARK    3  A    between atoms: C_3  and  C_4
REMARK    4  A    between atoms: C_5  and  C_6
REMARK    5  A    between atoms: C_11  and  C_12
REMARK    6  A    between atoms: C_13  and  C_14
REMARK    7  A    between atoms: C_14  and  C_15
REMARK    8  A    between atoms: C_15  and  C_16
REMARK    9  A    between atoms: C_16  and  C_17
REMARK   10  A    between atoms: C_17  and  O_18
REMARK                            x       y       z     vdW  Elec       q    Type
REMARK                         _______ _______ _______ _____ _____    ______ ____
ROOT
ATOM      1  C   UNL     1       1.983   7.678  18.742  0.00  0.00    +0.000 C 
ATOM      2  C   UNL     1       2.049   6.408  19.029  0.00  0.00    +0.000 C 
ENDROOT
BRANCH   2   3
ATOM      3  C   UNL     1       2.043   5.017  19.371  0.00  0.00    +0.000 A 
ATOM      4  C   UNL     1       1.208   4.553  20.392  0.00  0.00    +0.000 A 
ATOM      5  C   UNL     1       1.352   3.247  20.867  0.00  0.00    +0.000 A 
ATOM      6  C   UNL     1       2.271   2.383  20.271  0.00  0.00    +0.000 A 
ATOM      7  C   UNL     1       3.028   2.815  19.179  0.00  0.00    +0.000 A 
ATOM      8  C   UNL     1       2.935   4.142  18.745  0.00  0.00    +0.000 A 
BRANCH   8   9
ATOM      9  C   UNL     1       3.788   4.612  17.696  0.00  0.00    +0.000 C 
ATOM     10  C   UNL     1       4.554   5.075  16.748  0.00  0.00    +0.000 C 
BRANCH  10  11
ATOM     11  C   UNL     1       5.447   5.616  15.642  0.00  0.00    +0.000 C 
BRANCH  11  12
ATOM     12  C   UNL     1       6.909   5.484  16.047  0.00  0.00    +0.000 C 
BRANCH  12  13
ATOM     13  C   UNL     1       7.231   6.404  17.217  0.00  0.00    +0.000 C 
BRANCH  13  14
ATOM     14  C   UNL     1       7.630   5.602  18.446  0.00  0.00    +0.000 C 
BRANCH  14  15
ATOM     15  O   UNL     1       7.797   4.238  18.093  0.00  0.00    +0.000 OA
ATOM     16  H   UNL     1       6.942   3.916  17.756  0.00  0.00    +0.000 HD
ENDBRANCH  14  15
ENDBRANCH  13  14
ENDBRANCH  12  13
ENDBRANCH  11  12
ENDBRANCH  10  11
ENDBRANCH   8   9
ENDBRANCH   2   3
BRANCH   1  17
ATOM     17  C   UNL     1       1.905   9.158  18.408  0.00  0.00    +0.000 C 
BRANCH  17  19
ATOM     18  O   UNL     1       0.556   8.852  20.810  0.00  0.00    +0.000 OA
ATOM     19  S   UNL     1       0.985   9.964  19.787  0.00  0.00    +0.000 S 
BRANCH  19  20
ATOM     20  C   UNL     1      -0.515  10.559  18.967  0.00  0.00    +0.000 A 
ATOM     21  C   UNL     1      -1.001  10.027  17.763  0.00  0.00    +0.000 A 
ATOM     22  F   UNL     1      -0.310   9.113  17.073  0.00  0.00    +0.000 F 
ATOM     23  C   UNL     1      -2.232  10.445  17.248  0.00  0.00    +0.000 A 
ATOM     24  F   UNL     1      -2.685   9.915  16.099  0.00  0.00    +0.000 F 
ATOM     25  C   UNL     1      -2.997  11.385  17.911  0.00  0.00    +0.000 A 
ATOM     26  F   UNL     1      -4.183  11.767  17.418  0.00  0.00    +0.000 F 
ATOM     27  C   UNL     1      -2.521  11.934  19.093  0.00  0.00    +0.000 A 
ATOM     28  F   UNL     1      -3.242  12.849  19.746  0.00  0.00    +0.000 F 
ATOM     29  C   UNL     1      -1.297  11.523  19.607  0.00  0.00    +0.000 A 
ATOM     30  F   UNL     1      -0.867  12.062  20.762  0.00  0.00    +0.000 F 
ENDBRANCH  19  20
ENDBRANCH  17  19
ENDBRANCH   1  17
TORSDOF 10
ENDMDL
MODEL 9
REMARK VINA RESULT:      -7.3      3.372      6.127
REMARK  Name = 
REMARK  10 active torsions:
REMARK  status: ('A' for Active; 'I' for Inactive)
REMARK    1  A    between atoms: S_2  and  C_3
REMARK    2  A    between atoms: S_2  and  C_19
REMARK    3  A    between atoms: C_3  and  C_4
REMARK    4  A    between atoms: C_5  and  C_6
REMARK    5  A    between atoms: C_11  and  C_12
REMARK    6  A    between atoms: C_13  and  C_14
REMARK    7  A    between atoms: C_14  and  C_15
REMARK    8  A    between atoms: C_15  and  C_16
REMARK    9  A    between atoms: C_16  and  C_17
REMARK   10  A    between atoms: C_17  and  O_18
REMARK                            x       y       z     vdW  Elec       q    Type
REMARK                         _______ _______ _______ _____ _____    ______ ____
ROOT
ATOM      1  C   UNL     1       4.113   3.688  16.545  0.00  0.00    +0.000 C 
ATOM      2  C   UNL     1       4.885   3.938  15.525  0.00  0.00    +0.000 C 
ENDROOT
BRANCH   2   3
ATOM      3  C   UNL     1       5.702   4.145  14.367  0.00  0.00    +0.000 A 
ATOM      4  C   UNL     1       5.445   3.430  13.194  0.00  0.00    +0.000 A 
ATOM      5  C   UNL     1       6.360   3.473  12.139  0.00  0.00    +0.000 A 
ATOM      6  C   UNL     1       7.487   4.291  12.224  0.00  0.00    +0.000 A 
ATOM      7  C   UNL     1       7.687   5.088  13.353  0.00  0.00    +0.000 A 
ATOM      8  C   UNL     1       6.810   4.996  14.439  0.00  0.00    +0.000 A 
BRANCH   8   9
ATOM      9  C   UNL     1       7.074   5.734  15.637  0.00  0.00    +0.000 C 
ATOM     10  C   UNL     1       7.320   6.373  16.746  0.00  0.00    +0.000 C 
BRANCH  10  11
ATOM     11  C   UNL     1       7.607   7.119  18.040  0.00  0.00    +0.000 C 
BRANCH  11  12
ATOM     12  C   UNL     1       7.815   8.598  17.749  0.00  0.00    +0.000 C 
BRANCH  12  13
ATOM     13  C   UNL     1       8.907   9.177  18.638  0.00  0.00    +0.000 C 
BRANCH  13  14
ATOM     14  C   UNL     1       9.110  10.658  18.359  0.00  0.00    +0.000 C 
BRANCH  14  15
ATOM     15  O   UNL     1       9.157  11.372  19.585  0.00  0.00    +0.000 OA
ATOM     16  H   UNL     1      10.092  11.443  19.846  0.00  0.00    +0.000 HD
ENDBRANCH  14  15
ENDBRANCH  13  14
ENDBRANCH  12  13
ENDBRANCH  11  12
ENDBRANCH  10  11
ENDBRANCH   8   9
ENDBRANCH   2   3
BRANCH   1  17
ATOM     17  C   UNL     1       3.211   3.397  17.733  0.00  0.00    +0.000 C 
BRANCH  17  19
ATOM     18  O   UNL     1       3.641   3.423  20.472  0.00  0.00    +0.000 OA
ATOM     19  S   UNL     1       3.949   4.265  19.182  0.00  0.00    +0.000 S 
BRANCH  19  20
ATOM     20  C   UNL     1       2.968   5.783  19.275  0.00  0.00    +0.000 A 
ATOM     21  C   UNL     1       2.101   6.080  20.338  0.00  0.00    +0.000 A 
ATOM     22  F   UNL     1       1.851   5.191  21.306  0.00  0.00    +0.000 F 
ATOM     23  C   UNL     1       1.469   7.325  20.412  0.00  0.00    +0.000 A 
ATOM     24  F   UNL     1       0.651   7.594  21.443  0.00  0.00    +0.000 F 
ATOM     25  C   UNL     1       1.684   8.289  19.446  0.00  0.00    +0.000 A 
ATOM     26  F   UNL     1       1.086   9.486  19.534  0.00  0.00    +0.000 F 
ATOM     27  C   UNL     1       2.524   8.004  18.379  0.00  0.00    +0.000 A 
ATOM     28  F   UNL     1       2.741   8.919  17.431  0.00  0.00    +0.000 F 
ATOM     29  C   UNL     1       3.153   6.767  18.301  0.00  0.00    +0.000 A 
ATOM     30  F   UNL     1       3.973   6.523  17.263  0.00  0.00    +0.000 F 
ENDBRANCH  19  20
ENDBRANCH  17  19
ENDBRANCH   1  17
TORSDOF 10
ENDMDL
