MODEL 1
REMARK VINA RESULT:      -5.6      0.000      0.000
REMARK  Name = 
REMARK  17 active torsions:
REMARK  status: ('A' for Active; 'I' for Inactive)
REMARK    1  A    between atoms: C_1  and  C_2
REMARK    2  A    between atoms: C_2  and  C_3
REMARK    3  A    between atoms: C_3  and  C_4
REMARK    4  A    between atoms: C_4  and  C_5
REMARK    5  A    between atoms: C_5  and  C_6
REMARK    6  A    between atoms: C_6  and  C_7
REMARK    7  A    between atoms: C_7  and  C_8
REMARK    8  A    between atoms: C_8  and  C_9
REMARK    9  A    between atoms: C_9  and  C_10
REMARK   10  A    between atoms: C_10  and  C_11
REMARK   11  A    between atoms: C_11  and  C_12
REMARK   12  A    between atoms: C_12  and  C_13
REMARK   13  A    between atoms: C_13  and  C_14
REMARK   14  A    between atoms: C_14  and  C_15
REMARK   15  A    between atoms: C_15  and  C_16
REMARK   16  A    between atoms: C_16  and  O_18
REMARK   17  A    between atoms: O_18  and  C_19
REMARK                            x       y       z     vdW  Elec       q    Type
REMARK                         _______ _______ _______ _____ _____    ______ ____
ROOT
ATOM      1  C   UNL     1       5.500   5.486  18.982  0.00  0.00    +0.000 C 
ENDROOT
BRANCH   1   2
ATOM      2  C   UNL     1       4.432   5.775  17.939  0.00  0.00    +0.000 C 
BRANCH   2   3
ATOM      3  C   UNL     1       3.072   5.911  18.605  0.00  0.00    +0.000 C 
BRANCH   3   4
ATOM      4  C   UNL     1       3.141   5.424  20.043  0.00  0.00    +0.000 C 
BRANCH   4   5
ATOM      5  C   UNL     1       1.783   5.565  20.708  0.00  0.00    +0.000 C 
BRANCH   5   6
ATOM      6  C   UNL     1       0.896   4.387  20.341  0.00  0.00    +0.000 C 
BRANCH   6   7
ATOM      7  C   UNL     1       1.360   3.135  21.068  0.00  0.00    +0.000 C 
BRANCH   7   8
ATOM      8  C   UNL     1       1.961   2.145  20.083  0.00  0.00    +0.000 C 
BRANCH   8   9
ATOM      9  C   UNL     1       1.291   2.284  18.722  0.00  0.00    +0.000 C 
BRANCH   9  11
ATOM     10  C   UNL     1       3.712   2.108  18.117  0.00  0.00    +0.000 C 
ATOM     11  C   UNL     1       2.329   2.497  17.628  0.00  0.00    +0.000 C 
ENDBRANCH   9  11
ENDBRANCH   8   9
ENDBRANCH   7   8
ENDBRANCH   6   7
ENDBRANCH   5   6
ENDBRANCH   4   5
ENDBRANCH   3   4
ENDBRANCH   2   3
ENDBRANCH   1   2
BRANCH   1  12
ATOM     12  C   UNL     1       6.776   4.994  18.316  0.00  0.00    +0.000 C 
BRANCH  12  13
ATOM     13  C   UNL     1       6.896   5.554  16.902  0.00  0.00    +0.000 C 
BRANCH  13  14
ATOM     14  C   UNL     1       7.330   4.455  15.941  0.00  0.00    +0.000 C 
BRANCH  14  15
ATOM     15  C   UNL     1       6.389   4.322  14.749  0.00  0.00    +0.000 C 
BRANCH  15  16
ATOM     16  C   UNL     1       7.080   4.785  13.486  0.00  0.00    +0.000 C 
ATOM     17  O   UNL     1       8.125   5.407  13.440  0.00  0.00    +0.000 OA
BRANCH  16  18
ATOM     18  O   UNL     1       6.413   4.302  12.395  0.00  0.00    +0.000 OA
BRANCH  18  19
ATOM     19  C   UNL     1       6.387   2.860  12.324  0.00  0.00    +0.000 C 
ATOM     20  C   UNL     1       5.264   2.267  11.431  0.00  0.00    +0.000 C 
ATOM     21  C   UNL     1       6.279   1.219  10.951  0.00  0.00    +0.000 C 
ATOM     22  C   UNL     1       7.386   2.227  11.316  0.00  0.00    +0.000 C 
ENDBRANCH  18  19
ENDBRANCH  16  18
ENDBRANCH  15  16
ENDBRANCH  14  15
ENDBRANCH  13  14
ENDBRANCH  12  13
ENDBRANCH   1  12
TORSDOF 16
ENDMDL
MODEL 2
REMARK VINA RESULT:      -5.5      1.059      2.596
REMARK  Name = 
REMARK  17 active torsions:
REMARK  status: ('A' for Active; 'I' for Inactive)
REMARK    1  A    between atoms: C_1  and  C_2
REMARK    2  A    between atoms: C_2  and  C_3
REMARK    3  A    between atoms: C_3  and  C_4
REMARK    4  A    between atoms: C_4  and  C_5
REMARK    5  A    between atoms: C_5  and  C_6
REMARK    6  A    between atoms: C_6  and  C_7
REMARK    7  A    between atoms: C_7  and  C_8
REMARK    8  A    between atoms: C_8  and  C_9
REMARK    9  A    between atoms: C_9  and  C_10
REMARK   10  A    between atoms: C_10  and  C_11
REMARK   11  A    between atoms: C_11  and  C_12
REMARK   12  A    between atoms: C_12  and  C_13
REMARK   13  A    between atoms: C_13  and  C_14
REMARK   14  A    between atoms: C_14  and  C_15
REMARK   15  A    between atoms: C_15  and  C_16
REMARK   16  A    between atoms: C_16  and  O_18
REMARK   17  A    between atoms: O_18  and  C_19
REMARK                            x       y       z     vdW  Elec       q    Type
REMARK                         _______ _______ _______ _____ _____    ______ ____
ROOT
ATOM      1  C   UNL     1       5.300   4.365  17.694  0.00  0.00    +0.000 C 
ENDROOT
BRANCH   1   2
ATOM      2  C   UNL     1       4.367   3.413  16.964  0.00  0.00    +0.000 C 
BRANCH   2   3
ATOM      3  C   UNL     1       3.402   2.769  17.947  0.00  0.00    +0.000 C 
BRANCH   3   4
ATOM      4  C   UNL     1       1.978   3.204  17.645  0.00  0.00    +0.000 C 
BRANCH   4   5
ATOM      5  C   UNL     1       1.004   2.469  18.550  0.00  0.00    +0.000 C 
BRANCH   5   6
ATOM      6  C   UNL     1       1.387   2.675  20.007  0.00  0.00    +0.000 C 
BRANCH   6   7
ATOM      7  C   UNL     1       0.984   4.068  20.463  0.00  0.00    +0.000 C 
BRANCH   7   8
ATOM      8  C   UNL     1       2.143   4.743  21.180  0.00  0.00    +0.000 C 
BRANCH   8   9
ATOM      9  C   UNL     1       2.989   5.532  20.189  0.00  0.00    +0.000 C 
BRANCH   9  11
ATOM     10  C   UNL     1       1.777   7.706  20.435  0.00  0.00    +0.000 C 
ATOM     11  C   UNL     1       2.149   6.587  19.481  0.00  0.00    +0.000 C 
ENDBRANCH   9  11
ENDBRANCH   8   9
ENDBRANCH   7   8
ENDBRANCH   6   7
ENDBRANCH   5   6
ENDBRANCH   4   5
ENDBRANCH   3   4
ENDBRANCH   2   3
ENDBRANCH   1   2
BRANCH   1  12
ATOM     12  C   UNL     1       5.007   5.805  17.301  0.00  0.00    +0.000 C 
BRANCH  12  13
ATOM     13  C   UNL     1       5.356   6.045  15.836  0.00  0.00    +0.000 C 
BRANCH  13  14
ATOM     14  C   UNL     1       6.723   5.453  15.520  0.00  0.00    +0.000 C 
BRANCH  14  15
ATOM     15  C   UNL     1       6.681   4.500  14.331  0.00  0.00    +0.000 C 
BRANCH  15  16
ATOM     16  C   UNL     1       7.505   5.056  13.190  0.00  0.00    +0.000 C 
ATOM     17  O   UNL     1       8.397   5.876  13.298  0.00  0.00    +0.000 OA
BRANCH  16  18
ATOM     18  O   UNL     1       7.173   4.413  12.030  0.00  0.00    +0.000 OA
BRANCH  18  19
ATOM     19  C   UNL     1       6.742   3.049  12.227  0.00  0.00    +0.000 C 
ATOM     20  C   UNL     1       5.311   2.733  11.714  0.00  0.00    +0.000 C 
ATOM     21  C   UNL     1       5.847   1.379  11.227  0.00  0.00    +0.000 C 
ATOM     22  C   UNL     1       7.241   2.034  11.162  0.00  0.00    +0.000 C 
ENDBRANCH  18  19
ENDBRANCH  16  18
ENDBRANCH  15  16
ENDBRANCH  14  15
ENDBRANCH  13  14
ENDBRANCH  12  13
ENDBRANCH   1  12
TORSDOF 16
ENDMDL
MODEL 3
REMARK VINA RESULT:      -5.4      1.859      4.263
REMARK  Name = 
REMARK  17 active torsions:
REMARK  status: ('A' for Active; 'I' for Inactive)
REMARK    1  A    between atoms: C_1  and  C_2
REMARK    2  A    between atoms: C_2  and  C_3
REMARK    3  A    between atoms: C_3  and  C_4
REMARK    4  A    between atoms: C_4  and  C_5
REMARK    5  A    between atoms: C_5  and  C_6
REMARK    6  A    between atoms: C_6  and  C_7
REMARK    7  A    between atoms: C_7  and  C_8
REMARK    8  A    between atoms: C_8  and  C_9
REMARK    9  A    between atoms: C_9  and  C_10
REMARK   10  A    between atoms: C_10  and  C_11
REMARK   11  A    between atoms: C_11  and  C_12
REMARK   12  A    between atoms: C_12  and  C_13
REMARK   13  A    between atoms: C_13  and  C_14
REMARK   14  A    between atoms: C_14  and  C_15
REMARK   15  A    between atoms: C_15  and  C_16
REMARK   16  A    between atoms: C_16  and  O_18
REMARK   17  A    between atoms: O_18  and  C_19
REMARK                            x       y       z     vdW  Elec       q    Type
REMARK                         _______ _______ _______ _____ _____    ______ ____
ROOT
ATOM      1  C   UNL     1       2.574   3.265  17.043  0.00  0.00    +0.000 C 
ENDROOT
BRANCH   1   2
ATOM      2  C   UNL     1       2.933   2.071  17.914  0.00  0.00    +0.000 C 
BRANCH   2   3
ATOM      3  C   UNL     1       1.971   1.970  19.087  0.00  0.00    +0.000 C 
BRANCH   3   4
ATOM      4  C   UNL     1       2.575   2.624  20.318  0.00  0.00    +0.000 C 
BRANCH   4   5
ATOM      5  C   UNL     1       1.548   3.519  20.991  0.00  0.00    +0.000 C 
BRANCH   5   6
ATOM      6  C   UNL     1       2.082   4.938  21.100  0.00  0.00    +0.000 C 
BRANCH   6   7
ATOM      7  C   UNL     1       1.909   5.666  19.778  0.00  0.00    +0.000 C 
BRANCH   7   8
ATOM      8  C   UNL     1       2.415   7.096  19.893  0.00  0.00    +0.000 C 
BRANCH   8   9
ATOM      9  C   UNL     1       1.256   8.045  20.170  0.00  0.00    +0.000 C 
BRANCH   9  11
ATOM     10  C   UNL     1      -0.065   9.038  22.047  0.00  0.00    +0.000 C 
ATOM     11  C   UNL     1       1.302   8.548  21.607  0.00  0.00    +0.000 C 
ENDBRANCH   9  11
ENDBRANCH   8   9
ENDBRANCH   7   8
ENDBRANCH   6   7
ENDBRANCH   5   6
ENDBRANCH   4   5
ENDBRANCH   3   4
ENDBRANCH   2   3
ENDBRANCH   1   2
BRANCH   1  12
ATOM     12  C   UNL     1       3.577   4.391  17.243  0.00  0.00    +0.000 C 
BRANCH  12  13
ATOM     13  C   UNL     1       4.936   3.834  17.655  0.00  0.00    +0.000 C 
BRANCH  13  14
ATOM     14  C   UNL     1       5.625   4.796  18.614  0.00  0.00    +0.000 C 
BRANCH  14  15
ATOM     15  C   UNL     1       6.974   5.272  18.087  0.00  0.00    +0.000 C 
BRANCH  15  16
ATOM     16  C   UNL     1       6.788   6.030  16.791  0.00  0.00    +0.000 C 
ATOM     17  O   UNL     1       6.209   7.093  16.672  0.00  0.00    +0.000 OA
BRANCH  16  18
ATOM     18  O   UNL     1       7.468   5.397  15.788  0.00  0.00    +0.000 OA
BRANCH  18  19
ATOM     19  C   UNL     1       6.667   5.150  14.612  0.00  0.00    +0.000 C 
ATOM     20  C   UNL     1       7.473   4.934  13.303  0.00  0.00    +0.000 C 
ATOM     21  C   UNL     1       6.462   3.841  12.929  0.00  0.00    +0.000 C 
ATOM     22  C   UNL     1       6.180   3.685  14.436  0.00  0.00    +0.000 C 
ENDBRANCH  18  19
ENDBRANCH  16  18
ENDBRANCH  15  16
ENDBRANCH  14  15
ENDBRANCH  13  14
ENDBRANCH  12  13
ENDBRANCH   1  12
TORSDOF 16
ENDMDL
MODEL 4
REMARK VINA RESULT:      -5.4      3.286      8.023
REMARK  Name = 
REMARK  17 active torsions:
REMARK  status: ('A' for Active; 'I' for Inactive)
REMARK    1  A    between atoms: C_1  and  C_2
REMARK    2  A    between atoms: C_2  and  C_3
REMARK    3  A    between atoms: C_3  and  C_4
REMARK    4  A    between atoms: C_4  and  C_5
REMARK    5  A    between atoms: C_5  and  C_6
REMARK    6  A    between atoms: C_6  and  C_7
REMARK    7  A    between atoms: C_7  and  C_8
REMARK    8  A    between atoms: C_8  and  C_9
REMARK    9  A    between atoms: C_9  and  C_10
REMARK   10  A    between atoms: C_10  and  C_11
REMARK   11  A    between atoms: C_11  and  C_12
REMARK   12  A    between atoms: C_12  and  C_13
REMARK   13  A    between atoms: C_13  and  C_14
REMARK   14  A    between atoms: C_14  and  C_15
REMARK   15  A    between atoms: C_15  and  C_16
REMARK   16  A    between atoms: C_16  and  O_18
REMARK   17  A    between atoms: O_18  and  C_19
REMARK                            x       y       z     vdW  Elec       q    Type
REMARK                         _______ _______ _______ _____ _____    ______ ____
ROOT
ATOM      1  C   UNL     1       6.127   4.553  17.642  0.00  0.00    +0.000 C 
ENDROOT
BRANCH   1   2
ATOM      2  C   UNL     1       5.877   5.927  17.042  0.00  0.00    +0.000 C 
BRANCH   2   3
ATOM      3  C   UNL     1       5.249   5.791  15.664  0.00  0.00    +0.000 C 
BRANCH   3   4
ATOM      4  C   UNL     1       6.221   5.121  14.708  0.00  0.00    +0.000 C 
BRANCH   4   5
ATOM      5  C   UNL     1       5.522   4.007  13.948  0.00  0.00    +0.000 C 
BRANCH   5   6
ATOM      6  C   UNL     1       6.417   3.495  12.830  0.00  0.00    +0.000 C 
BRANCH   6   7
ATOM      7  C   UNL     1       5.573   3.031  11.654  0.00  0.00    +0.000 C 
BRANCH   7   8
ATOM      8  C   UNL     1       4.164   3.594  11.762  0.00  0.00    +0.000 C 
BRANCH   8   9
ATOM      9  C   UNL     1       3.298   3.069  10.624  0.00  0.00    +0.000 C 
BRANCH   9  11
ATOM     10  C   UNL     1       2.157   4.835   9.269  0.00  0.00    +0.000 C 
ATOM     11  C   UNL     1       3.400   3.976   9.405  0.00  0.00    +0.000 C 
ENDBRANCH   9  11
ENDBRANCH   8   9
ENDBRANCH   7   8
ENDBRANCH   6   7
ENDBRANCH   5   6
ENDBRANCH   4   5
ENDBRANCH   3   4
ENDBRANCH   2   3
ENDBRANCH   1   2
BRANCH   1  12
ATOM     12  C   UNL     1       4.860   4.017  18.292  0.00  0.00    +0.000 C 
BRANCH  12  13
ATOM     13  C   UNL     1       4.160   3.024  17.369  0.00  0.00    +0.000 C 
BRANCH  13  14
ATOM     14  C   UNL     1       2.651   3.117  17.551  0.00  0.00    +0.000 C 
BRANCH  14  15
ATOM     15  C   UNL     1       2.146   2.213  18.670  0.00  0.00    +0.000 C 
BRANCH  15  16
ATOM     16  C   UNL     1       1.648   3.048  19.829  0.00  0.00    +0.000 C 
ATOM     17  O   UNL     1       1.645   2.704  20.997  0.00  0.00    +0.000 OA
BRANCH  16  18
ATOM     18  O   UNL     1       1.304   4.293  19.383  0.00  0.00    +0.000 OA
BRANCH  18  19
ATOM     19  C   UNL     1       2.055   5.358  20.004  0.00  0.00    +0.000 C 
ATOM     20  C   UNL     1       2.349   6.576  19.086  0.00  0.00    +0.000 C 
ATOM     21  C   UNL     1       2.086   7.480  20.299  0.00  0.00    +0.000 C 
ATOM     22  C   UNL     1       1.221   6.340  20.872  0.00  0.00    +0.000 C 
ENDBRANCH  18  19
ENDBRANCH  16  18
ENDBRANCH  15  16
ENDBRANCH  14  15
ENDBRANCH  13  14
ENDBRANCH  12  13
ENDBRANCH   1  12
TORSDOF 16
ENDMDL
MODEL 5
REMARK VINA RESULT:      -5.4      3.744      6.738
REMARK  Name = 
REMARK  17 active torsions:
REMARK  status: ('A' for Active; 'I' for Inactive)
REMARK    1  A    between atoms: C_1  and  C_2
REMARK    2  A    between atoms: C_2  and  C_3
REMARK    3  A    between atoms: C_3  and  C_4
REMARK    4  A    between atoms: C_4  and  C_5
REMARK    5  A    between atoms: C_5  and  C_6
REMARK    6  A    between atoms: C_6  and  C_7
REMARK    7  A    between atoms: C_7  and  C_8
REMARK    8  A    between atoms: C_8  and  C_9
REMARK    9  A    between atoms: C_9  and  C_10
REMARK   10  A    between atoms: C_10  and  C_11
REMARK   11  A    between atoms: C_11  and  C_12
REMARK   12  A    between atoms: C_12  and  C_13
REMARK   13  A    between atoms: C_13  and  C_14
REMARK   14  A    between atoms: C_14  and  C_15
REMARK   15  A    between atoms: C_15  and  C_16
REMARK   16  A    between atoms: C_16  and  O_18
REMARK   17  A    between atoms: O_18  and  C_19
REMARK                            x       y       z     vdW  Elec       q    Type
REMARK                         _______ _______ _______ _____ _____    ______ ____
ROOT
ATOM      1  C   UNL     1       2.023   6.066  19.189  0.00  0.00    +0.000 C 
ENDROOT
BRANCH   1   2
ATOM      2  C   UNL     1       2.208   7.568  19.337  0.00  0.00    +0.000 C 
BRANCH   2   3
ATOM      3  C   UNL     1       2.671   8.171  18.021  0.00  0.00    +0.000 C 
BRANCH   3   4
ATOM      4  C   UNL     1       2.006   9.518  17.798  0.00  0.00    +0.000 C 
BRANCH   4   5
ATOM      5  C   UNL     1       0.503   9.395  17.980  0.00  0.00    +0.000 C 
BRANCH   5   6
ATOM      6  C   UNL     1      -0.057  10.669  18.592  0.00  0.00    +0.000 C 
BRANCH   6   7
ATOM      7  C   UNL     1       1.038  11.417  19.336  0.00  0.00    +0.000 C 
BRANCH   7   8
ATOM      8  C   UNL     1       0.944  11.140  20.829  0.00  0.00    +0.000 C 
BRANCH   8   9
ATOM      9  C   UNL     1      -0.413  10.537  21.168  0.00  0.00    +0.000 C 
BRANCH   9  11
ATOM     10  C   UNL     1       1.200   9.051  22.371  0.00  0.00    +0.000 C 
ATOM     11  C   UNL     1      -0.249   9.250  21.965  0.00  0.00    +0.000 C 
ENDBRANCH   9  11
ENDBRANCH   8   9
ENDBRANCH   7   8
ENDBRANCH   6   7
ENDBRANCH   5   6
ENDBRANCH   4   5
ENDBRANCH   3   4
ENDBRANCH   2   3
ENDBRANCH   1   2
BRANCH   1  12
ATOM     12  C   UNL     1       2.058   5.387  20.549  0.00  0.00    +0.000 C 
BRANCH  12  13
ATOM     13  C   UNL     1       1.616   3.932  20.437  0.00  0.00    +0.000 C 
BRANCH  13  14
ATOM     14  C   UNL     1       1.125   3.643  19.025  0.00  0.00    +0.000 C 
BRANCH  14  15
ATOM     15  C   UNL     1       1.451   2.222  18.578  0.00  0.00    +0.000 C 
BRANCH  15  16
ATOM     16  C   UNL     1       2.884   2.143  18.102  0.00  0.00    +0.000 C 
ATOM     17  O   UNL     1       3.662   1.241  18.352  0.00  0.00    +0.000 OA
BRANCH  16  18
ATOM     18  O   UNL     1       3.143   3.182  17.252  0.00  0.00    +0.000 OA
BRANCH  18  19
ATOM     19  C   UNL     1       4.501   3.667  17.328  0.00  0.00    +0.000 C 
ATOM     20  C   UNL     1       4.689   5.155  16.926  0.00  0.00    +0.000 C 
ATOM     21  C   UNL     1       5.702   5.276  18.075  0.00  0.00    +0.000 C 
ATOM     22  C   UNL     1       4.977   4.092  18.744  0.00  0.00    +0.000 C 
ENDBRANCH  18  19
ENDBRANCH  16  18
ENDBRANCH  15  16
ENDBRANCH  14  15
ENDBRANCH  13  14
ENDBRANCH  12  13
ENDBRANCH   1  12
TORSDOF 16
ENDMDL
MODEL 6
REMARK VINA RESULT:      -5.3      4.447      8.472
REMARK  Name = 
REMARK  17 active torsions:
REMARK  status: ('A' for Active; 'I' for Inactive)
REMARK    1  A    between atoms: C_1  and  C_2
REMARK    2  A    between atoms: C_2  and  C_3
REMARK    3  A    between atoms: C_3  and  C_4
REMARK    4  A    between atoms: C_4  and  C_5
REMARK    5  A    between atoms: C_5  and  C_6
REMARK    6  A    between atoms: C_6  and  C_7
REMARK    7  A    between atoms: C_7  and  C_8
REMARK    8  A    between atoms: C_8  and  C_9
REMARK    9  A    between atoms: C_9  and  C_10
REMARK   10  A    between atoms: C_10  and  C_11
REMARK   11  A    between atoms: C_11  and  C_12
REMARK   12  A    between atoms: C_12  and  C_13
REMARK   13  A    between atoms: C_13  and  C_14
REMARK   14  A    between atoms: C_14  and  C_15
REMARK   15  A    between atoms: C_15  and  C_16
REMARK   16  A    between atoms: C_16  and  O_18
REMARK   17  A    between atoms: O_18  and  C_19
REMARK                            x       y       z     vdW  Elec       q    Type
REMARK                         _______ _______ _______ _____ _____    ______ ____
ROOT
ATOM      1  C   UNL     1       2.604   5.978  19.574  0.00  0.00    +0.000 C 
ENDROOT
BRANCH   1   2
ATOM      2  C   UNL     1       2.331   5.358  20.936  0.00  0.00    +0.000 C 
BRANCH   2   3
ATOM      3  C   UNL     1       2.098   3.863  20.793  0.00  0.00    +0.000 C 
BRANCH   3   4
ATOM      4  C   UNL     1       0.782   3.603  20.080  0.00  0.00    +0.000 C 
BRANCH   4   5
ATOM      5  C   UNL     1       0.977   2.564  18.988  0.00  0.00    +0.000 C 
BRANCH   5   6
ATOM      6  C   UNL     1       2.392   2.013  19.037  0.00  0.00    +0.000 C 
BRANCH   6   7
ATOM      7  C   UNL     1       3.018   2.053  17.652  0.00  0.00    +0.000 C 
BRANCH   7   8
ATOM      8  C   UNL     1       3.165   3.492  17.182  0.00  0.00    +0.000 C 
BRANCH   8   9
ATOM      9  C   UNL     1       4.635   3.889  17.154  0.00  0.00    +0.000 C 
BRANCH   9  11
ATOM     10  C   UNL     1       5.544   6.182  17.571  0.00  0.00    +0.000 C 
ATOM     11  C   UNL     1       4.805   5.293  16.588  0.00  0.00    +0.000 C 
ENDBRANCH   9  11
ENDBRANCH   8   9
ENDBRANCH   7   8
ENDBRANCH   6   7
ENDBRANCH   5   6
ENDBRANCH   4   5
ENDBRANCH   3   4
ENDBRANCH   2   3
ENDBRANCH   1   2
BRANCH   1  12
ATOM     12  C   UNL     1       1.952   7.348  19.472  0.00  0.00    +0.000 C 
BRANCH  12  13
ATOM     13  C   UNL     1       2.508   8.122  18.281  0.00  0.00    +0.000 C 
BRANCH  13  14
ATOM     14  C   UNL     1       1.473   9.117  17.775  0.00  0.00    +0.000 C 
BRANCH  14  15
ATOM     15  C   UNL     1       0.675   9.750  18.909  0.00  0.00    +0.000 C 
BRANCH  15  16
ATOM     16  C   UNL     1       1.307  11.062  19.321  0.00  0.00    +0.000 C 
ATOM     17  O   UNL     1       1.761  11.896  18.560  0.00  0.00    +0.000 OA
BRANCH  16  18
ATOM     18  O   UNL     1       1.189  11.223  20.673  0.00  0.00    +0.000 OA
BRANCH  18  19
ATOM     19  C   UNL     1       0.353  10.229  21.304  0.00  0.00    +0.000 C 
ATOM     20  C   UNL     1       1.054   9.384  22.403  0.00  0.00    +0.000 C 
ATOM     21  C   UNL     1      -0.249   9.464  23.212  0.00  0.00    +0.000 C 
ATOM     22  C   UNL     1      -0.568  10.758  22.437  0.00  0.00    +0.000 C 
ENDBRANCH  18  19
ENDBRANCH  16  18
ENDBRANCH  15  16
ENDBRANCH  14  15
ENDBRANCH  13  14
ENDBRANCH  12  13
ENDBRANCH   1  12
TORSDOF 16
ENDMDL
MODEL 7
REMARK VINA RESULT:      -5.3      3.256      8.000
REMARK  Name = 
REMARK  17 active torsions:
REMARK  status: ('A' for Active; 'I' for Inactive)
REMARK    1  A    between atoms: C_1  and  C_2
REMARK    2  A    between atoms: C_2  and  C_3
REMARK    3  A    between atoms: C_3  and  C_4
REMARK    4  A    between atoms: C_4  and  C_5
REMARK    5  A    between atoms: C_5  and  C_6
REMARK    6  A    between atoms: C_6  and  C_7
REMARK    7  A    between atoms: C_7  and  C_8
REMARK    8  A    between atoms: C_8  and  C_9
REMARK    9  A    between atoms: C_9  and  C_10
REMARK   10  A    between atoms: C_10  and  C_11
REMARK   11  A    between atoms: C_11  and  C_12
REMARK   12  A    between atoms: C_12  and  C_13
REMARK   13  A    between atoms: C_13  and  C_14
REMARK   14  A    between atoms: C_14  and  C_15
REMARK   15  A    between atoms: C_15  and  C_16
REMARK   16  A    between atoms: C_16  and  O_18
REMARK   17  A    between atoms: O_18  and  C_19
REMARK                            x       y       z     vdW  Elec       q    Type
REMARK                         _______ _______ _______ _____ _____    ______ ____
ROOT
ATOM      1  C   UNL     1       4.222   3.277  17.502  0.00  0.00    +0.000 C 
ENDROOT
BRANCH   1   2
ATOM      2  C   UNL     1       4.762   4.561  18.112  0.00  0.00    +0.000 C 
BRANCH   2   3
ATOM      3  C   UNL     1       4.112   5.767  17.453  0.00  0.00    +0.000 C 
BRANCH   3   4
ATOM      4  C   UNL     1       5.136   6.530  16.630  0.00  0.00    +0.000 C 
BRANCH   4   5
ATOM      5  C   UNL     1       5.302   5.877  15.268  0.00  0.00    +0.000 C 
BRANCH   5   6
ATOM      6  C   UNL     1       6.572   5.043  15.240  0.00  0.00    +0.000 C 
BRANCH   6   7
ATOM      7  C   UNL     1       6.399   3.857  14.305  0.00  0.00    +0.000 C 
BRANCH   7   8
ATOM      8  C   UNL     1       6.404   4.322  12.857  0.00  0.00    +0.000 C 
BRANCH   8   9
ATOM      9  C   UNL     1       6.630   3.140  11.923  0.00  0.00    +0.000 C 
BRANCH   9  11
ATOM     10  C   UNL     1       4.217   3.235  11.273  0.00  0.00    +0.000 C 
ATOM     11  C   UNL     1       5.347   2.339  11.744  0.00  0.00    +0.000 C 
ENDBRANCH   9  11
ENDBRANCH   8   9
ENDBRANCH   7   8
ENDBRANCH   6   7
ENDBRANCH   5   6
ENDBRANCH   4   5
ENDBRANCH   3   4
ENDBRANCH   2   3
ENDBRANCH   1   2
BRANCH   1  12
ATOM     12  C   UNL     1       2.706   3.338  17.386  0.00  0.00    +0.000 C 
BRANCH  12  13
ATOM     13  C   UNL     1       2.075   2.047  17.897  0.00  0.00    +0.000 C 
BRANCH  13  14
ATOM     14  C   UNL     1       1.853   2.133  19.401  0.00  0.00    +0.000 C 
BRANCH  14  15
ATOM     15  C   UNL     1       1.258   3.472  19.822  0.00  0.00    +0.000 C 
BRANCH  15  16
ATOM     16  C   UNL     1       1.974   3.998  21.047  0.00  0.00    +0.000 C 
ATOM     17  O   UNL     1       2.079   3.412  22.109  0.00  0.00    +0.000 OA
BRANCH  16  18
ATOM     18  O   UNL     1       2.585   5.184  20.747  0.00  0.00    +0.000 OA
BRANCH  18  19
ATOM     19  C   UNL     1       1.670   6.210  20.305  0.00  0.00    +0.000 C 
ATOM     20  C   UNL     1       1.264   7.240  21.394  0.00  0.00    +0.000 C 
ATOM     21  C   UNL     1       1.345   8.327  20.313  0.00  0.00    +0.000 C 
ATOM     22  C   UNL     1       2.324   7.405  19.559  0.00  0.00    +0.000 C 
ENDBRANCH  18  19
ENDBRANCH  16  18
ENDBRANCH  15  16
ENDBRANCH  14  15
ENDBRANCH  13  14
ENDBRANCH  12  13
ENDBRANCH   1  12
TORSDOF 16
ENDMDL
MODEL 8
REMARK VINA RESULT:      -5.3      3.165      5.452
REMARK  Name = 
REMARK  17 active torsions:
REMARK  status: ('A' for Active; 'I' for Inactive)
REMARK    1  A    between atoms: C_1  and  C_2
REMARK    2  A    between atoms: C_2  and  C_3
REMARK    3  A    between atoms: C_3  and  C_4
REMARK    4  A    between atoms: C_4  and  C_5
REMARK    5  A    between atoms: C_5  and  C_6
REMARK    6  A    between atoms: C_6  and  C_7
REMARK    7  A    between atoms: C_7  and  C_8
REMARK    8  A    between atoms: C_8  and  C_9
REMARK    9  A    between atoms: C_9  and  C_10
REMARK   10  A    between atoms: C_10  and  C_11
REMARK   11  A    between atoms: C_11  and  C_12
REMARK   12  A    between atoms: C_12  and  C_13
REMARK   13  A    between atoms: C_13  and  C_14
REMARK   14  A    between atoms: C_14  and  C_15
REMARK   15  A    between atoms: C_15  and  C_16
REMARK   16  A    between atoms: C_16  and  O_18
REMARK   17  A    between atoms: O_18  and  C_19
REMARK                            x       y       z     vdW  Elec       q    Type
REMARK                         _______ _______ _______ _____ _____    ______ ____
ROOT
ATOM      1  C   UNL     1       4.031   2.421  19.540  0.00  0.00    +0.000 C 
ENDROOT
BRANCH   1   2
ATOM      2  C   UNL     1       2.878   1.938  18.674  0.00  0.00    +0.000 C 
BRANCH   2   3
ATOM      3  C   UNL     1       1.586   1.935  19.475  0.00  0.00    +0.000 C 
BRANCH   3   4
ATOM      4  C   UNL     1       1.683   2.918  20.629  0.00  0.00    +0.000 C 
BRANCH   4   5
ATOM      5  C   UNL     1       1.041   4.240  20.244  0.00  0.00    +0.000 C 
BRANCH   5   6
ATOM      6  C   UNL     1       1.821   5.396  20.849  0.00  0.00    +0.000 C 
BRANCH   6   7
ATOM      7  C   UNL     1       1.471   6.693  20.140  0.00  0.00    +0.000 C 
BRANCH   7   8
ATOM      8  C   UNL     1       1.575   7.866  21.103  0.00  0.00    +0.000 C 
BRANCH   8   9
ATOM      9  C   UNL     1       0.954   9.112  20.486  0.00  0.00    +0.000 C 
BRANCH   9  11
ATOM     10  C   UNL     1      -0.380   9.168  22.601  0.00  0.00    +0.000 C 
ATOM     11  C   UNL     1       0.345  10.002  21.562  0.00  0.00    +0.000 C 
ENDBRANCH   9  11
ENDBRANCH   8   9
ENDBRANCH   7   8
ENDBRANCH   6   7
ENDBRANCH   5   6
ENDBRANCH   4   5
ENDBRANCH   3   4
ENDBRANCH   2   3
ENDBRANCH   1   2
BRANCH   1  12
ATOM     12  C   UNL     1       4.547   3.762  19.040  0.00  0.00    +0.000 C 
BRANCH  12  13
ATOM     13  C   UNL     1       4.163   3.976  17.579  0.00  0.00    +0.000 C 
BRANCH  13  14
ATOM     14  C   UNL     1       3.463   5.319  17.415  0.00  0.00    +0.000 C 
BRANCH  14  15
ATOM     15  C   UNL     1       4.367   6.492  17.776  0.00  0.00    +0.000 C 
BRANCH  15  16
ATOM     16  C   UNL     1       5.279   6.823  16.614  0.00  0.00    +0.000 C 
ATOM     17  O   UNL     1       5.008   6.667  15.438  0.00  0.00    +0.000 OA
BRANCH  16  18
ATOM     18  O   UNL     1       6.412   7.430  17.080  0.00  0.00    +0.000 OA
BRANCH  18  19
ATOM     19  C   UNL     1       7.512   6.520  17.289  0.00  0.00    +0.000 C 
ATOM     20  C   UNL     1       7.616   5.934  18.723  0.00  0.00    +0.000 C 
ATOM     21  C   UNL     1       8.010   4.594  18.085  0.00  0.00    +0.000 C 
ATOM     22  C   UNL     1       7.266   5.060  16.818  0.00  0.00    +0.000 C 
ENDBRANCH  18  19
ENDBRANCH  16  18
ENDBRANCH  15  16
ENDBRANCH  14  15
ENDBRANCH  13  14
ENDBRANCH  12  13
ENDBRANCH   1  12
TORSDOF 16
ENDMDL
MODEL 9
REMARK VINA RESULT:      -5.1      5.017      8.081
REMARK  Name = 
REMARK  17 active torsions:
REMARK  status: ('A' for Active; 'I' for Inactive)
REMARK    1  A    between atoms: C_1  and  C_2
REMARK    2  A    between atoms: C_2  and  C_3
REMARK    3  A    between atoms: C_3  and  C_4
REMARK    4  A    between atoms: C_4  and  C_5
REMARK    5  A    between atoms: C_5  and  C_6
REMARK    6  A    between atoms: C_6  and  C_7
REMARK    7  A    between atoms: C_7  and  C_8
REMARK    8  A    between atoms: C_8  and  C_9
REMARK    9  A    between atoms: C_9  and  C_10
REMARK   10  A    between atoms: C_10  and  C_11
REMARK   11  A    between atoms: C_11  and  C_12
REMARK   12  A    between atoms: C_12  and  C_13
REMARK   13  A    between atoms: C_13  and  C_14
REMARK   14  A    between atoms: C_14  and  C_15
REMARK   15  A    between atoms: C_15  and  C_16
REMARK   16  A    between atoms: C_16  and  O_18
REMARK   17  A    between atoms: O_18  and  C_19
REMARK                            x       y       z     vdW  Elec       q    Type
REMARK                         _______ _______ _______ _____ _____    ______ ____
ROOT
ATOM      1  C   UNL     1       4.567   6.037  17.317  0.00  0.00    +0.000 C 
ENDROOT
BRANCH   1   2
ATOM      2  C   UNL     1       5.075   5.529  18.657  0.00  0.00    +0.000 C 
BRANCH   2   3
ATOM      3  C   UNL     1       4.991   4.013  18.708  0.00  0.00    +0.000 C 
BRANCH   3   4
ATOM      4  C   UNL     1       4.005   3.506  17.669  0.00  0.00    +0.000 C 
BRANCH   4   5
ATOM      5  C   UNL     1       3.632   2.063  17.962  0.00  0.00    +0.000 C 
BRANCH   5   6
ATOM      6  C   UNL     1       2.143   1.957  18.251  0.00  0.00    +0.000 C 
BRANCH   6   7
ATOM      7  C   UNL     1       1.508   3.338  18.247  0.00  0.00    +0.000 C 
BRANCH   7   8
ATOM      8  C   UNL     1       0.718   3.558  19.528  0.00  0.00    +0.000 C 
BRANCH   8   9
ATOM      9  C   UNL     1       1.312   2.732  20.662  0.00  0.00    +0.000 C 
BRANCH   9  11
ATOM     10  C   UNL     1       2.206   5.032  21.071  0.00  0.00    +0.000 C 
ATOM     11  C   UNL     1       2.214   3.590  21.540  0.00  0.00    +0.000 C 
ENDBRANCH   9  11
ENDBRANCH   8   9
ENDBRANCH   7   8
ENDBRANCH   6   7
ENDBRANCH   5   6
ENDBRANCH   4   5
ENDBRANCH   3   4
ENDBRANCH   2   3
ENDBRANCH   1   2
BRANCH   1  12
ATOM     12  C   UNL     1       3.848   7.367  17.489  0.00  0.00    +0.000 C 
BRANCH  12  13
ATOM     13  C   UNL     1       2.450   7.154  18.060  0.00  0.00    +0.000 C 
BRANCH  13  14
ATOM     14  C   UNL     1       2.029   8.368  18.878  0.00  0.00    +0.000 C 
BRANCH  14  15
ATOM     15  C   UNL     1       1.326   9.422  18.030  0.00  0.00    +0.000 C 
BRANCH  15  16
ATOM     16  C   UNL     1       0.440  10.285  18.901  0.00  0.00    +0.000 C 
ATOM     17  O   UNL     1      -0.725  10.058  19.166  0.00  0.00    +0.000 OA
BRANCH  16  18
ATOM     18  O   UNL     1       1.178  11.302  19.440  0.00  0.00    +0.000 OA
BRANCH  18  19
ATOM     19  C   UNL     1       1.253  12.472  18.597  0.00  0.00    +0.000 C 
ATOM     20  C   UNL     1       0.911  13.812  19.303  0.00  0.00    +0.000 C 
ATOM     21  C   UNL     1       2.048  14.459  18.499  0.00  0.00    +0.000 C 
ATOM     22  C   UNL     1       2.679  13.056  18.396  0.00  0.00    +0.000 C 
ENDBRANCH  18  19
ENDBRANCH  16  18
ENDBRANCH  15  16
ENDBRANCH  14  15
ENDBRANCH  13  14
ENDBRANCH  12  13
ENDBRANCH   1  12
TORSDOF 16
ENDMDL
