MODEL 1
REMARK VINA RESULT:      -7.4      0.000      0.000
REMARK  Name = 
REMARK  6 active torsions:
REMARK  status: ('A' for Active; 'I' for Inactive)
REMARK    1  A    between atoms: C_1  and  O_2
REMARK    2  A    between atoms: O_2  and  C_3
REMARK    3  A    between atoms: C_8  and  S_9
REMARK    4  A    between atoms: S_9  and  C_11
REMARK    5  A    between atoms: C_11  and  C_12
REMARK    6  A    between atoms: C_14  and  N_15
REMARK                            x       y       z     vdW  Elec       q    Type
REMARK                         _______ _______ _______ _____ _____    ______ ____
ROOT
ATOM      1  S   UNL     1       0.900  11.003  20.322  0.00  0.00    +0.000 S 
ATOM      2  O   UNL     1       0.664  12.053  21.470  0.00  0.00    +0.000 OA
ENDROOT
BRANCH   1   8
ATOM      3  C   UNL     1      -4.519  11.420  17.245  0.00  0.00    +0.000 A 
ATOM      4  C   UNL     1      -3.828  10.775  16.213  0.00  0.00    +0.000 A 
ATOM      5  C   UNL     1      -2.475  10.424  16.343  0.00  0.00    +0.000 A 
ATOM      6  C   UNL     1      -1.846  10.756  17.549  0.00  0.00    +0.000 A 
ATOM      7  N   UNL     1      -0.569  10.576  18.025  0.00  0.00    +0.000 N 
ATOM      8  C   UNL     1      -0.507  11.097  19.296  0.00  0.00    +0.000 A 
ATOM      9  N   UNL     1      -1.662  11.616  19.654  0.00  0.00    +0.000 NA
ATOM     10  C   UNL     1      -2.505  11.411  18.585  0.00  0.00    +0.000 A 
ATOM     11  C   UNL     1      -3.856  11.756  18.433  0.00  0.00    +0.000 A 
ATOM     12  H   UNL     1       0.199  10.129  17.542  0.00  0.00    +0.000 HD
BRANCH   3  14
ATOM     13  C   UNL     1      -6.685  11.278  18.185  0.00  0.00    +0.000 C 
ATOM     14  O   UNL     1      -5.830  11.817  17.184  0.00  0.00    +0.000 OA
ENDBRANCH   3  14
ENDBRANCH   1   8
BRANCH   1  15
ATOM     15  C   UNL     1       0.704   9.311  20.953  0.00  0.00    +0.000 C 
BRANCH  15  16
ATOM     16  C   UNL     1       1.454   8.304  20.103  0.00  0.00    +0.000 A 
ATOM     17  C   UNL     1       1.466   6.943  20.444  0.00  0.00    +0.000 A 
ATOM     18  C   UNL     1       2.137   5.996  19.645  0.00  0.00    +0.000 A 
ATOM     19  C   UNL     1       2.814   6.500  18.517  0.00  0.00    +0.000 A 
ATOM     20 BR   UNL     1       3.911   5.447  17.373  0.00  0.00    +0.000 Br
ATOM     21  C   UNL     1       2.765   7.857  18.249  0.00  0.00    +0.000 A 
ATOM     22  N   UNL     1       2.097   8.769  19.006  0.00  0.00    +0.000 NA
BRANCH  18  23
ATOM     23  N   UNL     1       2.166   4.636  19.981  0.00  0.00    +0.000 N 
ATOM     24  C   UNL     1       2.232   4.229  21.401  0.00  0.00    +0.000 C 
ATOM     25  C   UNL     1       2.703   2.765  21.472  0.00  0.00    +0.000 C 
ATOM     26  O   UNL     1       1.823   1.893  20.739  0.00  0.00    +0.000 OA
ATOM     27  C   UNL     1       1.756   2.296  19.358  0.00  0.00    +0.000 C 
ATOM     28  C   UNL     1       1.254   3.745  19.222  0.00  0.00    +0.000 C 
ENDBRANCH  18  23
ENDBRANCH  15  16
ENDBRANCH   1  15
TORSDOF 5
ENDMDL
MODEL 2
REMARK VINA RESULT:      -7.3      2.801      3.685
REMARK  Name = 
REMARK  6 active torsions:
REMARK  status: ('A' for Active; 'I' for Inactive)
REMARK    1  A    between atoms: C_1  and  O_2
REMARK    2  A    between atoms: O_2  and  C_3
REMARK    3  A    between atoms: C_8  and  S_9
REMARK    4  A    between atoms: S_9  and  C_11
REMARK    5  A    between atoms: C_11  and  C_12
REMARK    6  A    between atoms: C_14  and  N_15
REMARK                            x       y       z     vdW  Elec       q    Type
REMARK                         _______ _______ _______ _____ _____    ______ ____
ROOT
ATOM      1  S   UNL     1       1.418   9.330  18.045  0.00  0.00    +0.000 S 
ATOM      2  O   UNL     1       2.365  10.574  17.865  0.00  0.00    +0.000 OA
ENDROOT
BRANCH   1   8
ATOM      3  C   UNL     1      -4.446  11.480  18.090  0.00  0.00    +0.000 A 
ATOM      4  C   UNL     1      -4.018  12.236  19.187  0.00  0.00    +0.000 A 
ATOM      5  C   UNL     1      -2.704  12.145  19.674  0.00  0.00    +0.000 A 
ATOM      6  C   UNL     1      -1.844  11.257  19.016  0.00  0.00    +0.000 A 
ATOM      7  N   UNL     1      -0.527  10.910  19.202  0.00  0.00    +0.000 N 
ATOM      8  C   UNL     1      -0.187   9.980  18.247  0.00  0.00    +0.000 A 
ATOM      9  N   UNL     1      -1.214   9.698  17.474  0.00  0.00    +0.000 NA
ATOM     10  C   UNL     1      -2.248  10.482  17.933  0.00  0.00    +0.000 A 
ATOM     11  C   UNL     1      -3.566  10.586  17.466  0.00  0.00    +0.000 A 
ATOM     12  H   UNL     1       0.101  11.276  19.906  0.00  0.00    +0.000 HD
BRANCH   3  14
ATOM     13  C   UNL     1      -6.145  12.736  17.027  0.00  0.00    +0.000 C 
ATOM     14  O   UNL     1      -5.716  11.495  17.574  0.00  0.00    +0.000 OA
ENDBRANCH   3  14
ENDBRANCH   1   8
BRANCH   1  15
ATOM     15  C   UNL     1       1.651   8.580  19.683  0.00  0.00    +0.000 C 
BRANCH  15  16
ATOM     16  C   UNL     1       2.298   7.212  19.588  0.00  0.00    +0.000 A 
ATOM     17  C   UNL     1       3.350   6.975  18.690  0.00  0.00    +0.000 A 
ATOM     18  C   UNL     1       3.976   5.715  18.615  0.00  0.00    +0.000 A 
ATOM     19  C   UNL     1       3.463   4.712  19.460  0.00  0.00    +0.000 A 
ATOM     20 BR   UNL     1       4.037   2.899  19.435  0.00  0.00    +0.000 Br
ATOM     21  C   UNL     1       2.416   5.018  20.313  0.00  0.00    +0.000 A 
ATOM     22  N   UNL     1       1.828   6.241  20.406  0.00  0.00    +0.000 NA
BRANCH  18  23
ATOM     23  N   UNL     1       5.020   5.463  17.715  0.00  0.00    +0.000 N 
ATOM     24  C   UNL     1       4.999   6.080  16.370  0.00  0.00    +0.000 C 
ATOM     25  C   UNL     1       5.971   5.307  15.459  0.00  0.00    +0.000 C 
ATOM     26  O   UNL     1       7.307   5.310  15.994  0.00  0.00    +0.000 OA
ATOM     27  C   UNL     1       7.323   4.717  17.305  0.00  0.00    +0.000 C 
ATOM     28  C   UNL     1       6.394   5.472  18.273  0.00  0.00    +0.000 C 
ENDBRANCH  18  23
ENDBRANCH  15  16
ENDBRANCH   1  15
TORSDOF 5
ENDMDL
MODEL 3
REMARK VINA RESULT:      -7.2      1.365      2.044
REMARK  Name = 
REMARK  6 active torsions:
REMARK  status: ('A' for Active; 'I' for Inactive)
REMARK    1  A    between atoms: C_1  and  O_2
REMARK    2  A    between atoms: O_2  and  C_3
REMARK    3  A    between atoms: C_8  and  S_9
REMARK    4  A    between atoms: S_9  and  C_11
REMARK    5  A    between atoms: C_11  and  C_12
REMARK    6  A    between atoms: C_14  and  N_15
REMARK                            x       y       z     vdW  Elec       q    Type
REMARK                         _______ _______ _______ _____ _____    ______ ____
ROOT
ATOM      1  S   UNL     1       0.970  10.416  20.312  0.00  0.00    +0.000 S 
ATOM      2  O   UNL     1       0.569  11.161  21.638  0.00  0.00    +0.000 OA
ENDROOT
BRANCH   1   8
ATOM      3  C   UNL     1      -3.597  10.605  16.056  0.00  0.00    +0.000 A 
ATOM      4  C   UNL     1      -4.288  11.340  17.026  0.00  0.00    +0.000 A 
ATOM      5  C   UNL     1      -3.721  11.615  18.281  0.00  0.00    +0.000 A 
ATOM      6  C   UNL     1      -2.435  11.113  18.519  0.00  0.00    +0.000 A 
ATOM      7  N   UNL     1      -1.584  11.179  19.597  0.00  0.00    +0.000 N 
ATOM      8  C   UNL     1      -0.429  10.506  19.275  0.00  0.00    +0.000 A 
ATOM      9  N   UNL     1      -0.498   9.998  18.063  0.00  0.00    +0.000 NA
ATOM     10  C   UNL     1      -1.732  10.367  17.579  0.00  0.00    +0.000 A 
ATOM     11  C   UNL     1      -2.319  10.101  16.333  0.00  0.00    +0.000 A 
ATOM     12  H   UNL     1      -1.758  11.648  20.477  0.00  0.00    +0.000 HD
BRANCH   3  14
ATOM     13  C   UNL     1      -3.122   9.952  13.832  0.00  0.00    +0.000 C 
ATOM     14  O   UNL     1      -4.093  10.275  14.821  0.00  0.00    +0.000 OA
ENDBRANCH   3  14
ENDBRANCH   1   8
BRANCH   1  15
ATOM     15  C   UNL     1       1.033   8.620  20.582  0.00  0.00    +0.000 C 
BRANCH  15  16
ATOM     16  C   UNL     1       1.939   7.932  19.580  0.00  0.00    +0.000 A 
ATOM     17  C   UNL     1       2.137   6.544  19.624  0.00  0.00    +0.000 A 
ATOM     18  C   UNL     1       2.955   5.892  18.680  0.00  0.00    +0.000 A 
ATOM     19  C   UNL     1       3.580   6.716  17.723  0.00  0.00    +0.000 A 
ATOM     20 BR   UNL     1       4.842   6.094  16.443  0.00  0.00    +0.000 Br
ATOM     21  C   UNL     1       3.343   8.080  17.748  0.00  0.00    +0.000 A 
ATOM     22  N   UNL     1       2.534   8.707  18.643  0.00  0.00    +0.000 NA
BRANCH  18  23
ATOM     23  N   UNL     1       3.169   4.508  18.721  0.00  0.00    +0.000 N 
ATOM     24  C   UNL     1       3.653   3.874  19.966  0.00  0.00    +0.000 C 
ATOM     25  C   UNL     1       4.226   2.487  19.621  0.00  0.00    +0.000 C 
ATOM     26  O   UNL     1       3.240   1.655  18.983  0.00  0.00    +0.000 OA
ATOM     27  C   UNL     1       2.766   2.278  17.776  0.00  0.00    +0.000 C 
ATOM     28  C   UNL     1       2.146   3.659  18.063  0.00  0.00    +0.000 C 
ENDBRANCH  18  23
ENDBRANCH  15  16
ENDBRANCH   1  15
TORSDOF 5
ENDMDL
MODEL 4
REMARK VINA RESULT:      -7.2      1.075      1.100
REMARK  Name = 
REMARK  6 active torsions:
REMARK  status: ('A' for Active; 'I' for Inactive)
REMARK    1  A    between atoms: C_1  and  O_2
REMARK    2  A    between atoms: O_2  and  C_3
REMARK    3  A    between atoms: C_8  and  S_9
REMARK    4  A    between atoms: S_9  and  C_11
REMARK    5  A    between atoms: C_11  and  C_12
REMARK    6  A    between atoms: C_14  and  N_15
REMARK                            x       y       z     vdW  Elec       q    Type
REMARK                         _______ _______ _______ _____ _____    ______ ____
ROOT
ATOM      1  S   UNL     1       0.797  10.834  20.403  0.00  0.00    +0.000 S 
ATOM      2  O   UNL     1       0.406  11.598  21.722  0.00  0.00    +0.000 OA
ENDROOT
BRANCH   1   8
ATOM      3  C   UNL     1      -4.510  11.479  17.173  0.00  0.00    +0.000 A 
ATOM      4  C   UNL     1      -3.803  10.847  16.144  0.00  0.00    +0.000 A 
ATOM      5  C   UNL     1      -2.463  10.458  16.305  0.00  0.00    +0.000 A 
ATOM      6  C   UNL     1      -1.865  10.738  17.540  0.00  0.00    +0.000 A 
ATOM      7  N   UNL     1      -0.609  10.512  18.050  0.00  0.00    +0.000 N 
ATOM      8  C   UNL     1      -0.574  10.994  19.338  0.00  0.00    +0.000 A 
ATOM      9  N   UNL     1      -1.728  11.531  19.675  0.00  0.00    +0.000 NA
ATOM     10  C   UNL     1      -2.540  11.378  18.574  0.00  0.00    +0.000 A 
ATOM     11  C   UNL     1      -3.877  11.762  18.391  0.00  0.00    +0.000 A 
ATOM     12  H   UNL     1       0.163  10.061  17.577  0.00  0.00    +0.000 HD
BRANCH   3  14
ATOM     13  C   UNL     1      -6.678  11.469  18.119  0.00  0.00    +0.000 C 
ATOM     14  O   UNL     1      -5.808  11.910  17.084  0.00  0.00    +0.000 OA
ENDBRANCH   3  14
ENDBRANCH   1   8
BRANCH   1  15
ATOM     15  C   UNL     1       0.764   9.037  20.673  0.00  0.00    +0.000 C 
BRANCH  15  16
ATOM     16  C   UNL     1       1.677   8.308  19.706  0.00  0.00    +0.000 A 
ATOM     17  C   UNL     1       2.027   6.966  19.921  0.00  0.00    +0.000 A 
ATOM     18  C   UNL     1       2.851   6.272  19.014  0.00  0.00    +0.000 A 
ATOM     19  C   UNL     1       3.324   7.010  17.911  0.00  0.00    +0.000 A 
ATOM     20 BR   UNL     1       4.567   6.342  16.634  0.00  0.00    +0.000 Br
ATOM     21  C   UNL     1       2.944   8.333  17.770  0.00  0.00    +0.000 A 
ATOM     22  N   UNL     1       2.127   8.997  18.631  0.00  0.00    +0.000 NA
BRANCH  18  23
ATOM     23  N   UNL     1       3.217   4.935  19.224  0.00  0.00    +0.000 N 
ATOM     24  C   UNL     1       4.590   4.608  19.663  0.00  0.00    +0.000 C 
ATOM     25  C   UNL     1       4.855   3.117  19.380  0.00  0.00    +0.000 C 
ATOM     26  O   UNL     1       3.898   2.277  20.050  0.00  0.00    +0.000 OA
ATOM     27  C   UNL     1       2.561   2.604  19.626  0.00  0.00    +0.000 C 
ATOM     28  C   UNL     1       2.225   4.078  19.918  0.00  0.00    +0.000 C 
ENDBRANCH  18  23
ENDBRANCH  15  16
ENDBRANCH   1  15
TORSDOF 5
ENDMDL
MODEL 5
REMARK VINA RESULT:      -7.2      2.787      3.491
REMARK  Name = 
REMARK  6 active torsions:
REMARK  status: ('A' for Active; 'I' for Inactive)
REMARK    1  A    between atoms: C_1  and  O_2
REMARK    2  A    between atoms: O_2  and  C_3
REMARK    3  A    between atoms: C_8  and  S_9
REMARK    4  A    between atoms: S_9  and  C_11
REMARK    5  A    between atoms: C_11  and  C_12
REMARK    6  A    between atoms: C_14  and  N_15
REMARK                            x       y       z     vdW  Elec       q    Type
REMARK                         _______ _______ _______ _____ _____    ______ ____
ROOT
ATOM      1  S   UNL     1       1.165   9.784  19.427  0.00  0.00    +0.000 S 
ATOM      2  O   UNL     1       0.760   8.712  20.505  0.00  0.00    +0.000 OA
ENDROOT
BRANCH   1   8
ATOM      3  C   UNL     1      -4.429  11.482  17.229  0.00  0.00    +0.000 A 
ATOM      4  C   UNL     1      -3.995  10.882  16.041  0.00  0.00    +0.000 A 
ATOM      5  C   UNL     1      -2.720  10.304  15.934  0.00  0.00    +0.000 A 
ATOM      6  C   UNL     1      -1.900  10.363  17.067  0.00  0.00    +0.000 A 
ATOM      7  N   UNL     1      -0.626   9.917  17.332  0.00  0.00    +0.000 N 
ATOM      8  C   UNL     1      -0.318  10.242  18.631  0.00  0.00    +0.000 A 
ATOM      9  N   UNL     1      -1.310  10.885  19.209  0.00  0.00    +0.000 NA
ATOM     10  C   UNL     1      -2.300  10.966  18.255  0.00  0.00    +0.000 A 
ATOM     11  C   UNL     1      -3.577  11.541  18.340  0.00  0.00    +0.000 A 
ATOM     12  H   UNL     1      -0.014   9.423  16.695  0.00  0.00    +0.000 HD
BRANCH   3  14
ATOM     13  C   UNL     1      -6.273  11.864  18.660  0.00  0.00    +0.000 C 
ATOM     14  O   UNL     1      -5.647  12.088  17.403  0.00  0.00    +0.000 OA
ENDBRANCH   3  14
ENDBRANCH   1   8
BRANCH   1  15
ATOM     15  C   UNL     1       2.026   8.996  18.035  0.00  0.00    +0.000 C 
BRANCH  15  16
ATOM     16  C   UNL     1       2.588   7.640  18.416  0.00  0.00    +0.000 A 
ATOM     17  C   UNL     1       3.707   7.114  17.753  0.00  0.00    +0.000 A 
ATOM     18  C   UNL     1       4.253   5.868  18.119  0.00  0.00    +0.000 A 
ATOM     19  C   UNL     1       3.593   5.178  19.155  0.00  0.00    +0.000 A 
ATOM     20 BR   UNL     1       4.046   3.420  19.723  0.00  0.00    +0.000 Br
ATOM     21  C   UNL     1       2.489   5.757  19.756  0.00  0.00    +0.000 A 
ATOM     22  N   UNL     1       1.976   6.971  19.421  0.00  0.00    +0.000 NA
BRANCH  18  23
ATOM     23  N   UNL     1       5.363   5.326  17.457  0.00  0.00    +0.000 N 
ATOM     24  C   UNL     1       5.447   5.394  15.982  0.00  0.00    +0.000 C 
ATOM     25  C   UNL     1       6.484   4.363  15.500  0.00  0.00    +0.000 C 
ATOM     26  O   UNL     1       7.775   4.602  16.089  0.00  0.00    +0.000 OA
ATOM     27  C   UNL     1       7.689   4.542  17.525  0.00  0.00    +0.000 C 
ATOM     28  C   UNL     1       6.690   5.580  18.070  0.00  0.00    +0.000 C 
ENDBRANCH  18  23
ENDBRANCH  15  16
ENDBRANCH   1  15
TORSDOF 5
ENDMDL
MODEL 6
REMARK VINA RESULT:      -7.1      4.201      5.898
REMARK  Name = 
REMARK  6 active torsions:
REMARK  status: ('A' for Active; 'I' for Inactive)
REMARK    1  A    between atoms: C_1  and  O_2
REMARK    2  A    between atoms: O_2  and  C_3
REMARK    3  A    between atoms: C_8  and  S_9
REMARK    4  A    between atoms: S_9  and  C_11
REMARK    5  A    between atoms: C_11  and  C_12
REMARK    6  A    between atoms: C_14  and  N_15
REMARK                            x       y       z     vdW  Elec       q    Type
REMARK                         _______ _______ _______ _____ _____    ______ ____
ROOT
ATOM      1  S   UNL     1       0.897  10.145  18.837  0.00  0.00    +0.000 S 
ATOM      2  O   UNL     1      -0.544   9.961  18.232  0.00  0.00    +0.000 OA
ENDROOT
BRANCH   1   8
ATOM      3  C   UNL     1       2.896  16.041  18.347  0.00  0.00    +0.000 A 
ATOM      4  C   UNL     1       1.596  16.374  18.741  0.00  0.00    +0.000 A 
ATOM      5  C   UNL     1       0.630  15.386  18.994  0.00  0.00    +0.000 A 
ATOM      6  C   UNL     1       1.027  14.054  18.826  0.00  0.00    +0.000 A 
ATOM      7  N   UNL     1       0.377  12.852  18.978  0.00  0.00    +0.000 N 
ATOM      8  C   UNL     1       1.264  11.843  18.684  0.00  0.00    +0.000 A 
ATOM      9  N   UNL     1       2.436  12.328  18.336  0.00  0.00    +0.000 NA
ATOM     10  C   UNL     1       2.309  13.696  18.421  0.00  0.00    +0.000 A 
ATOM     11  C   UNL     1       3.257  14.699  18.170  0.00  0.00    +0.000 A 
ATOM     12  H   UNL     1      -0.583  12.716  19.267  0.00  0.00    +0.000 HD
BRANCH   3  14
ATOM     13  C   UNL     1       5.130  16.731  18.711  0.00  0.00    +0.000 C 
ATOM     14  O   UNL     1       3.884  16.947  18.058  0.00  0.00    +0.000 OA
ENDBRANCH   3  14
ENDBRANCH   1   8
BRANCH   1  15
ATOM     15  C   UNL     1       2.153   9.460  17.718  0.00  0.00    +0.000 C 
BRANCH  15  16
ATOM     16  C   UNL     1       2.625   8.092  18.172  0.00  0.00    +0.000 A 
ATOM     17  C   UNL     1       3.709   7.461  17.543  0.00  0.00    +0.000 A 
ATOM     18  C   UNL     1       4.172   6.203  17.977  0.00  0.00    +0.000 A 
ATOM     19  C   UNL     1       3.466   5.612  19.043  0.00  0.00    +0.000 A 
ATOM     20 BR   UNL     1       3.804   3.860  19.705  0.00  0.00    +0.000 Br
ATOM     21  C   UNL     1       2.401   6.292  19.607  0.00  0.00    +0.000 A 
ATOM     22  N   UNL     1       1.968   7.517  19.207  0.00  0.00    +0.000 NA
BRANCH  18  23
ATOM     23  N   UNL     1       5.246   5.557  17.350  0.00  0.00    +0.000 N 
ATOM     24  C   UNL     1       5.337   5.541  15.874  0.00  0.00    +0.000 C 
ATOM     25  C   UNL     1       6.307   4.422  15.452  0.00  0.00    +0.000 C 
ATOM     26  O   UNL     1       7.610   4.609  16.035  0.00  0.00    +0.000 OA
ATOM     27  C   UNL     1       7.517   4.631  17.471  0.00  0.00    +0.000 C 
ATOM     28  C   UNL     1       6.586   5.757  17.955  0.00  0.00    +0.000 C 
ENDBRANCH  18  23
ENDBRANCH  15  16
ENDBRANCH   1  15
TORSDOF 5
ENDMDL
MODEL 7
REMARK VINA RESULT:      -7.1      3.350      4.595
REMARK  Name = 
REMARK  6 active torsions:
REMARK  status: ('A' for Active; 'I' for Inactive)
REMARK    1  A    between atoms: C_1  and  O_2
REMARK    2  A    between atoms: O_2  and  C_3
REMARK    3  A    between atoms: C_8  and  S_9
REMARK    4  A    between atoms: S_9  and  C_11
REMARK    5  A    between atoms: C_11  and  C_12
REMARK    6  A    between atoms: C_14  and  N_15
REMARK                            x       y       z     vdW  Elec       q    Type
REMARK                         _______ _______ _______ _____ _____    ______ ____
ROOT
ATOM      1  S   UNL     1       1.362   8.762  18.220  0.00  0.00    +0.000 S 
ATOM      2  O   UNL     1       2.467   9.626  17.507  0.00  0.00    +0.000 OA
ENDROOT
BRANCH   1   8
ATOM      3  C   UNL     1      -2.097  12.518  21.817  0.00  0.00    +0.000 A 
ATOM      4  C   UNL     1      -2.833  12.738  20.648  0.00  0.00    +0.000 A 
ATOM      5  C   UNL     1      -2.484  12.124  19.434  0.00  0.00    +0.000 A 
ATOM      6  C   UNL     1      -1.359  11.290  19.446  0.00  0.00    +0.000 A 
ATOM      7  N   UNL     1      -0.733  10.540  18.478  0.00  0.00    +0.000 N 
ATOM      8  C   UNL     1       0.337   9.899  19.056  0.00  0.00    +0.000 A 
ATOM      9  N   UNL     1       0.444  10.208  20.331  0.00  0.00    +0.000 NA
ATOM     10  C   UNL     1      -0.601  11.066  20.590  0.00  0.00    +0.000 A 
ATOM     11  C   UNL     1      -0.966  11.692  21.791  0.00  0.00    +0.000 A 
ATOM     12  H   UNL     1      -1.007  10.455  17.508  0.00  0.00    +0.000 HD
BRANCH   3  14
ATOM     13  C   UNL     1      -1.323  13.915  23.562  0.00  0.00    +0.000 C 
ATOM     14  O   UNL     1      -2.360  13.099  23.031  0.00  0.00    +0.000 OA
ENDBRANCH   3  14
ENDBRANCH   1   8
BRANCH   1  15
ATOM     15  C   UNL     1       2.061   7.878  19.645  0.00  0.00    +0.000 C 
BRANCH  15  16
ATOM     16  C   UNL     1       2.485   6.469  19.279  0.00  0.00    +0.000 A 
ATOM     17  C   UNL     1       3.670   6.238  18.564  0.00  0.00    +0.000 A 
ATOM     18  C   UNL     1       4.087   4.931  18.244  0.00  0.00    +0.000 A 
ATOM     19  C   UNL     1       3.232   3.887  18.651  0.00  0.00    +0.000 A 
ATOM     20 BR   UNL     1       3.499   2.056  18.208  0.00  0.00    +0.000 Br
ATOM     21  C   UNL     1       2.075   4.193  19.345  0.00  0.00    +0.000 A 
ATOM     22  N   UNL     1       1.684   5.453  19.677  0.00  0.00    +0.000 NA
BRANCH  18  23
ATOM     23  N   UNL     1       5.262   4.687  17.520  0.00  0.00    +0.000 N 
ATOM     24  C   UNL     1       5.265   4.835  16.049  0.00  0.00    +0.000 C 
ATOM     25  C   UNL     1       6.489   4.092  15.483  0.00  0.00    +0.000 C 
ATOM     26  O   UNL     1       7.716   4.597  16.042  0.00  0.00    +0.000 OA
ATOM     27  C   UNL     1       7.706   4.458  17.475  0.00  0.00    +0.000 C 
ATOM     28  C   UNL     1       6.521   5.214  18.103  0.00  0.00    +0.000 C 
ENDBRANCH  18  23
ENDBRANCH  15  16
ENDBRANCH   1  15
TORSDOF 5
ENDMDL
MODEL 8
REMARK VINA RESULT:      -7.0      4.098      5.416
REMARK  Name = 
REMARK  6 active torsions:
REMARK  status: ('A' for Active; 'I' for Inactive)
REMARK    1  A    between atoms: C_1  and  O_2
REMARK    2  A    between atoms: O_2  and  C_3
REMARK    3  A    between atoms: C_8  and  S_9
REMARK    4  A    between atoms: S_9  and  C_11
REMARK    5  A    between atoms: C_11  and  C_12
REMARK    6  A    between atoms: C_14  and  N_15
REMARK                            x       y       z     vdW  Elec       q    Type
REMARK                         _______ _______ _______ _____ _____    ______ ____
ROOT
ATOM      1  S   UNL     1       0.772  10.012  18.677  0.00  0.00    +0.000 S 
ATOM      2  O   UNL     1      -0.580   9.861  17.887  0.00  0.00    +0.000 OA
ENDROOT
BRANCH   1   8
ATOM      3  C   UNL     1       1.380  16.227  18.591  0.00  0.00    +0.000 A 
ATOM      4  C   UNL     1       2.702  15.958  18.218  0.00  0.00    +0.000 A 
ATOM      5  C   UNL     1       3.174  14.642  18.085  0.00  0.00    +0.000 A 
ATOM      6  C   UNL     1       2.264  13.612  18.351  0.00  0.00    +0.000 A 
ATOM      7  N   UNL     1       2.360  12.241  18.326  0.00  0.00    +0.000 N 
ATOM      8  C   UNL     1       1.137  11.717  18.672  0.00  0.00    +0.000 A 
ATOM      9  N   UNL     1       0.269  12.670  18.935  0.00  0.00    +0.000 NA
ATOM     10  C   UNL     1       0.949  13.851  18.738  0.00  0.00    +0.000 A 
ATOM     11  C   UNL     1       0.499  15.173  18.868  0.00  0.00    +0.000 A 
ATOM     12  H   UNL     1       3.179  11.697  18.084  0.00  0.00    +0.000 HD
BRANCH   3  14
ATOM     13  C   UNL     1       0.827  18.306  17.608  0.00  0.00    +0.000 C 
ATOM     14  O   UNL     1       0.854  17.481  18.766  0.00  0.00    +0.000 OA
ENDBRANCH   3  14
ENDBRANCH   1   8
BRANCH   1  15
ATOM     15  C   UNL     1       2.164   9.399  17.685  0.00  0.00    +0.000 C 
BRANCH  15  16
ATOM     16  C   UNL     1       2.639   8.040  18.161  0.00  0.00    +0.000 A 
ATOM     17  C   UNL     1       3.722   7.399  17.541  0.00  0.00    +0.000 A 
ATOM     18  C   UNL     1       4.188   6.149  17.994  0.00  0.00    +0.000 A 
ATOM     19  C   UNL     1       3.485   5.575  19.072  0.00  0.00    +0.000 A 
ATOM     20 BR   UNL     1       3.826   3.835  19.763  0.00  0.00    +0.000 Br
ATOM     21  C   UNL     1       2.420   6.263  19.627  0.00  0.00    +0.000 A 
ATOM     22  N   UNL     1       1.985   7.482  19.207  0.00  0.00    +0.000 NA
BRANCH  18  23
ATOM     23  N   UNL     1       5.261   5.493  17.377  0.00  0.00    +0.000 N 
ATOM     24  C   UNL     1       5.331   5.424  15.901  0.00  0.00    +0.000 C 
ATOM     25  C   UNL     1       6.310   4.302  15.507  0.00  0.00    +0.000 C 
ATOM     26  O   UNL     1       7.618   4.526  16.063  0.00  0.00    +0.000 OA
ATOM     27  C   UNL     1       7.545   4.600  17.499  0.00  0.00    +0.000 C 
ATOM     28  C   UNL     1       6.606   5.732  17.955  0.00  0.00    +0.000 C 
ENDBRANCH  18  23
ENDBRANCH  15  16
ENDBRANCH   1  15
TORSDOF 5
ENDMDL
MODEL 9
REMARK VINA RESULT:      -7.0      5.489      9.153
REMARK  Name = 
REMARK  6 active torsions:
REMARK  status: ('A' for Active; 'I' for Inactive)
REMARK    1  A    between atoms: C_1  and  O_2
REMARK    2  A    between atoms: O_2  and  C_3
REMARK    3  A    between atoms: C_8  and  S_9
REMARK    4  A    between atoms: S_9  and  C_11
REMARK    5  A    between atoms: C_11  and  C_12
REMARK    6  A    between atoms: C_14  and  N_15
REMARK                            x       y       z     vdW  Elec       q    Type
REMARK                         _______ _______ _______ _____ _____    ______ ____
ROOT
ATOM      1  S   UNL     1       7.180   6.273  17.363  0.00  0.00    +0.000 S 
ATOM      2  O   UNL     1       6.057   7.354  17.568  0.00  0.00    +0.000 OA
ENDROOT
BRANCH   1   8
ATOM      3  C   UNL     1       5.590   3.260  12.128  0.00  0.00    +0.000 A 
ATOM      4  C   UNL     1       6.816   3.731  11.644  0.00  0.00    +0.000 A 
ATOM      5  C   UNL     1       7.657   4.532  12.432  0.00  0.00    +0.000 A 
ATOM      6  C   UNL     1       7.209   4.846  13.721  0.00  0.00    +0.000 A 
ATOM      7  N   UNL     1       7.745   5.583  14.751  0.00  0.00    +0.000 N 
ATOM      8  C   UNL     1       6.866   5.550  15.807  0.00  0.00    +0.000 A 
ATOM      9  N   UNL     1       5.791   4.850  15.509  0.00  0.00    +0.000 NA
ATOM     10  C   UNL     1       5.989   4.404  14.222  0.00  0.00    +0.000 A 
ATOM     11  C   UNL     1       5.162   3.607  13.416  0.00  0.00    +0.000 A 
ATOM     12  H   UNL     1       8.636   6.063  14.751  0.00  0.00    +0.000 HD
BRANCH   3  14
ATOM     13  C   UNL     1       3.630   3.203  10.805  0.00  0.00    +0.000 C 
ATOM     14  O   UNL     1       4.705   2.496  11.412  0.00  0.00    +0.000 OA
ENDBRANCH   3  14
ENDBRANCH   1   8
BRANCH   1  15
ATOM     15  C   UNL     1       6.885   4.834  18.432  0.00  0.00    +0.000 C 
BRANCH  15  16
ATOM     16  C   UNL     1       5.435   4.743  18.864  0.00  0.00    +0.000 A 
ATOM     17  C   UNL     1       4.611   5.879  18.859  0.00  0.00    +0.000 A 
ATOM     18  C   UNL     1       3.255   5.798  19.232  0.00  0.00    +0.000 A 
ATOM     19  C   UNL     1       2.793   4.530  19.638  0.00  0.00    +0.000 A 
ATOM     20 BR   UNL     1       1.051   4.199  20.326  0.00  0.00    +0.000 Br
ATOM     21  C   UNL     1       3.668   3.458  19.625  0.00  0.00    +0.000 A 
ATOM     22  N   UNL     1       4.970   3.528  19.241  0.00  0.00    +0.000 NA
BRANCH  18  23
ATOM     23  N   UNL     1       2.424   6.927  19.243  0.00  0.00    +0.000 N 
ATOM     24  C   UNL     1       2.088   7.582  20.526  0.00  0.00    +0.000 C 
ATOM     25  C   UNL     1       0.847   8.469  20.314  0.00  0.00    +0.000 C 
ATOM     26  O   UNL     1       1.073   9.455  19.290  0.00  0.00    +0.000 OA
ATOM     27  C   UNL     1       1.408   8.815  18.045  0.00  0.00    +0.000 C 
ATOM     28  C   UNL     1       2.668   7.939  18.186  0.00  0.00    +0.000 C 
ENDBRANCH  18  23
ENDBRANCH  15  16
ENDBRANCH   1  15
TORSDOF 5
ENDMDL
