MODEL 1
REMARK VINA RESULT:      -6.7      0.000      0.000
REMARK  Name = 
REMARK  4 active torsions:
REMARK  status: ('A' for Active; 'I' for Inactive)
REMARK    1  A    between atoms: C_1  and  N_2
REMARK    2  A    between atoms: N_10  and  C_11
REMARK    3  A    between atoms: C_11  and  C_12
REMARK    4  A    between atoms: N_18  and  C_19
REMARK                            x       y       z     vdW  Elec       q    Type
REMARK                         _______ _______ _______ _____ _____    ______ ____
ROOT
ATOM      1  C   UNL     1       3.775   1.133  18.239  0.00  0.00    +0.000 C 
ATOM      2  N   UNL     1       3.393   2.515  18.454  0.00  0.00    +0.000 N 
ATOM      3  C   UNL     1       4.064   3.510  17.736  0.00  0.00    +0.000 A 
ATOM      4  O   UNL     1       5.010   3.294  16.990  0.00  0.00    +0.000 OA
ATOM      5  C   UNL     1       3.541   4.818  17.968  0.00  0.00    +0.000 A 
ATOM      6  C   UNL     1       2.540   5.059  18.867  0.00  0.00    +0.000 A 
ATOM      7  N   UNL     1       2.210   6.372  18.929  0.00  0.00    +0.000 NA
ATOM      8  C   UNL     1       3.004   6.938  18.052  0.00  0.00    +0.000 A 
ATOM      9 CL   UNL     1       3.013   8.604  17.702  0.00  0.00    +0.000 Cl
ATOM     10  N   UNL     1       3.852   6.050  17.436  0.00  0.00    +0.000 N 
ATOM     11  N   UNL     1       1.971   4.052  19.611  0.00  0.00    +0.000 N 
ATOM     12  C   UNL     1       0.922   4.309  20.576  0.00  0.00    +0.000 C 
ATOM     13  C   UNL     1       2.378   2.734  19.403  0.00  0.00    +0.000 A 
ATOM     14  O   UNL     1       1.871   1.797  20.028  0.00  0.00    +0.000 OA
ENDROOT
BRANCH  10  15
ATOM     15  C   UNL     1       4.969   6.368  16.558  0.00  0.00    +0.000 C 
BRANCH  15  16
ATOM     16  C   UNL     1       6.242   6.727  17.286  0.00  0.00    +0.000 A 
ATOM     17  C   UNL     1       6.864   7.967  17.100  0.00  0.00    +0.000 A 
ATOM     18  C   UNL     1       7.981   8.281  17.861  0.00  0.00    +0.000 A 
ATOM     19  N   UNL     1       8.520   7.454  18.780  0.00  0.00    +0.000 NA
ATOM     20  C   UNL     1       7.918   6.259  18.943  0.00  0.00    +0.000 A 
ATOM     21  C   UNL     1       6.799   5.856  18.230  0.00  0.00    +0.000 A 
ENDBRANCH  15  16
ENDBRANCH  10  15
TORSDOF 2
ENDMDL
MODEL 2
REMARK VINA RESULT:      -6.6      1.985      2.879
REMARK  Name = 
REMARK  4 active torsions:
REMARK  status: ('A' for Active; 'I' for Inactive)
REMARK    1  A    between atoms: C_1  and  N_2
REMARK    2  A    between atoms: N_10  and  C_11
REMARK    3  A    between atoms: C_11  and  C_12
REMARK    4  A    between atoms: N_18  and  C_19
REMARK                            x       y       z     vdW  Elec       q    Type
REMARK                         _______ _______ _______ _____ _____    ______ ____
ROOT
ATOM      1  C   UNL     1       1.394   6.146  20.807  0.00  0.00    +0.000 C 
ATOM      2  N   UNL     1       2.032   5.328  19.795  0.00  0.00    +0.000 N 
ATOM      3  C   UNL     1       2.933   5.938  18.916  0.00  0.00    +0.000 A 
ATOM      4  O   UNL     1       3.161   7.141  18.898  0.00  0.00    +0.000 OA
ATOM      5  C   UNL     1       3.560   5.016  18.026  0.00  0.00    +0.000 A 
ATOM      6  C   UNL     1       3.235   3.689  17.997  0.00  0.00    +0.000 A 
ATOM      7  N   UNL     1       3.949   3.005  17.068  0.00  0.00    +0.000 NA
ATOM      8  C   UNL     1       4.725   3.917  16.534  0.00  0.00    +0.000 A 
ATOM      9 CL   UNL     1       5.856   3.608  15.301  0.00  0.00    +0.000 Cl
ATOM     10  N   UNL     1       4.532   5.170  17.062  0.00  0.00    +0.000 N 
ATOM     11  N   UNL     1       2.278   3.154  18.827  0.00  0.00    +0.000 N 
ATOM     12  C   UNL     1       1.922   1.750  18.786  0.00  0.00    +0.000 C 
ATOM     13  C   UNL     1       1.659   3.971  19.774  0.00  0.00    +0.000 A 
ATOM     14  O   UNL     1       0.817   3.524  20.558  0.00  0.00    +0.000 OA
ENDROOT
BRANCH  10  15
ATOM     15  C   UNL     1       5.092   6.423  16.575  0.00  0.00    +0.000 C 
BRANCH  15  16
ATOM     16  C   UNL     1       6.347   6.857  17.293  0.00  0.00    +0.000 A 
ATOM     17  C   UNL     1       6.877   8.142  17.124  0.00  0.00    +0.000 A 
ATOM     18  C   UNL     1       7.981   8.519  17.876  0.00  0.00    +0.000 A 
ATOM     19  N   UNL     1       8.590   7.715  18.771  0.00  0.00    +0.000 NA
ATOM     20  C   UNL     1       8.076   6.477  18.918  0.00  0.00    +0.000 A 
ATOM     21  C   UNL     1       6.977   6.010  18.212  0.00  0.00    +0.000 A 
ENDBRANCH  15  16
ENDBRANCH  10  15
TORSDOF 2
ENDMDL
MODEL 3
REMARK VINA RESULT:      -6.5      0.149      1.033
REMARK  Name = 
REMARK  4 active torsions:
REMARK  status: ('A' for Active; 'I' for Inactive)
REMARK    1  A    between atoms: C_1  and  N_2
REMARK    2  A    between atoms: N_10  and  C_11
REMARK    3  A    between atoms: C_11  and  C_12
REMARK    4  A    between atoms: N_18  and  C_19
REMARK                            x       y       z     vdW  Elec       q    Type
REMARK                         _______ _______ _______ _____ _____    ______ ____
ROOT
ATOM      1  C   UNL     1       3.707   1.206  18.162  0.00  0.00    +0.000 C 
ATOM      2  N   UNL     1       3.316   2.583  18.392  0.00  0.00    +0.000 N 
ATOM      3  C   UNL     1       3.999   3.593  17.708  0.00  0.00    +0.000 A 
ATOM      4  O   UNL     1       4.964   3.392  16.980  0.00  0.00    +0.000 OA
ATOM      5  C   UNL     1       3.466   4.894  17.949  0.00  0.00    +0.000 A 
ATOM      6  C   UNL     1       2.444   5.116  18.829  0.00  0.00    +0.000 A 
ATOM      7  N   UNL     1       2.108   6.428  18.905  0.00  0.00    +0.000 NA
ATOM      8  C   UNL     1       2.921   7.011  18.057  0.00  0.00    +0.000 A 
ATOM      9 CL   UNL     1       2.931   8.683  17.737  0.00  0.00    +0.000 Cl
ATOM     10  N   UNL     1       3.786   6.137  17.447  0.00  0.00    +0.000 N 
ATOM     11  N   UNL     1       1.862   4.095  19.541  0.00  0.00    +0.000 N 
ATOM     12  C   UNL     1       0.789   4.332  20.486  0.00  0.00    +0.000 C 
ATOM     13  C   UNL     1       2.278   2.782  19.321  0.00  0.00    +0.000 A 
ATOM     14  O   UNL     1       1.760   1.833  19.917  0.00  0.00    +0.000 OA
ENDROOT
BRANCH  10  15
ATOM     15  C   UNL     1       4.922   6.474  16.600  0.00  0.00    +0.000 C 
BRANCH  15  16
ATOM     16  C   UNL     1       6.157   6.886  17.363  0.00  0.00    +0.000 A 
ATOM     17  C   UNL     1       6.808   6.001  18.231  0.00  0.00    +0.000 A 
ATOM     18  C   UNL     1       7.990   6.401  18.839  0.00  0.00    +0.000 A 
ATOM     19  N   UNL     1       8.560   7.608  18.650  0.00  0.00    +0.000 NA
ATOM     20  C   UNL     1       7.919   8.455  17.819  0.00  0.00    +0.000 A 
ATOM     21  C   UNL     1       6.734   8.146  17.167  0.00  0.00    +0.000 A 
ENDBRANCH  15  16
ENDBRANCH  10  15
TORSDOF 2
ENDMDL
MODEL 4
REMARK VINA RESULT:      -6.5      1.996      3.070
REMARK  Name = 
REMARK  4 active torsions:
REMARK  status: ('A' for Active; 'I' for Inactive)
REMARK    1  A    between atoms: C_1  and  N_2
REMARK    2  A    between atoms: N_10  and  C_11
REMARK    3  A    between atoms: C_11  and  C_12
REMARK    4  A    between atoms: N_18  and  C_19
REMARK                            x       y       z     vdW  Elec       q    Type
REMARK                         _______ _______ _______ _____ _____    ______ ____
ROOT
ATOM      1  C   UNL     1       1.324   6.197  20.713  0.00  0.00    +0.000 C 
ATOM      2  N   UNL     1       1.977   5.354  19.731  0.00  0.00    +0.000 N 
ATOM      3  C   UNL     1       2.903   5.939  18.862  0.00  0.00    +0.000 A 
ATOM      4  O   UNL     1       3.144   7.140  18.828  0.00  0.00    +0.000 OA
ATOM      5  C   UNL     1       3.541   4.995  18.003  0.00  0.00    +0.000 A 
ATOM      6  C   UNL     1       3.204   3.671  17.991  0.00  0.00    +0.000 A 
ATOM      7  N   UNL     1       3.932   2.963  17.091  0.00  0.00    +0.000 NA
ATOM      8  C   UNL     1       4.729   3.858  16.558  0.00  0.00    +0.000 A 
ATOM      9 CL   UNL     1       5.885   3.516  15.357  0.00  0.00    +0.000 Cl
ATOM     10  N   UNL     1       4.537   5.122  17.059  0.00  0.00    +0.000 N 
ATOM     11  N   UNL     1       2.224   3.161  18.808  0.00  0.00    +0.000 N 
ATOM     12  C   UNL     1       1.855   1.760  18.784  0.00  0.00    +0.000 C 
ATOM     13  C   UNL     1       1.591   4.001  19.725  0.00  0.00    +0.000 A 
ATOM     14  O   UNL     1       0.727   3.577  20.498  0.00  0.00    +0.000 OA
ENDROOT
BRANCH  10  15
ATOM     15  C   UNL     1       5.120   6.361  16.563  0.00  0.00    +0.000 C 
BRANCH  15  16
ATOM     16  C   UNL     1       6.301   6.851  17.366  0.00  0.00    +0.000 A 
ATOM     17  C   UNL     1       6.922   6.036  18.320  0.00  0.00    +0.000 A 
ATOM     18  C   UNL     1       8.059   6.502  18.965  0.00  0.00    +0.000 A 
ATOM     19  N   UNL     1       8.611   7.710  18.735  0.00  0.00    +0.000 NA
ATOM     20  C   UNL     1       7.998   8.489  17.820  0.00  0.00    +0.000 A 
ATOM     21  C   UNL     1       6.859   8.111  17.125  0.00  0.00    +0.000 A 
ENDBRANCH  15  16
ENDBRANCH  10  15
TORSDOF 2
ENDMDL
MODEL 5
REMARK VINA RESULT:      -6.4      3.507      4.859
REMARK  Name = 
REMARK  4 active torsions:
REMARK  status: ('A' for Active; 'I' for Inactive)
REMARK    1  A    between atoms: C_1  and  N_2
REMARK    2  A    between atoms: N_10  and  C_11
REMARK    3  A    between atoms: C_11  and  C_12
REMARK    4  A    between atoms: N_18  and  C_19
REMARK                            x       y       z     vdW  Elec       q    Type
REMARK                         _______ _______ _______ _____ _____    ______ ____
ROOT
ATOM      1  C   UNL     1       1.876  10.969  17.961  0.00  0.00    +0.000 C 
ATOM      2  N   UNL     1       1.732   9.756  18.743  0.00  0.00    +0.000 N 
ATOM      3  C   UNL     1       2.324   8.583  18.265  0.00  0.00    +0.000 A 
ATOM      4  O   UNL     1       2.895   8.496  17.185  0.00  0.00    +0.000 OA
ATOM      5  C   UNL     1       2.189   7.481  19.163  0.00  0.00    +0.000 A 
ATOM      6  C   UNL     1       1.477   7.567  20.326  0.00  0.00    +0.000 A 
ATOM      7  N   UNL     1       1.475   6.398  21.014  0.00  0.00    +0.000 NA
ATOM      8  C   UNL     1       2.202   5.596  20.274  0.00  0.00    +0.000 A 
ATOM      9 CL   UNL     1       2.547   3.977  20.671  0.00  0.00    +0.000 Cl
ATOM     10  N   UNL     1       2.660   6.187  19.123  0.00  0.00    +0.000 N 
ATOM     11  N   UNL     1       0.842   8.724  20.708  0.00  0.00    +0.000 N 
ATOM     12  C   UNL     1       0.073   8.811  21.934  0.00  0.00    +0.000 C 
ATOM     13  C   UNL     1       0.974   9.870  19.922  0.00  0.00    +0.000 A 
ATOM     14  O   UNL     1       0.445  10.937  20.245  0.00  0.00    +0.000 OA
ENDROOT
BRANCH  10  15
ATOM     15  C   UNL     1       3.331   5.534  18.007  0.00  0.00    +0.000 C 
BRANCH  15  16
ATOM     16  C   UNL     1       4.835   5.668  18.030  0.00  0.00    +0.000 A 
ATOM     17  C   UNL     1       5.535   6.202  16.941  0.00  0.00    +0.000 A 
ATOM     18  C   UNL     1       6.906   6.387  17.049  0.00  0.00    +0.000 A 
ATOM     19  N   UNL     1       7.622   6.077  18.149  0.00  0.00    +0.000 NA
ATOM     20  C   UNL     1       6.937   5.556  19.187  0.00  0.00    +0.000 A 
ATOM     21  C   UNL     1       5.568   5.334  19.174  0.00  0.00    +0.000 A 
ENDBRANCH  15  16
ENDBRANCH  10  15
TORSDOF 2
ENDMDL
MODEL 6
REMARK VINA RESULT:      -6.3      1.868      2.506
REMARK  Name = 
REMARK  4 active torsions:
REMARK  status: ('A' for Active; 'I' for Inactive)
REMARK    1  A    between atoms: C_1  and  N_2
REMARK    2  A    between atoms: N_10  and  C_11
REMARK    3  A    between atoms: C_11  and  C_12
REMARK    4  A    between atoms: N_18  and  C_19
REMARK                            x       y       z     vdW  Elec       q    Type
REMARK                         _______ _______ _______ _____ _____    ______ ____
ROOT
ATOM      1  C   UNL     1       4.833   1.698  20.382  0.00  0.00    +0.000 C 
ATOM      2  N   UNL     1       4.140   2.924  20.042  0.00  0.00    +0.000 N 
ATOM      3  C   UNL     1       4.817   3.884  19.282  0.00  0.00    +0.000 A 
ATOM      4  O   UNL     1       5.991   3.786  18.947  0.00  0.00    +0.000 OA
ATOM      5  C   UNL     1       4.003   5.004  18.938  0.00  0.00    +0.000 A 
ATOM      6  C   UNL     1       2.720   5.144  19.387  0.00  0.00    +0.000 A 
ATOM      7  N   UNL     1       2.141   6.287  18.944  0.00  0.00    +0.000 NA
ATOM      8  C   UNL     1       3.072   6.845  18.207  0.00  0.00    +0.000 A 
ATOM      9 CL   UNL     1       2.882   8.322  17.382  0.00  0.00    +0.000 Cl
ATOM     10  N   UNL     1       4.239   6.123  18.169  0.00  0.00    +0.000 N 
ATOM     11  N   UNL     1       2.128   4.209  20.204  0.00  0.00    +0.000 N 
ATOM     12  C   UNL     1       0.774   4.365  20.695  0.00  0.00    +0.000 C 
ATOM     13  C   UNL     1       2.830   3.050  20.539  0.00  0.00    +0.000 A 
ATOM     14  O   UNL     1       2.324   2.173  21.245  0.00  0.00    +0.000 OA
ENDROOT
BRANCH  10  15
ATOM     15  C   UNL     1       5.513   6.542  17.601  0.00  0.00    +0.000 C 
BRANCH  15  16
ATOM     16  C   UNL     1       5.901   5.800  16.345  0.00  0.00    +0.000 A 
ATOM     17  C   UNL     1       7.242   5.625  15.986  0.00  0.00    +0.000 A 
ATOM     18  C   UNL     1       7.546   4.859  14.870  0.00  0.00    +0.000 A 
ATOM     19  N   UNL     1       6.619   4.265  14.092  0.00  0.00    +0.000 NA
ATOM     20  C   UNL     1       5.330   4.449  14.442  0.00  0.00    +0.000 A 
ATOM     21  C   UNL     1       4.929   5.198  15.538  0.00  0.00    +0.000 A 
ENDBRANCH  15  16
ENDBRANCH  10  15
TORSDOF 2
ENDMDL
MODEL 7
REMARK VINA RESULT:      -6.2      3.235      4.576
REMARK  Name = 
REMARK  4 active torsions:
REMARK  status: ('A' for Active; 'I' for Inactive)
REMARK    1  A    between atoms: C_1  and  N_2
REMARK    2  A    between atoms: N_10  and  C_11
REMARK    3  A    between atoms: C_11  and  C_12
REMARK    4  A    between atoms: N_18  and  C_19
REMARK                            x       y       z     vdW  Elec       q    Type
REMARK                         _______ _______ _______ _____ _____    ______ ____
ROOT
ATOM      1  C   UNL     1       2.198  10.008  17.796  0.00  0.00    +0.000 C 
ATOM      2  N   UNL     1       2.039   8.847  18.649  0.00  0.00    +0.000 N 
ATOM      3  C   UNL     1       2.577   7.629  18.223  0.00  0.00    +0.000 A 
ATOM      4  O   UNL     1       3.112   7.462  17.134  0.00  0.00    +0.000 OA
ATOM      5  C   UNL     1       2.433   6.585  19.185  0.00  0.00    +0.000 A 
ATOM      6  C   UNL     1       1.760   6.759  20.362  0.00  0.00    +0.000 A 
ATOM      7  N   UNL     1       1.741   5.632  21.115  0.00  0.00    +0.000 NA
ATOM      8  C   UNL     1       2.419   4.765  20.402  0.00  0.00    +0.000 A 
ATOM      9 CL   UNL     1       2.723   3.161  20.881  0.00  0.00    +0.000 Cl
ATOM     10  N   UNL     1       2.861   5.275  19.206  0.00  0.00    +0.000 N 
ATOM     11  N   UNL     1       1.175   7.958  20.695  0.00  0.00    +0.000 N 
ATOM     12  C   UNL     1       0.447   8.139  21.935  0.00  0.00    +0.000 C 
ATOM     13  C   UNL     1       1.320   9.052  19.841  0.00  0.00    +0.000 A 
ATOM     14  O   UNL     1       0.836  10.153  20.118  0.00  0.00    +0.000 OA
ENDROOT
BRANCH  10  15
ATOM     15  C   UNL     1       3.477   4.537  18.111  0.00  0.00    +0.000 C 
BRANCH  15  16
ATOM     16  C   UNL     1       4.960   4.775  17.967  0.00  0.00    +0.000 A 
ATOM     17  C   UNL     1       5.726   5.271  19.028  0.00  0.00    +0.000 A 
ATOM     18  C   UNL     1       7.100   5.386  18.871  0.00  0.00    +0.000 A 
ATOM     19  N   UNL     1       7.757   5.051  17.742  0.00  0.00    +0.000 NA
ATOM     20  C   UNL     1       7.008   4.583  16.724  0.00  0.00    +0.000 A 
ATOM     21  C   UNL     1       5.630   4.433  16.786  0.00  0.00    +0.000 A 
ENDBRANCH  15  16
ENDBRANCH  10  15
TORSDOF 2
ENDMDL
MODEL 8
REMARK VINA RESULT:      -6.2      1.897      2.551
REMARK  Name = 
REMARK  4 active torsions:
REMARK  status: ('A' for Active; 'I' for Inactive)
REMARK    1  A    between atoms: C_1  and  N_2
REMARK    2  A    between atoms: N_10  and  C_11
REMARK    3  A    between atoms: C_11  and  C_12
REMARK    4  A    between atoms: N_18  and  C_19
REMARK                            x       y       z     vdW  Elec       q    Type
REMARK                         _______ _______ _______ _____ _____    ______ ____
ROOT
ATOM      1  C   UNL     1       4.831   1.672  20.418  0.00  0.00    +0.000 C 
ATOM      2  N   UNL     1       4.139   2.896  20.069  0.00  0.00    +0.000 N 
ATOM      3  C   UNL     1       4.812   3.843  19.290  0.00  0.00    +0.000 A 
ATOM      4  O   UNL     1       5.983   3.736  18.945  0.00  0.00    +0.000 OA
ATOM      5  C   UNL     1       3.999   4.962  18.941  0.00  0.00    +0.000 A 
ATOM      6  C   UNL     1       2.721   5.113  19.401  0.00  0.00    +0.000 A 
ATOM      7  N   UNL     1       2.143   6.253  18.950  0.00  0.00    +0.000 NA
ATOM      8  C   UNL     1       3.068   6.798  18.196  0.00  0.00    +0.000 A 
ATOM      9 CL   UNL     1       2.876   8.264  17.354  0.00  0.00    +0.000 Cl
ATOM     10  N   UNL     1       4.232   6.070  18.155  0.00  0.00    +0.000 N 
ATOM     11  N   UNL     1       2.135   4.191  20.236  0.00  0.00    +0.000 N 
ATOM     12  C   UNL     1       0.786   4.359  20.739  0.00  0.00    +0.000 C 
ATOM     13  C   UNL     1       2.835   3.034  20.579  0.00  0.00    +0.000 A 
ATOM     14  O   UNL     1       2.333   2.168  21.301  0.00  0.00    +0.000 OA
ENDROOT
BRANCH  10  15
ATOM     15  C   UNL     1       5.501   6.477  17.568  0.00  0.00    +0.000 C 
BRANCH  15  16
ATOM     16  C   UNL     1       5.902   5.677  16.352  0.00  0.00    +0.000 A 
ATOM     17  C   UNL     1       4.944   5.075  15.528  0.00  0.00    +0.000 A 
ATOM     18  C   UNL     1       5.362   4.427  14.374  0.00  0.00    +0.000 A 
ATOM     19  N   UNL     1       6.651   4.334  13.989  0.00  0.00    +0.000 NA
ATOM     20  C   UNL     1       7.564   4.911  14.796  0.00  0.00    +0.000 A 
ATOM     21  C   UNL     1       7.244   5.579  15.969  0.00  0.00    +0.000 A 
ENDBRANCH  15  16
ENDBRANCH  10  15
TORSDOF 2
ENDMDL
MODEL 9
REMARK VINA RESULT:      -6.2      2.764      3.485
REMARK  Name = 
REMARK  4 active torsions:
REMARK  status: ('A' for Active; 'I' for Inactive)
REMARK    1  A    between atoms: C_1  and  N_2
REMARK    2  A    between atoms: N_10  and  C_11
REMARK    3  A    between atoms: C_11  and  C_12
REMARK    4  A    between atoms: N_18  and  C_19
REMARK                            x       y       z     vdW  Elec       q    Type
REMARK                         _______ _______ _______ _____ _____    ______ ____
ROOT
ATOM      1  C   UNL     1       1.580   2.131  18.729  0.00  0.00    +0.000 C 
ATOM      2  N   UNL     1       2.386   3.334  18.678  0.00  0.00    +0.000 N 
ATOM      3  C   UNL     1       3.618   3.283  18.017  0.00  0.00    +0.000 A 
ATOM      4  O   UNL     1       4.095   2.261  17.541  0.00  0.00    +0.000 OA
ATOM      5  C   UNL     1       4.276   4.548  17.959  0.00  0.00    +0.000 A 
ATOM      6  C   UNL     1       3.775   5.664  18.567  0.00  0.00    +0.000 A 
ATOM      7  N   UNL     1       4.570   6.748  18.389  0.00  0.00    +0.000 NA
ATOM      8  C   UNL     1       5.558   6.295  17.655  0.00  0.00    +0.000 A 
ATOM      9 CL   UNL     1       6.863   7.246  17.114  0.00  0.00    +0.000 Cl
ATOM     10  N   UNL     1       5.450   4.957  17.365  0.00  0.00    +0.000 N 
ATOM     11  N   UNL     1       2.598   5.640  19.278  0.00  0.00    +0.000 N 
ATOM     12  C   UNL     1       2.075   6.820  19.937  0.00  0.00    +0.000 C 
ATOM     13  C   UNL     1       1.856   4.460  19.334  0.00  0.00    +0.000 A 
ATOM     14  O   UNL     1       0.779   4.405  19.936  0.00  0.00    +0.000 OA
ENDROOT
BRANCH  10  15
ATOM     15  C   UNL     1       6.455   4.111  16.735  0.00  0.00    +0.000 C 
BRANCH  15  16
ATOM     16  C   UNL     1       6.519   4.247  15.233  0.00  0.00    +0.000 A 
ATOM     17  C   UNL     1       7.498   5.034  14.614  0.00  0.00    +0.000 A 
ATOM     18  C   UNL     1       7.568   5.052  13.228  0.00  0.00    +0.000 A 
ATOM     19  N   UNL     1       6.740   4.355  12.425  0.00  0.00    +0.000 NA
ATOM     20  C   UNL     1       5.796   3.608  13.033  0.00  0.00    +0.000 A 
ATOM     21  C   UNL     1       5.647   3.526  14.410  0.00  0.00    +0.000 A 
ENDBRANCH  15  16
ENDBRANCH  10  15
TORSDOF 2
ENDMDL
