MODEL 1
REMARK VINA RESULT:      -7.3      0.000      0.000
REMARK  Name = 
REMARK  3 active torsions:
REMARK  status: ('A' for Active; 'I' for Inactive)
REMARK    1  A    between atoms: C_1  and  S_2
REMARK    2  A    between atoms: S_2  and  C_3
REMARK    3  A    between atoms: N_11  and  C_12
REMARK                            x       y       z     vdW  Elec       q    Type
REMARK                         _______ _______ _______ _____ _____    ______ ____
ROOT
ATOM      1  C   UNL     1       6.732   4.846  16.176  0.00  0.00    +0.000 A 
ATOM      2  N   UNL     1       7.742   5.040  17.063  0.00  0.00    +0.000 NA
ATOM      3  C   UNL     1       7.497   4.786  18.362  0.00  0.00    +0.000 A 
ATOM      4  N   UNL     1       6.356   4.344  18.929  0.00  0.00    +0.000 NA
ATOM      5  C   UNL     1       5.391   4.168  18.008  0.00  0.00    +0.000 A 
ATOM      6  C   UNL     1       5.490   4.391  16.640  0.00  0.00    +0.000 A 
ATOM      7  N   UNL     1       4.293   4.105  16.021  0.00  0.00    +0.000 NA
ATOM      8  C   UNL     1       3.487   3.725  16.988  0.00  0.00    +0.000 A 
ATOM      9  N   UNL     1       4.099   3.738  18.212  0.00  0.00    +0.000 N 
ENDROOT
BRANCH   9  10
ATOM     10  C   UNL     1       3.508   3.423  19.499  0.00  0.00    +0.000 C 
ATOM     11  C   UNL     1       2.698   2.105  19.505  0.00  0.00    +0.000 C 
ATOM     12  C   UNL     1       1.365   2.512  20.168  0.00  0.00    +0.000 C 
ATOM     13  C   UNL     1       1.601   2.880  21.643  0.00  0.00    +0.000 C 
ATOM     14  C   UNL     1       2.327   4.232  21.554  0.00  0.00    +0.000 C 
ATOM     15  C   UNL     1       2.466   4.446  20.034  0.00  0.00    +0.000 C 
ATOM     16  C   UNL     1       1.123   3.884  19.548  0.00  0.00    +0.000 C 
ENDBRANCH   9  10
BRANCH   1  18
ATOM     17  C   UNL     1       6.280   3.687  13.740  0.00  0.00    +0.000 C 
ATOM     18  S   UNL     1       6.971   5.196  14.461  0.00  0.00    +0.000 S 
ENDBRANCH   1  18
TORSDOF 2
ENDMDL
MODEL 2
REMARK VINA RESULT:      -6.8      2.199      2.656
REMARK  Name = 
REMARK  3 active torsions:
REMARK  status: ('A' for Active; 'I' for Inactive)
REMARK    1  A    between atoms: C_1  and  S_2
REMARK    2  A    between atoms: S_2  and  C_3
REMARK    3  A    between atoms: N_11  and  C_12
REMARK                            x       y       z     vdW  Elec       q    Type
REMARK                         _______ _______ _______ _____ _____    ______ ____
ROOT
ATOM      1  C   UNL     1       7.144   6.852  18.140  0.00  0.00    +0.000 A 
ATOM      2  N   UNL     1       8.003   6.252  19.004  0.00  0.00    +0.000 NA
ATOM      3  C   UNL     1       7.538   5.227  19.744  0.00  0.00    +0.000 A 
ATOM      4  N   UNL     1       6.302   4.687  19.744  0.00  0.00    +0.000 NA
ATOM      5  C   UNL     1       5.495   5.317  18.871  0.00  0.00    +0.000 A 
ATOM      6  C   UNL     1       5.826   6.387  18.048  0.00  0.00    +0.000 A 
ATOM      7  N   UNL     1       4.735   6.767  17.297  0.00  0.00    +0.000 NA
ATOM      8  C   UNL     1       3.767   5.956  17.659  0.00  0.00    +0.000 A 
ATOM      9  N   UNL     1       4.170   5.052  18.606  0.00  0.00    +0.000 N 
ENDROOT
BRANCH   9  10
ATOM     10  C   UNL     1       3.363   4.042  19.262  0.00  0.00    +0.000 C 
ATOM     11  C   UNL     1       2.035   3.734  18.531  0.00  0.00    +0.000 C 
ATOM     12  C   UNL     1       0.984   3.809  19.659  0.00  0.00    +0.000 C 
ATOM     13  C   UNL     1       1.202   2.660  20.658  0.00  0.00    +0.000 C 
ATOM     14  C   UNL     1       2.482   3.079  21.400  0.00  0.00    +0.000 C 
ATOM     15  C   UNL     1       2.870   4.393  20.695  0.00  0.00    +0.000 C 
ATOM     16  C   UNL     1       1.483   5.007  20.460  0.00  0.00    +0.000 C 
ENDBRANCH   9  10
BRANCH   1  18
ATOM     17  C   UNL     1       8.548   9.181  18.431  0.00  0.00    +0.000 C 
ATOM     18  S   UNL     1       7.676   8.227  17.166  0.00  0.00    +0.000 S 
ENDBRANCH   1  18
TORSDOF 2
ENDMDL
MODEL 3
REMARK VINA RESULT:      -6.8      2.231      2.959
REMARK  Name = 
REMARK  3 active torsions:
REMARK  status: ('A' for Active; 'I' for Inactive)
REMARK    1  A    between atoms: C_1  and  S_2
REMARK    2  A    between atoms: S_2  and  C_3
REMARK    3  A    between atoms: N_11  and  C_12
REMARK                            x       y       z     vdW  Elec       q    Type
REMARK                         _______ _______ _______ _____ _____    ______ ____
ROOT
ATOM      1  C   UNL     1       7.447   7.135  18.140  0.00  0.00    +0.000 A 
ATOM      2  N   UNL     1       8.210   6.532  19.088  0.00  0.00    +0.000 NA
ATOM      3  C   UNL     1       7.753   5.388  19.632  0.00  0.00    +0.000 A 
ATOM      4  N   UNL     1       6.610   4.728  19.355  0.00  0.00    +0.000 NA
ATOM      5  C   UNL     1       5.895   5.365  18.411  0.00  0.00    +0.000 A 
ATOM      6  C   UNL     1       6.231   6.549  17.765  0.00  0.00    +0.000 A 
ATOM      7  N   UNL     1       5.248   6.898  16.864  0.00  0.00    +0.000 NA
ATOM      8  C   UNL     1       4.337   5.955  16.965  0.00  0.00    +0.000 A 
ATOM      9  N   UNL     1       4.678   4.997  17.882  0.00  0.00    +0.000 N 
ENDROOT
BRANCH   9  10
ATOM     10  C   UNL     1       3.899   3.841  18.283  0.00  0.00    +0.000 C 
ATOM     11  C   UNL     1       2.776   3.471  17.286  0.00  0.00    +0.000 C 
ATOM     12  C   UNL     1       1.536   3.312  18.191  0.00  0.00    +0.000 C 
ATOM     13  C   UNL     1       1.712   2.093  19.113  0.00  0.00    +0.000 C 
ATOM     14  C   UNL     1       2.772   2.567  20.121  0.00  0.00    +0.000 C 
ATOM     15  C   UNL     1       3.113   3.983  19.618  0.00  0.00    +0.000 C 
ATOM     16  C   UNL     1       1.726   4.464  19.172  0.00  0.00    +0.000 C 
ENDBRANCH   9  10
BRANCH   1  18
ATOM     17  C   UNL     1       8.815   9.401  18.827  0.00  0.00    +0.000 C 
ATOM     18  S   UNL     1       7.967   8.658  17.412  0.00  0.00    +0.000 S 
ENDBRANCH   1  18
TORSDOF 2
ENDMDL
MODEL 4
REMARK VINA RESULT:      -6.7      4.998      6.403
REMARK  Name = 
REMARK  3 active torsions:
REMARK  status: ('A' for Active; 'I' for Inactive)
REMARK    1  A    between atoms: C_1  and  S_2
REMARK    2  A    between atoms: S_2  and  C_3
REMARK    3  A    between atoms: N_11  and  C_12
REMARK                            x       y       z     vdW  Elec       q    Type
REMARK                         _______ _______ _______ _____ _____    ______ ____
ROOT
ATOM      1  C   UNL     1       0.716  10.255  19.706  0.00  0.00    +0.000 A 
ATOM      2  N   UNL     1       0.396   9.978  20.996  0.00  0.00    +0.000 NA
ATOM      3  C   UNL     1       0.798   8.797  21.506  0.00  0.00    +0.000 A 
ATOM      4  N   UNL     1       1.504   7.821  20.900  0.00  0.00    +0.000 NA
ATOM      5  C   UNL     1       1.795   8.148  19.627  0.00  0.00    +0.000 A 
ATOM      6  C   UNL     1       1.446   9.318  18.964  0.00  0.00    +0.000 A 
ATOM      7  N   UNL     1       1.915   9.291  17.668  0.00  0.00    +0.000 NA
ATOM      8  C   UNL     1       2.525   8.133  17.546  0.00  0.00    +0.000 A 
ATOM      9  N   UNL     1       2.490   7.401  18.703  0.00  0.00    +0.000 N 
ENDROOT
BRANCH   9  10
ATOM     10  C   UNL     1       3.020   6.068  18.921  0.00  0.00    +0.000 C 
ATOM     11  C   UNL     1       3.844   5.524  17.730  0.00  0.00    +0.000 C 
ATOM     12  C   UNL     1       3.253   4.116  17.505  0.00  0.00    +0.000 C 
ATOM     13  C   UNL     1       3.579   3.210  18.704  0.00  0.00    +0.000 C 
ATOM     14  C   UNL     1       2.664   3.756  19.814  0.00  0.00    +0.000 C 
ATOM     15  C   UNL     1       1.965   4.944  19.126  0.00  0.00    +0.000 C 
ATOM     16  C   UNL     1       1.764   4.374  17.716  0.00  0.00    +0.000 C 
ENDBRANCH   9  10
BRANCH   1  18
ATOM     17  C   UNL     1      -1.448  11.265  18.372  0.00  0.00    +0.000 C 
ATOM     18  S   UNL     1       0.187  11.768  18.962  0.00  0.00    +0.000 S 
ENDBRANCH   1  18
TORSDOF 2
ENDMDL
MODEL 5
REMARK VINA RESULT:      -6.6      4.545      6.681
REMARK  Name = 
REMARK  3 active torsions:
REMARK  status: ('A' for Active; 'I' for Inactive)
REMARK    1  A    between atoms: C_1  and  S_2
REMARK    2  A    between atoms: S_2  and  C_3
REMARK    3  A    between atoms: N_11  and  C_12
REMARK                            x       y       z     vdW  Elec       q    Type
REMARK                         _______ _______ _______ _____ _____    ______ ____
ROOT
ATOM      1  C   UNL     1       1.171   9.124  20.123  0.00  0.00    +0.000 A 
ATOM      2  N   UNL     1       1.161  10.094  19.173  0.00  0.00    +0.000 NA
ATOM      3  C   UNL     1       1.730   9.817  17.984  0.00  0.00    +0.000 A 
ATOM      4  N   UNL     1       2.321   8.672  17.585  0.00  0.00    +0.000 NA
ATOM      5  C   UNL     1       2.302   7.747  18.562  0.00  0.00    +0.000 A 
ATOM      6  C   UNL     1       1.761   7.887  19.835  0.00  0.00    +0.000 A 
ATOM      7  N   UNL     1       1.936   6.727  20.559  0.00  0.00    +0.000 NA
ATOM      8  C   UNL     1       2.572   5.909  19.750  0.00  0.00    +0.000 A 
ATOM      9  N   UNL     1       2.815   6.471  18.525  0.00  0.00    +0.000 N 
ENDROOT
BRANCH   9  10
ATOM     10  C   UNL     1       3.527   5.879  17.408  0.00  0.00    +0.000 C 
ATOM     11  C   UNL     1       3.626   4.337  17.479  0.00  0.00    +0.000 C 
ATOM     12  C   UNL     1       5.123   4.066  17.223  0.00  0.00    +0.000 C 
ATOM     13  C   UNL     1       5.489   4.455  15.780  0.00  0.00    +0.000 C 
ATOM     14  C   UNL     1       5.454   5.992  15.813  0.00  0.00    +0.000 C 
ATOM     15  C   UNL     1       5.019   6.293  17.260  0.00  0.00    +0.000 C 
ATOM     16  C   UNL     1       5.777   5.193  18.016  0.00  0.00    +0.000 C 
ENDBRANCH   9  10
BRANCH   1  18
ATOM     17  C   UNL     1       0.018  11.171  21.523  0.00  0.00    +0.000 C 
ATOM     18  S   UNL     1       0.478   9.433  21.719  0.00  0.00    +0.000 S 
ENDBRANCH   1  18
TORSDOF 2
ENDMDL
MODEL 6
REMARK VINA RESULT:      -6.5      2.095      3.225
REMARK  Name = 
REMARK  3 active torsions:
REMARK  status: ('A' for Active; 'I' for Inactive)
REMARK    1  A    between atoms: C_1  and  S_2
REMARK    2  A    between atoms: S_2  and  C_3
REMARK    3  A    between atoms: N_11  and  C_12
REMARK                            x       y       z     vdW  Elec       q    Type
REMARK                         _______ _______ _______ _____ _____    ______ ____
ROOT
ATOM      1  C   UNL     1       6.774   6.747  17.665  0.00  0.00    +0.000 A 
ATOM      2  N   UNL     1       6.342   7.126  16.435  0.00  0.00    +0.000 NA
ATOM      3  C   UNL     1       5.203   6.577  15.970  0.00  0.00    +0.000 A 
ATOM      4  N   UNL     1       4.397   5.681  16.575  0.00  0.00    +0.000 NA
ATOM      5  C   UNL     1       4.870   5.342  17.789  0.00  0.00    +0.000 A 
ATOM      6  C   UNL     1       6.026   5.815  18.398  0.00  0.00    +0.000 A 
ATOM      7  N   UNL     1       6.185   5.235  19.637  0.00  0.00    +0.000 NA
ATOM      8  C   UNL     1       5.157   4.426  19.774  0.00  0.00    +0.000 A 
ATOM      9  N   UNL     1       4.324   4.454  18.688  0.00  0.00    +0.000 N 
ENDROOT
BRANCH   9  10
ATOM     10  C   UNL     1       3.125   3.666  18.474  0.00  0.00    +0.000 C 
ATOM     11  C   UNL     1       1.815   4.481  18.591  0.00  0.00    +0.000 C 
ATOM     12  C   UNL     1       0.948   3.625  19.537  0.00  0.00    +0.000 C 
ATOM     13  C   UNL     1       0.572   2.300  18.851  0.00  0.00    +0.000 C 
ATOM     14  C   UNL     1       1.895   1.517  18.852  0.00  0.00    +0.000 C 
ATOM     15  C   UNL     1       2.881   2.514  19.491  0.00  0.00    +0.000 C 
ATOM     16  C   UNL     1       1.982   3.155  20.556  0.00  0.00    +0.000 C 
ENDBRANCH   9  10
BRANCH   1  18
ATOM     17  C   UNL     1       8.082   9.139  17.878  0.00  0.00    +0.000 C 
ATOM     18  S   UNL     1       8.280   7.396  18.321  0.00  0.00    +0.000 S 
ENDBRANCH   1  18
TORSDOF 2
ENDMDL
MODEL 7
REMARK VINA RESULT:      -6.5      1.522      1.750
REMARK  Name = 
REMARK  3 active torsions:
REMARK  status: ('A' for Active; 'I' for Inactive)
REMARK    1  A    between atoms: C_1  and  S_2
REMARK    2  A    between atoms: S_2  and  C_3
REMARK    3  A    between atoms: N_11  and  C_12
REMARK                            x       y       z     vdW  Elec       q    Type
REMARK                         _______ _______ _______ _____ _____    ______ ____
ROOT
ATOM      1  C   UNL     1       5.794   5.349  15.426  0.00  0.00    +0.000 A 
ATOM      2  N   UNL     1       5.537   6.672  15.593  0.00  0.00    +0.000 NA
ATOM      3  C   UNL     1       4.770   7.037  16.638  0.00  0.00    +0.000 A 
ATOM      4  N   UNL     1       4.208   6.252  17.580  0.00  0.00    +0.000 NA
ATOM      5  C   UNL     1       4.495   4.954  17.367  0.00  0.00    +0.000 A 
ATOM      6  C   UNL     1       5.263   4.426  16.336  0.00  0.00    +0.000 A 
ATOM      7  N   UNL     1       5.329   3.054  16.445  0.00  0.00    +0.000 NA
ATOM      8  C   UNL     1       4.616   2.757  17.508  0.00  0.00    +0.000 A 
ATOM      9  N   UNL     1       4.091   3.869  18.111  0.00  0.00    +0.000 N 
ENDROOT
BRANCH   9  10
ATOM     10  C   UNL     1       3.224   3.917  19.273  0.00  0.00    +0.000 C 
ATOM     11  C   UNL     1       3.305   2.654  20.162  0.00  0.00    +0.000 C 
ATOM     12  C   UNL     1       1.824   2.276  20.375  0.00  0.00    +0.000 C 
ATOM     13  C   UNL     1       1.122   3.353  21.220  0.00  0.00    +0.000 C 
ATOM     14  C   UNL     1       1.002   4.537  20.246  0.00  0.00    +0.000 C 
ATOM     15  C   UNL     1       1.700   4.009  18.978  0.00  0.00    +0.000 C 
ATOM     16  C   UNL     1       1.239   2.546  18.993  0.00  0.00    +0.000 C 
ENDBRANCH   9  10
BRANCH   1  18
ATOM     17  C   UNL     1       5.506   3.852  13.155  0.00  0.00    +0.000 C 
ATOM     18  S   UNL     1       6.760   4.795  14.054  0.00  0.00    +0.000 S 
ENDBRANCH   1  18
TORSDOF 2
ENDMDL
MODEL 8
REMARK VINA RESULT:      -6.5      2.519      6.154
REMARK  Name = 
REMARK  3 active torsions:
REMARK  status: ('A' for Active; 'I' for Inactive)
REMARK    1  A    between atoms: C_1  and  S_2
REMARK    2  A    between atoms: S_2  and  C_3
REMARK    3  A    between atoms: N_11  and  C_12
REMARK                            x       y       z     vdW  Elec       q    Type
REMARK                         _______ _______ _______ _____ _____    ______ ____
ROOT
ATOM      1  C   UNL     1       2.687   3.259  19.922  0.00  0.00    +0.000 A 
ATOM      2  N   UNL     1       2.066   2.190  19.360  0.00  0.00    +0.000 NA
ATOM      3  C   UNL     1       2.510   1.761  18.163  0.00  0.00    +0.000 A 
ATOM      4  N   UNL     1       3.523   2.252  17.421  0.00  0.00    +0.000 NA
ATOM      5  C   UNL     1       4.103   3.306  18.024  0.00  0.00    +0.000 A 
ATOM      6  C   UNL     1       3.755   3.865  19.248  0.00  0.00    +0.000 A 
ATOM      7  N   UNL     1       4.572   4.937  19.534  0.00  0.00    +0.000 NA
ATOM      8  C   UNL     1       5.389   5.031  18.508  0.00  0.00    +0.000 A 
ATOM      9  N   UNL     1       5.155   4.066  17.565  0.00  0.00    +0.000 N 
ENDROOT
BRANCH   9  10
ATOM     10  C   UNL     1       5.831   3.892  16.293  0.00  0.00    +0.000 C 
ATOM     11  C   UNL     1       7.199   4.609  16.212  0.00  0.00    +0.000 C 
ATOM     12  C   UNL     1       7.119   5.376  14.876  0.00  0.00    +0.000 C 
ATOM     13  C   UNL     1       7.082   4.383  13.701  0.00  0.00    +0.000 C 
ATOM     14  C   UNL     1       5.671   3.780  13.796  0.00  0.00    +0.000 C 
ATOM     15  C   UNL     1       5.092   4.464  15.050  0.00  0.00    +0.000 C 
ATOM     16  C   UNL     1       5.678   5.874  14.897  0.00  0.00    +0.000 C 
ENDBRANCH   9  10
BRANCH   1  18
ATOM     17  C   UNL     1       1.526   5.517  20.938  0.00  0.00    +0.000 C 
ATOM     18  S   UNL     1       2.132   3.898  21.473  0.00  0.00    +0.000 S 
ENDBRANCH   1  18
TORSDOF 2
ENDMDL
MODEL 9
REMARK VINA RESULT:      -6.5      5.025      6.293
REMARK  Name = 
REMARK  3 active torsions:
REMARK  status: ('A' for Active; 'I' for Inactive)
REMARK    1  A    between atoms: C_1  and  S_2
REMARK    2  A    between atoms: S_2  and  C_3
REMARK    3  A    between atoms: N_11  and  C_12
REMARK                            x       y       z     vdW  Elec       q    Type
REMARK                         _______ _______ _______ _____ _____    ______ ____
ROOT
ATOM      1  C   UNL     1       0.735  10.348  19.883  0.00  0.00    +0.000 A 
ATOM      2  N   UNL     1       0.423  10.386  21.204  0.00  0.00    +0.000 NA
ATOM      3  C   UNL     1       0.733   9.312  21.955  0.00  0.00    +0.000 A 
ATOM      4  N   UNL     1       1.336   8.168  21.572  0.00  0.00    +0.000 NA
ATOM      5  C   UNL     1       1.623   8.185  20.258  0.00  0.00    +0.000 A 
ATOM      6  C   UNL     1       1.362   9.211  19.358  0.00  0.00    +0.000 A 
ATOM      7  N   UNL     1       1.795   8.863  18.097  0.00  0.00    +0.000 NA
ATOM      8  C   UNL     1       2.299   7.655  18.226  0.00  0.00    +0.000 A 
ATOM      9  N   UNL     1       2.227   7.196  19.515  0.00  0.00    +0.000 N 
ENDROOT
BRANCH   9  10
ATOM     10  C   UNL     1       2.644   5.900  20.014  0.00  0.00    +0.000 C 
ATOM     11  C   UNL     1       3.597   5.142  19.060  0.00  0.00    +0.000 C 
ATOM     12  C   UNL     1       2.965   3.737  18.969  0.00  0.00    +0.000 C 
ATOM     13  C   UNL     1       3.065   3.027  20.331  0.00  0.00    +0.000 C 
ATOM     14  C   UNL     1       2.033   3.776  21.192  0.00  0.00    +0.000 C 
ATOM     15  C   UNL     1       1.508   4.859  20.231  0.00  0.00    +0.000 C 
ATOM     16  C   UNL     1       1.479   4.075  18.912  0.00  0.00    +0.000 C 
ENDBRANCH   9  10
BRANCH   1  18
ATOM     17  C   UNL     1       1.941  12.505  18.710  0.00  0.00    +0.000 C 
ATOM     18  S   UNL     1       0.322  11.706  18.830  0.00  0.00    +0.000 S 
ENDBRANCH   1  18
TORSDOF 2
ENDMDL
