MODEL 1
REMARK VINA RESULT:      -7.2      0.000      0.000
REMARK  Name = 
REMARK  5 active torsions:
REMARK  status: ('A' for Active; 'I' for Inactive)
REMARK    1  A    between atoms: C_1  and  C_2
REMARK    2  A    between atoms: C_5  and  C_7
REMARK    3  A    between atoms: N_9  and  C_10
REMARK    4  A    between atoms: C_12  and  N_13
REMARK    5  A    between atoms: C_16  and  C_17
REMARK                            x       y       z     vdW  Elec       q    Type
REMARK                         _______ _______ _______ _____ _____    ______ ____
ROOT
ATOM      1  C   UNL     1       2.445   8.678  17.987  0.00  0.00    +0.000 C 
ATOM      2  C   UNL     1       2.755   7.324  18.508  0.00  0.00    +0.000 A 
ATOM      3  N   UNL     1       3.584   6.525  17.836  0.00  0.00    +0.000 NA
ATOM      4  N   UNL     1       3.715   5.395  18.595  0.00  0.00    +0.000 N 
ATOM      5  C   UNL     1       4.553   4.336  18.128  0.00  0.00    +0.000 C 
ATOM      6  O   UNL     1       4.556   3.291  18.781  0.00  0.00    +0.000 OA
ATOM      7  C   UNL     1       2.906   5.474  19.733  0.00  0.00    +0.000 A 
ATOM      8  C   UNL     1       2.766   4.420  20.770  0.00  0.00    +0.000 C 
ATOM      9  C   UNL     1       2.276   6.701  19.670  0.00  0.00    +0.000 A 
ATOM     10 CL   UNL     1       1.150   7.355  20.759  0.00  0.00    +0.000 Cl
ENDROOT
BRANCH   5  11
ATOM     11  C   UNL     1       5.377   4.444  16.913  0.00  0.00    +0.000 A 
ATOM     12  N   UNL     1       4.921   4.129  15.683  0.00  0.00    +0.000 NA
ATOM     13  N   UNL     1       5.980   4.260  14.874  0.00  0.00    +0.000 N 
ATOM     14  C   UNL     1       5.905   3.772  13.516  0.00  0.00    +0.000 C 
ATOM     15  C   UNL     1       7.066   4.803  15.486  0.00  0.00    +0.000 A 
ATOM     16  C   UNL     1       6.702   4.934  16.812  0.00  0.00    +0.000 A 
BRANCH  16  17
ATOM     17  N   UNL     1       7.555   5.390  17.858  0.00  0.00    +0.000 N 
ATOM     18  O   UNL     1       7.629   6.613  18.015  0.00  0.00    +0.000 OA
ATOM     19  O   UNL     1       8.087   4.520  18.558  0.00  0.00    +0.000 OA
ENDBRANCH  16  17
ENDBRANCH   5  11
TORSDOF 2
ENDMDL
MODEL 2
REMARK VINA RESULT:      -7.2      1.629      2.541
REMARK  Name = 
REMARK  5 active torsions:
REMARK  status: ('A' for Active; 'I' for Inactive)
REMARK    1  A    between atoms: C_1  and  C_2
REMARK    2  A    between atoms: C_5  and  C_7
REMARK    3  A    between atoms: N_9  and  C_10
REMARK    4  A    between atoms: C_12  and  N_13
REMARK    5  A    between atoms: C_16  and  C_17
REMARK                            x       y       z     vdW  Elec       q    Type
REMARK                         _______ _______ _______ _____ _____    ______ ____
ROOT
ATOM      1  C   UNL     1       2.638   1.842  18.814  0.00  0.00    +0.000 C 
ATOM      2  C   UNL     1       2.809   3.312  18.704  0.00  0.00    +0.000 A 
ATOM      3  N   UNL     1       3.751   3.815  17.907  0.00  0.00    +0.000 NA
ATOM      4  N   UNL     1       3.612   5.174  17.972  0.00  0.00    +0.000 N 
ATOM      5  C   UNL     1       4.496   6.001  17.213  0.00  0.00    +0.000 C 
ATOM      6  O   UNL     1       4.415   7.219  17.386  0.00  0.00    +0.000 OA
ATOM      7  C   UNL     1       2.599   5.519  18.872  0.00  0.00    +0.000 A 
ATOM      8  C   UNL     1       2.188   6.902  19.223  0.00  0.00    +0.000 C 
ATOM      9  C   UNL     1       2.096   4.328  19.356  0.00  0.00    +0.000 A 
ATOM     10 CL   UNL     1       0.864   4.104  20.503  0.00  0.00    +0.000 Cl
ENDROOT
BRANCH   5  11
ATOM     11  C   UNL     1       5.488   5.458  16.271  0.00  0.00    +0.000 A 
ATOM     12  N   UNL     1       5.187   5.117  15.001  0.00  0.00    +0.000 NA
ATOM     13  N   UNL     1       6.311   4.578  14.509  0.00  0.00    +0.000 N 
ATOM     14  C   UNL     1       6.275   3.888  13.240  0.00  0.00    +0.000 C 
ATOM     15  C   UNL     1       7.380   4.700  15.341  0.00  0.00    +0.000 A 
ATOM     16  C   UNL     1       6.874   5.268  16.493  0.00  0.00    +0.000 A 
BRANCH  16  17
ATOM     17  N   UNL     1       7.618   5.515  17.684  0.00  0.00    +0.000 N 
ATOM     18  O   UNL     1       7.790   6.699  17.991  0.00  0.00    +0.000 OA
ATOM     19  O   UNL     1       7.961   4.522  18.337  0.00  0.00    +0.000 OA
ENDBRANCH  16  17
ENDBRANCH   5  11
TORSDOF 2
ENDMDL
MODEL 3
REMARK VINA RESULT:      -7.0      1.791      2.881
REMARK  Name = 
REMARK  5 active torsions:
REMARK  status: ('A' for Active; 'I' for Inactive)
REMARK    1  A    between atoms: C_1  and  C_2
REMARK    2  A    between atoms: C_5  and  C_7
REMARK    3  A    between atoms: N_9  and  C_10
REMARK    4  A    between atoms: C_12  and  N_13
REMARK    5  A    between atoms: C_16  and  C_17
REMARK                            x       y       z     vdW  Elec       q    Type
REMARK                         _______ _______ _______ _____ _____    ______ ____
ROOT
ATOM      1  C   UNL     1       4.578   1.487  20.225  0.00  0.00    +0.000 C 
ATOM      2  C   UNL     1       4.100   2.835  19.831  0.00  0.00    +0.000 A 
ATOM      3  N   UNL     1       4.640   3.452  18.780  0.00  0.00    +0.000 NA
ATOM      4  N   UNL     1       3.951   4.624  18.637  0.00  0.00    +0.000 N 
ATOM      5  C   UNL     1       4.307   5.517  17.580  0.00  0.00    +0.000 C 
ATOM      6  O   UNL     1       3.743   6.612  17.553  0.00  0.00    +0.000 OA
ATOM      7  C   UNL     1       3.003   4.761  19.657  0.00  0.00    +0.000 A 
ATOM      8  C   UNL     1       2.095   5.921  19.842  0.00  0.00    +0.000 C 
ATOM      9  C   UNL     1       3.110   3.625  20.432  0.00  0.00    +0.000 A 
ATOM     10 CL   UNL     1       2.235   3.230  21.833  0.00  0.00    +0.000 Cl
ENDROOT
BRANCH   5  11
ATOM     11  C   UNL     1       5.314   5.185  16.559  0.00  0.00    +0.000 A 
ATOM     12  N   UNL     1       4.994   4.784  15.311  0.00  0.00    +0.000 NA
ATOM     13  N   UNL     1       6.163   4.486  14.729  0.00  0.00    +0.000 N 
ATOM     14  C   UNL     1       6.172   3.798  13.458  0.00  0.00    +0.000 C 
ATOM     15  C   UNL     1       7.244   4.827  15.479  0.00  0.00    +0.000 A 
ATOM     16  C   UNL     1       6.723   5.284  16.673  0.00  0.00    +0.000 A 
BRANCH  16  17
ATOM     17  N   UNL     1       7.489   5.683  17.807  0.00  0.00    +0.000 N 
ATOM     18  O   UNL     1       7.865   4.782  18.563  0.00  0.00    +0.000 OA
ATOM     19  O   UNL     1       7.768   6.885  17.891  0.00  0.00    +0.000 OA
ENDBRANCH  16  17
ENDBRANCH   5  11
TORSDOF 2
ENDMDL
MODEL 4
REMARK VINA RESULT:      -6.0      3.067      4.760
REMARK  Name = 
REMARK  5 active torsions:
REMARK  status: ('A' for Active; 'I' for Inactive)
REMARK    1  A    between atoms: C_1  and  C_2
REMARK    2  A    between atoms: C_5  and  C_7
REMARK    3  A    between atoms: N_9  and  C_10
REMARK    4  A    between atoms: C_12  and  N_13
REMARK    5  A    between atoms: C_16  and  C_17
REMARK                            x       y       z     vdW  Elec       q    Type
REMARK                         _______ _______ _______ _____ _____    ______ ____
ROOT
ATOM      1  C   UNL     1       0.338   8.945  22.638  0.00  0.00    +0.000 C 
ATOM      2  C   UNL     1       0.912   8.796  21.279  0.00  0.00    +0.000 A 
ATOM      3  N   UNL     1       1.458   7.637  20.910  0.00  0.00    +0.000 NA
ATOM      4  N   UNL     1       1.829   7.795  19.604  0.00  0.00    +0.000 N 
ATOM      5  C   UNL     1       2.455   6.707  18.921  0.00  0.00    +0.000 C 
ATOM      6  O   UNL     1       2.878   6.924  17.784  0.00  0.00    +0.000 OA
ATOM      7  C   UNL     1       1.558   9.098  19.173  0.00  0.00    +0.000 A 
ATOM      8  C   UNL     1       1.856   9.642  17.823  0.00  0.00    +0.000 C 
ATOM      9  C   UNL     1       0.988   9.745  20.250  0.00  0.00    +0.000 A 
ATOM     10 CL   UNL     1       0.469  11.360  20.344  0.00  0.00    +0.000 Cl
ENDROOT
BRANCH   5  11
ATOM     11  C   UNL     1       2.623   5.375  19.524  0.00  0.00    +0.000 A 
ATOM     12  N   UNL     1       1.625   4.720  20.153  0.00  0.00    +0.000 NA
ATOM     13  N   UNL     1       2.192   3.610  20.644  0.00  0.00    +0.000 N 
ATOM     14  C   UNL     1       1.457   2.789  21.580  0.00  0.00    +0.000 C 
ATOM     15  C   UNL     1       3.473   3.425  20.227  0.00  0.00    +0.000 A 
ATOM     16  C   UNL     1       3.779   4.557  19.498  0.00  0.00    +0.000 A 
BRANCH  16  17
ATOM     17  N   UNL     1       5.051   4.846  18.925  0.00  0.00    +0.000 N 
ATOM     18  O   UNL     1       5.927   5.244  19.700  0.00  0.00    +0.000 OA
ATOM     19  O   UNL     1       5.183   4.605  17.719  0.00  0.00    +0.000 OA
ENDBRANCH  16  17
ENDBRANCH   5  11
TORSDOF 2
ENDMDL
MODEL 5
REMARK VINA RESULT:      -5.8      2.749      4.143
REMARK  Name = 
REMARK  5 active torsions:
REMARK  status: ('A' for Active; 'I' for Inactive)
REMARK    1  A    between atoms: C_1  and  C_2
REMARK    2  A    between atoms: C_5  and  C_7
REMARK    3  A    between atoms: N_9  and  C_10
REMARK    4  A    between atoms: C_12  and  N_13
REMARK    5  A    between atoms: C_16  and  C_17
REMARK                            x       y       z     vdW  Elec       q    Type
REMARK                         _______ _______ _______ _____ _____    ______ ____
ROOT
ATOM      1  C   UNL     1       2.864   5.384  19.880  0.00  0.00    +0.000 C 
ATOM      2  C   UNL     1       3.631   5.217  18.621  0.00  0.00    +0.000 A 
ATOM      3  N   UNL     1       4.753   5.909  18.427  0.00  0.00    +0.000 NA
ATOM      4  N   UNL     1       5.250   5.491  17.225  0.00  0.00    +0.000 N 
ATOM      5  C   UNL     1       6.465   6.063  16.737  0.00  0.00    +0.000 C 
ATOM      6  O   UNL     1       6.820   5.746  15.600  0.00  0.00    +0.000 OA
ATOM      7  C   UNL     1       4.387   4.561  16.636  0.00  0.00    +0.000 A 
ATOM      8  C   UNL     1       4.585   3.914  15.314  0.00  0.00    +0.000 C 
ATOM      9  C   UNL     1       3.341   4.398  17.520  0.00  0.00    +0.000 A 
ATOM     10 CL   UNL     1       1.968   3.414  17.345  0.00  0.00    +0.000 Cl
ENDROOT
BRANCH   5  11
ATOM     11  C   UNL     1       7.275   7.009  17.521  0.00  0.00    +0.000 A 
ATOM     12  N   UNL     1       7.374   8.321  17.220  0.00  0.00    +0.000 NA
ATOM     13  N   UNL     1       8.267   8.812  18.090  0.00  0.00    +0.000 N 
ATOM     14  C   UNL     1       8.787  10.147  17.899  0.00  0.00    +0.000 C 
ATOM     15  C   UNL     1       8.635   7.923  19.050  0.00  0.00    +0.000 A 
ATOM     16  C   UNL     1       8.006   6.743  18.705  0.00  0.00    +0.000 A 
BRANCH  16  17
ATOM     17  N   UNL     1       8.161   5.499  19.384  0.00  0.00    +0.000 N 
ATOM     18  O   UNL     1       7.908   5.495  20.593  0.00  0.00    +0.000 OA
ATOM     19  O   UNL     1       8.465   4.523  18.687  0.00  0.00    +0.000 OA
ENDBRANCH  16  17
ENDBRANCH   5  11
TORSDOF 2
ENDMDL
MODEL 6
REMARK VINA RESULT:      -5.8      3.142      4.179
REMARK  Name = 
REMARK  5 active torsions:
REMARK  status: ('A' for Active; 'I' for Inactive)
REMARK    1  A    between atoms: C_1  and  C_2
REMARK    2  A    between atoms: C_5  and  C_7
REMARK    3  A    between atoms: N_9  and  C_10
REMARK    4  A    between atoms: C_12  and  N_13
REMARK    5  A    between atoms: C_16  and  C_17
REMARK                            x       y       z     vdW  Elec       q    Type
REMARK                         _______ _______ _______ _____ _____    ______ ____
ROOT
ATOM      1  C   UNL     1       2.218  10.034  17.579  0.00  0.00    +0.000 C 
ATOM      2  C   UNL     1       1.890   9.096  18.680  0.00  0.00    +0.000 A 
ATOM      3  N   UNL     1       2.403   7.865  18.682  0.00  0.00    +0.000 NA
ATOM      4  N   UNL     1       1.974   7.281  19.840  0.00  0.00    +0.000 N 
ATOM      5  C   UNL     1       2.365   5.937  20.129  0.00  0.00    +0.000 C 
ATOM      6  O   UNL     1       1.866   5.406  21.123  0.00  0.00    +0.000 OA
ATOM      7  C   UNL     1       1.131   8.149  20.543  0.00  0.00    +0.000 A 
ATOM      8  C   UNL     1       0.452   7.843  21.828  0.00  0.00    +0.000 C 
ATOM      9  C   UNL     1       1.062   9.304  19.792  0.00  0.00    +0.000 A 
ATOM     10 CL   UNL     1       0.168  10.711  20.119  0.00  0.00    +0.000 Cl
ENDROOT
BRANCH   5  11
ATOM     11  C   UNL     1       3.306   5.180  19.288  0.00  0.00    +0.000 A 
ATOM     12  N   UNL     1       4.643   5.354  19.338  0.00  0.00    +0.000 NA
ATOM     13  N   UNL     1       5.134   4.572  18.367  0.00  0.00    +0.000 N 
ATOM     14  C   UNL     1       6.522   4.694  17.987  0.00  0.00    +0.000 C 
ATOM     15  C   UNL     1       4.197   3.771  17.792  0.00  0.00    +0.000 A 
ATOM     16  C   UNL     1       3.001   4.144  18.371  0.00  0.00    +0.000 A 
BRANCH  16  17
ATOM     17  N   UNL     1       1.721   3.627  18.020  0.00  0.00    +0.000 N 
ATOM     18  O   UNL     1       1.372   2.586  18.585  0.00  0.00    +0.000 OA
ATOM     19  O   UNL     1       1.046   4.305  17.235  0.00  0.00    +0.000 OA
ENDBRANCH  16  17
ENDBRANCH   5  11
TORSDOF 2
ENDMDL
MODEL 7
REMARK VINA RESULT:      -5.7      2.294      3.353
REMARK  Name = 
REMARK  5 active torsions:
REMARK  status: ('A' for Active; 'I' for Inactive)
REMARK    1  A    between atoms: C_1  and  C_2
REMARK    2  A    between atoms: C_5  and  C_7
REMARK    3  A    between atoms: N_9  and  C_10
REMARK    4  A    between atoms: C_12  and  N_13
REMARK    5  A    between atoms: C_16  and  C_17
REMARK                            x       y       z     vdW  Elec       q    Type
REMARK                         _______ _______ _______ _____ _____    ______ ____
ROOT
ATOM      1  C   UNL     1       1.864   7.141  19.949  0.00  0.00    +0.000 C 
ATOM      2  C   UNL     1       2.753   5.971  19.748  0.00  0.00    +0.000 A 
ATOM      3  N   UNL     1       3.949   6.132  19.182  0.00  0.00    +0.000 NA
ATOM      4  N   UNL     1       4.542   4.901  19.200  0.00  0.00    +0.000 N 
ATOM      5  C   UNL     1       5.853   4.752  18.651  0.00  0.00    +0.000 C 
ATOM      6  O   UNL     1       6.308   3.608  18.580  0.00  0.00    +0.000 OA
ATOM      7  C   UNL     1       3.672   3.946  19.736  0.00  0.00    +0.000 A 
ATOM      8  C   UNL     1       3.962   2.497  19.882  0.00  0.00    +0.000 C 
ATOM      9  C   UNL     1       2.519   4.626  20.071  0.00  0.00    +0.000 A 
ATOM     10 CL   UNL     1       1.092   3.996  20.741  0.00  0.00    +0.000 Cl
ENDROOT
BRANCH   5  11
ATOM     11  C   UNL     1       6.650   5.889  18.163  0.00  0.00    +0.000 A 
ATOM     12  N   UNL     1       7.527   6.561  18.938  0.00  0.00    +0.000 NA
ATOM     13  N   UNL     1       7.966   7.570  18.175  0.00  0.00    +0.000 N 
ATOM     14  C   UNL     1       8.746   8.630  18.773  0.00  0.00    +0.000 C 
ATOM     15  C   UNL     1       7.543   7.497  16.885  0.00  0.00    +0.000 A 
ATOM     16  C   UNL     1       6.687   6.415  16.848  0.00  0.00    +0.000 A 
BRANCH  16  17
ATOM     17  N   UNL     1       5.938   5.997  15.711  0.00  0.00    +0.000 N 
ATOM     18  O   UNL     1       6.206   4.882  15.252  0.00  0.00    +0.000 OA
ATOM     19  O   UNL     1       5.039   6.757  15.331  0.00  0.00    +0.000 OA
ENDBRANCH  16  17
ENDBRANCH   5  11
TORSDOF 2
ENDMDL
MODEL 8
REMARK VINA RESULT:      -5.7      8.689     11.549
REMARK  Name = 
REMARK  5 active torsions:
REMARK  status: ('A' for Active; 'I' for Inactive)
REMARK    1  A    between atoms: C_1  and  C_2
REMARK    2  A    between atoms: C_5  and  C_7
REMARK    3  A    between atoms: N_9  and  C_10
REMARK    4  A    between atoms: C_12  and  N_13
REMARK    5  A    between atoms: C_16  and  C_17
REMARK                            x       y       z     vdW  Elec       q    Type
REMARK                         _______ _______ _______ _____ _____    ______ ____
ROOT
ATOM      1  C   UNL     1      -0.826  12.832  18.043  0.00  0.00    +0.000 C 
ATOM      2  C   UNL     1      -0.634  11.973  19.236  0.00  0.00    +0.000 A 
ATOM      3  N   UNL     1      -0.887  12.456  20.453  0.00  0.00    +0.000 NA
ATOM      4  N   UNL     1      -0.682  11.419  21.320  0.00  0.00    +0.000 N 
ATOM      5  C   UNL     1      -0.876  11.633  22.719  0.00  0.00    +0.000 C 
ATOM      6  O   UNL     1      -0.571  10.710  23.477  0.00  0.00    +0.000 OA
ATOM      7  C   UNL     1      -0.238  10.286  20.630  0.00  0.00    +0.000 A 
ATOM      8  C   UNL     1       0.116   8.982  21.247  0.00  0.00    +0.000 C 
ATOM      9  C   UNL     1      -0.189  10.644  19.298  0.00  0.00    +0.000 A 
ATOM     10 CL   UNL     1       0.301   9.695  17.978  0.00  0.00    +0.000 Cl
ENDROOT
BRANCH   5  11
ATOM     11  C   UNL     1      -1.396  12.895  23.271  0.00  0.00    +0.000 A 
ATOM     12  N   UNL     1      -0.613  13.957  23.546  0.00  0.00    +0.000 NA
ATOM     13  N   UNL     1      -1.428  14.853  24.118  0.00  0.00    +0.000 N 
ATOM     14  C   UNL     1      -0.866  16.024  24.753  0.00  0.00    +0.000 C 
ATOM     15  C   UNL     1      -2.738  14.494  24.083  0.00  0.00    +0.000 A 
ATOM     16  C   UNL     1      -2.748  13.225  23.538  0.00  0.00    +0.000 A 
BRANCH  16  17
ATOM     17  N   UNL     1      -3.904  12.408  23.377  0.00  0.00    +0.000 N 
ATOM     18  O   UNL     1      -4.350  11.876  24.398  0.00  0.00    +0.000 OA
ATOM     19  O   UNL     1      -4.396  12.363  22.243  0.00  0.00    +0.000 OA
ENDBRANCH  16  17
ENDBRANCH   5  11
TORSDOF 2
ENDMDL
MODEL 9
REMARK VINA RESULT:      -5.7      3.199      5.670
REMARK  Name = 
REMARK  5 active torsions:
REMARK  status: ('A' for Active; 'I' for Inactive)
REMARK    1  A    between atoms: C_1  and  C_2
REMARK    2  A    between atoms: C_5  and  C_7
REMARK    3  A    between atoms: N_9  and  C_10
REMARK    4  A    between atoms: C_12  and  N_13
REMARK    5  A    between atoms: C_16  and  C_17
REMARK                            x       y       z     vdW  Elec       q    Type
REMARK                         _______ _______ _______ _____ _____    ______ ____
ROOT
ATOM      1  C   UNL     1       7.463   7.101  17.727  0.00  0.00    +0.000 C 
ATOM      2  C   UNL     1       6.495   6.117  17.185  0.00  0.00    +0.000 A 
ATOM      3  N   UNL     1       5.378   5.840  17.859  0.00  0.00    +0.000 NA
ATOM      4  N   UNL     1       4.677   4.962  17.080  0.00  0.00    +0.000 N 
ATOM      5  C   UNL     1       3.417   4.473  17.544  0.00  0.00    +0.000 C 
ATOM      6  O   UNL     1       2.870   3.599  16.870  0.00  0.00    +0.000 OA
ATOM      7  C   UNL     1       5.401   4.646  15.926  0.00  0.00    +0.000 A 
ATOM      8  C   UNL     1       4.968   3.701  14.865  0.00  0.00    +0.000 C 
ATOM      9  C   UNL     1       6.574   5.370  16.001  0.00  0.00    +0.000 A 
ATOM     10 CL   UNL     1       7.867   5.381  14.900  0.00  0.00    +0.000 Cl
ENDROOT
BRANCH   5  11
ATOM     11  C   UNL     1       2.777   4.956  18.779  0.00  0.00    +0.000 A 
ATOM     12  N   UNL     1       2.366   6.230  18.946  0.00  0.00    +0.000 NA
ATOM     13  N   UNL     1       1.939   6.295  20.214  0.00  0.00    +0.000 N 
ATOM     14  C   UNL     1       1.645   7.582  20.802  0.00  0.00    +0.000 C 
ATOM     15  C   UNL     1       1.899   5.086  20.835  0.00  0.00    +0.000 A 
ATOM     16  C   UNL     1       2.438   4.198  19.926  0.00  0.00    +0.000 A 
BRANCH  16  17
ATOM     17  N   UNL     1       2.673   2.813  20.169  0.00  0.00    +0.000 N 
ATOM     18  O   UNL     1       1.752   2.040  19.886  0.00  0.00    +0.000 OA
ATOM     19  O   UNL     1       3.801   2.506  20.573  0.00  0.00    +0.000 OA
ENDBRANCH  16  17
ENDBRANCH   5  11
TORSDOF 2
ENDMDL
