MODEL 1
REMARK VINA RESULT:      -7.7      0.000      0.000
REMARK  Name = 
REMARK  3 active torsions:
REMARK  status: ('A' for Active; 'I' for Inactive)
REMARK    1  A    between atoms: C_2  and  C_3
REMARK    2  A    between atoms: C_3  and  N_4
REMARK    3  A    between atoms: C_6  and  N_7
REMARK                            x       y       z     vdW  Elec       q    Type
REMARK                         _______ _______ _______ _____ _____    ______ ____
ROOT
ATOM      1  O   UNL     1       8.214   4.198  17.242  0.00  0.00    +0.000 OA
ATOM      2  C   UNL     1       7.025   4.540  17.222  0.00  0.00    +0.000 C 
ATOM      3  N   UNL     1       6.200   4.093  18.218  0.00  0.00    +0.000 N 
ATOM      4  C   UNL     1       4.858   4.404  18.400  0.00  0.00    +0.000 A 
ATOM      5  C   UNL     1       3.914   4.137  17.415  0.00  0.00    +0.000 A 
ATOM      6  C   UNL     1       2.589   4.492  17.653  0.00  0.00    +0.000 A 
ATOM      7  C   UNL     1       2.256   5.105  18.855  0.00  0.00    +0.000 A 
ATOM      8  C   UNL     1       3.261   5.297  19.789  0.00  0.00    +0.000 A 
ATOM      9  N   UNL     1       4.547   4.930  19.596  0.00  0.00    +0.000 NA
ATOM     10  H   UNL     1       6.700   3.853  19.064  0.00  0.00    +0.000 HD
ENDROOT
BRANCH   2  11
ATOM     11  C   UNL     1       6.532   5.548  16.208  0.00  0.00    +0.000 C 
BRANCH  11  12
ATOM     12  N   UNL     1       6.647   5.038  14.858  0.00  0.00    +0.000 N 
ATOM     13  C   UNL     1       5.861   4.084  14.275  0.00  0.00    +0.000 A 
ATOM     14  C   UNL     1       6.383   3.891  13.012  0.00  0.00    +0.000 A 
ATOM     15  C   UNL     1       7.493   4.750  12.942  0.00  0.00    +0.000 A 
ATOM     16  N   UNL     1       7.675   5.438  14.076  0.00  0.00    +0.000 NA
BRANCH  14  17
ATOM     17  N   UNL     1       5.900   2.999  12.007  0.00  0.00    +0.000 N 
ATOM     18  O   UNL     1       6.700   2.178  11.547  0.00  0.00    +0.000 OA
ATOM     19  O   UNL     1       4.714   3.133  11.671  0.00  0.00    +0.000 OA
ENDBRANCH  14  17
ENDBRANCH  11  12
ENDBRANCH   2  11
TORSDOF 3
ENDMDL
MODEL 2
REMARK VINA RESULT:      -7.2      1.585      1.648
REMARK  Name = 
REMARK  3 active torsions:
REMARK  status: ('A' for Active; 'I' for Inactive)
REMARK    1  A    between atoms: C_2  and  C_3
REMARK    2  A    between atoms: C_3  and  N_4
REMARK    3  A    between atoms: C_6  and  N_7
REMARK                            x       y       z     vdW  Elec       q    Type
REMARK                         _______ _______ _______ _____ _____    ______ ____
ROOT
ATOM      1  O   UNL     1       7.342   4.714  18.535  0.00  0.00    +0.000 OA
ATOM      2  C   UNL     1       6.161   4.461  18.267  0.00  0.00    +0.000 C 
ATOM      3  N   UNL     1       5.498   3.545  19.037  0.00  0.00    +0.000 N 
ATOM      4  C   UNL     1       4.166   3.165  18.930  0.00  0.00    +0.000 A 
ATOM      5  C   UNL     1       3.659   2.631  17.751  0.00  0.00    +0.000 A 
ATOM      6  C   UNL     1       2.310   2.289  17.705  0.00  0.00    +0.000 A 
ATOM      7  C   UNL     1       1.518   2.499  18.827  0.00  0.00    +0.000 A 
ATOM      8  C   UNL     1       2.123   3.003  19.966  0.00  0.00    +0.000 A 
ATOM      9  N   UNL     1       3.436   3.309  20.048  0.00  0.00    +0.000 NA
ATOM     10  H   UNL     1       5.895   3.449  19.962  0.00  0.00    +0.000 HD
ENDROOT
BRANCH   2  11
ATOM     11  C   UNL     1       5.425   5.256  17.210  0.00  0.00    +0.000 C 
BRANCH  11  12
ATOM     12  N   UNL     1       5.994   5.039  15.897  0.00  0.00    +0.000 N 
ATOM     13  C   UNL     1       5.497   4.233  14.913  0.00  0.00    +0.000 A 
ATOM     14  C   UNL     1       6.403   4.306  13.875  0.00  0.00    +0.000 A 
ATOM     15  C   UNL     1       7.421   5.156  14.341  0.00  0.00    +0.000 A 
ATOM     16  N   UNL     1       7.190   5.590  15.586  0.00  0.00    +0.000 NA
BRANCH  14  17
ATOM     17  N   UNL     1       6.321   3.647  12.611  0.00  0.00    +0.000 N 
ATOM     18  O   UNL     1       7.208   3.891  11.786  0.00  0.00    +0.000 OA
ATOM     19  O   UNL     1       5.354   2.890  12.442  0.00  0.00    +0.000 OA
ENDBRANCH  14  17
ENDBRANCH  11  12
ENDBRANCH   2  11
TORSDOF 3
ENDMDL
MODEL 3
REMARK VINA RESULT:      -7.1      2.028      2.494
REMARK  Name = 
REMARK  3 active torsions:
REMARK  status: ('A' for Active; 'I' for Inactive)
REMARK    1  A    between atoms: C_2  and  C_3
REMARK    2  A    between atoms: C_3  and  N_4
REMARK    3  A    between atoms: C_6  and  N_7
REMARK                            x       y       z     vdW  Elec       q    Type
REMARK                         _______ _______ _______ _____ _____    ______ ____
ROOT
ATOM      1  O   UNL     1       7.239   4.545  18.754  0.00  0.00    +0.000 OA
ATOM      2  C   UNL     1       6.054   4.317  18.486  0.00  0.00    +0.000 C 
ATOM      3  N   UNL     1       5.361   3.440  19.275  0.00  0.00    +0.000 N 
ATOM      4  C   UNL     1       4.019   3.094  19.169  0.00  0.00    +0.000 A 
ATOM      5  C   UNL     1       3.505   2.543  18.001  0.00  0.00    +0.000 A 
ATOM      6  C   UNL     1       2.147   2.238  17.954  0.00  0.00    +0.000 A 
ATOM      7  C   UNL     1       1.354   2.499  19.065  0.00  0.00    +0.000 A 
ATOM      8  C   UNL     1       1.966   3.016  20.196  0.00  0.00    +0.000 A 
ATOM      9  N   UNL     1       3.287   3.288  20.278  0.00  0.00    +0.000 NA
ATOM     10  H   UNL     1       5.749   3.357  20.205  0.00  0.00    +0.000 HD
ENDROOT
BRANCH   2  11
ATOM     11  C   UNL     1       5.346   5.104  17.404  0.00  0.00    +0.000 C 
BRANCH  11  12
ATOM     12  N   UNL     1       5.887   4.803  16.095  0.00  0.00    +0.000 N 
ATOM     13  C   UNL     1       6.819   5.529  15.408  0.00  0.00    +0.000 A 
ATOM     14  C   UNL     1       6.974   4.887  14.197  0.00  0.00    +0.000 A 
ATOM     15  C   UNL     1       6.075   3.807  14.239  0.00  0.00    +0.000 A 
ATOM     16  N   UNL     1       5.390   3.763  15.388  0.00  0.00    +0.000 NA
BRANCH  14  17
ATOM     17  N   UNL     1       7.852   5.256  13.132  0.00  0.00    +0.000 N 
ATOM     18  O   UNL     1       7.561   4.865  11.997  0.00  0.00    +0.000 OA
ATOM     19  O   UNL     1       8.844   5.932  13.441  0.00  0.00    +0.000 OA
ENDBRANCH  14  17
ENDBRANCH  11  12
ENDBRANCH   2  11
TORSDOF 3
ENDMDL
MODEL 4
REMARK VINA RESULT:      -7.0      2.532      3.888
REMARK  Name = 
REMARK  3 active torsions:
REMARK  status: ('A' for Active; 'I' for Inactive)
REMARK    1  A    between atoms: C_2  and  C_3
REMARK    2  A    between atoms: C_3  and  N_4
REMARK    3  A    between atoms: C_6  and  N_7
REMARK                            x       y       z     vdW  Elec       q    Type
REMARK                         _______ _______ _______ _____ _____    ______ ____
ROOT
ATOM      1  O   UNL     1       3.560   7.447  17.765  0.00  0.00    +0.000 OA
ATOM      2  C   UNL     1       3.394   6.387  18.380  0.00  0.00    +0.000 C 
ATOM      3  N   UNL     1       2.170   5.780  18.319  0.00  0.00    +0.000 N 
ATOM      4  C   UNL     1       1.802   4.569  18.893  0.00  0.00    +0.000 A 
ATOM      5  C   UNL     1       1.906   4.358  20.263  0.00  0.00    +0.000 A 
ATOM      6  C   UNL     1       1.540   3.114  20.771  0.00  0.00    +0.000 A 
ATOM      7  C   UNL     1       1.094   2.129  19.899  0.00  0.00    +0.000 A 
ATOM      8  C   UNL     1       0.992   2.447  18.554  0.00  0.00    +0.000 A 
ATOM      9  N   UNL     1       1.307   3.656  18.041  0.00  0.00    +0.000 NA
ATOM     10  H   UNL     1       1.645   6.035  17.492  0.00  0.00    +0.000 HD
ENDROOT
BRANCH   2  11
ATOM     11  C   UNL     1       4.560   5.702  19.058  0.00  0.00    +0.000 C 
BRANCH  11  12
ATOM     12  N   UNL     1       5.580   5.327  18.102  0.00  0.00    +0.000 N 
ATOM     13  C   UNL     1       5.465   5.328  16.740  0.00  0.00    +0.000 A 
ATOM     14  C   UNL     1       6.666   4.844  16.263  0.00  0.00    +0.000 A 
ATOM     15  C   UNL     1       7.424   4.555  17.411  0.00  0.00    +0.000 A 
ATOM     16  N   UNL     1       6.757   4.825  18.540  0.00  0.00    +0.000 NA
BRANCH  14  17
ATOM     17  N   UNL     1       7.043   4.668  14.897  0.00  0.00    +0.000 N 
ATOM     18  O   UNL     1       7.892   5.440  14.439  0.00  0.00    +0.000 OA
ATOM     19  O   UNL     1       6.473   3.757  14.279  0.00  0.00    +0.000 OA
ENDBRANCH  14  17
ENDBRANCH  11  12
ENDBRANCH   2  11
TORSDOF 3
ENDMDL
MODEL 5
REMARK VINA RESULT:      -6.9      1.407      1.688
REMARK  Name = 
REMARK  3 active torsions:
REMARK  status: ('A' for Active; 'I' for Inactive)
REMARK    1  A    between atoms: C_2  and  C_3
REMARK    2  A    between atoms: C_3  and  N_4
REMARK    3  A    between atoms: C_6  and  N_7
REMARK                            x       y       z     vdW  Elec       q    Type
REMARK                         _______ _______ _______ _____ _____    ______ ____
ROOT
ATOM      1  O   UNL     1       7.105   7.338  16.848  0.00  0.00    +0.000 OA
ATOM      2  C   UNL     1       6.584   6.249  17.118  0.00  0.00    +0.000 C 
ATOM      3  N   UNL     1       5.348   6.244  17.705  0.00  0.00    +0.000 N 
ATOM      4  C   UNL     1       4.580   5.134  18.037  0.00  0.00    +0.000 A 
ATOM      5  C   UNL     1       5.059   4.154  18.898  0.00  0.00    +0.000 A 
ATOM      6  C   UNL     1       4.247   3.057  19.173  0.00  0.00    +0.000 A 
ATOM      7  C   UNL     1       2.995   2.974  18.576  0.00  0.00    +0.000 A 
ATOM      8  C   UNL     1       2.592   4.018  17.759  0.00  0.00    +0.000 A 
ATOM      9  N   UNL     1       3.347   5.110  17.505  0.00  0.00    +0.000 NA
ATOM     10  H   UNL     1       4.819   7.086  17.516  0.00  0.00    +0.000 HD
ENDROOT
BRANCH   2  11
ATOM     11  C   UNL     1       7.231   4.956  16.674  0.00  0.00    +0.000 C 
BRANCH  11  12
ATOM     12  N   UNL     1       7.046   4.734  15.255  0.00  0.00    +0.000 N 
ATOM     13  C   UNL     1       6.206   3.827  14.673  0.00  0.00    +0.000 A 
ATOM     14  C   UNL     1       6.415   3.944  13.314  0.00  0.00    +0.000 A 
ATOM     15  C   UNL     1       7.415   4.923  13.182  0.00  0.00    +0.000 A 
ATOM     16  N   UNL     1       7.822   5.394  14.367  0.00  0.00    +0.000 NA
BRANCH  14  17
ATOM     17  N   UNL     1       5.761   3.214  12.275  0.00  0.00    +0.000 N 
ATOM     18  O   UNL     1       6.450   2.433  11.611  0.00  0.00    +0.000 OA
ATOM     19  O   UNL     1       4.552   3.437  12.119  0.00  0.00    +0.000 OA
ENDBRANCH  14  17
ENDBRANCH  11  12
ENDBRANCH   2  11
TORSDOF 3
ENDMDL
MODEL 6
REMARK VINA RESULT:      -6.9      2.237      2.882
REMARK  Name = 
REMARK  3 active torsions:
REMARK  status: ('A' for Active; 'I' for Inactive)
REMARK    1  A    between atoms: C_2  and  C_3
REMARK    2  A    between atoms: C_3  and  N_4
REMARK    3  A    between atoms: C_6  and  N_7
REMARK                            x       y       z     vdW  Elec       q    Type
REMARK                         _______ _______ _______ _____ _____    ______ ____
ROOT
ATOM      1  O   UNL     1       6.902   4.921  19.765  0.00  0.00    +0.000 OA
ATOM      2  C   UNL     1       5.767   4.668  19.346  0.00  0.00    +0.000 C 
ATOM      3  N   UNL     1       5.208   3.460  19.662  0.00  0.00    +0.000 N 
ATOM      4  C   UNL     1       3.935   3.011  19.333  0.00  0.00    +0.000 A 
ATOM      5  C   UNL     1       3.518   2.925  18.010  0.00  0.00    +0.000 A 
ATOM      6  C   UNL     1       2.222   2.486  17.750  0.00  0.00    +0.000 A 
ATOM      7  C   UNL     1       1.391   2.158  18.814  0.00  0.00    +0.000 A 
ATOM      8  C   UNL     1       1.909   2.243  20.096  0.00  0.00    +0.000 A 
ATOM      9  N   UNL     1       3.173   2.631  20.373  0.00  0.00    +0.000 NA
ATOM     10  H   UNL     1       5.598   3.055  20.504  0.00  0.00    +0.000 HD
ENDROOT
BRANCH   2  11
ATOM     11  C   UNL     1       4.957   5.726  18.629  0.00  0.00    +0.000 C 
BRANCH  11  12
ATOM     12  N   UNL     1       5.270   5.762  17.216  0.00  0.00    +0.000 N 
ATOM     13  C   UNL     1       6.159   4.963  16.555  0.00  0.00    +0.000 A 
ATOM     14  C   UNL     1       6.156   5.404  15.247  0.00  0.00    +0.000 A 
ATOM     15  C   UNL     1       5.258   6.485  15.229  0.00  0.00    +0.000 A 
ATOM     16  N   UNL     1       4.730   6.725  16.435  0.00  0.00    +0.000 NA
BRANCH  14  17
ATOM     17  N   UNL     1       6.915   4.876  14.158  0.00  0.00    +0.000 N 
ATOM     18  O   UNL     1       7.964   5.458  13.864  0.00  0.00    +0.000 OA
ATOM     19  O   UNL     1       6.447   3.879  13.589  0.00  0.00    +0.000 OA
ENDBRANCH  14  17
ENDBRANCH  11  12
ENDBRANCH   2  11
TORSDOF 3
ENDMDL
MODEL 7
REMARK VINA RESULT:      -6.8      1.864      2.232
REMARK  Name = 
REMARK  3 active torsions:
REMARK  status: ('A' for Active; 'I' for Inactive)
REMARK    1  A    between atoms: C_2  and  C_3
REMARK    2  A    between atoms: C_3  and  N_4
REMARK    3  A    between atoms: C_6  and  N_7
REMARK                            x       y       z     vdW  Elec       q    Type
REMARK                         _______ _______ _______ _____ _____    ______ ____
ROOT
ATOM      1  O   UNL     1       4.955   7.188  16.544  0.00  0.00    +0.000 OA
ATOM      2  C   UNL     1       4.978   6.027  16.969  0.00  0.00    +0.000 C 
ATOM      3  N   UNL     1       3.824   5.494  17.474  0.00  0.00    +0.000 N 
ATOM      4  C   UNL     1       3.634   4.201  17.949  0.00  0.00    +0.000 A 
ATOM      5  C   UNL     1       4.397   3.695  18.995  0.00  0.00    +0.000 A 
ATOM      6  C   UNL     1       4.169   2.386  19.409  0.00  0.00    +0.000 A 
ATOM      7  C   UNL     1       3.198   1.629  18.763  0.00  0.00    +0.000 A 
ATOM      8  C   UNL     1       2.465   2.233  17.755  0.00  0.00    +0.000 A 
ATOM      9  N   UNL     1       2.643   3.513  17.359  0.00  0.00    +0.000 NA
ATOM     10  H   UNL     1       2.992   5.940  17.111  0.00  0.00    +0.000 HD
ENDROOT
BRANCH   2  11
ATOM     11  C   UNL     1       6.212   5.169  16.796  0.00  0.00    +0.000 C 
BRANCH  11  12
ATOM     12  N   UNL     1       6.446   4.857  15.402  0.00  0.00    +0.000 N 
ATOM     13  C   UNL     1       5.724   3.996  14.624  0.00  0.00    +0.000 A 
ATOM     14  C   UNL     1       6.352   3.985  13.396  0.00  0.00    +0.000 A 
ATOM     15  C   UNL     1       7.453   4.846  13.543  0.00  0.00    +0.000 A 
ATOM     16  N   UNL     1       7.530   5.365  14.774  0.00  0.00    +0.000 NA
BRANCH  14  17
ATOM     17  N   UNL     1       5.965   3.246  12.237  0.00  0.00    +0.000 N 
ATOM     18  O   UNL     1       6.841   2.587  11.667  0.00  0.00    +0.000 OA
ATOM     19  O   UNL     1       4.778   3.337  11.891  0.00  0.00    +0.000 OA
ENDBRANCH  14  17
ENDBRANCH  11  12
ENDBRANCH   2  11
TORSDOF 3
ENDMDL
MODEL 8
REMARK VINA RESULT:      -6.8      3.545      5.972
REMARK  Name = 
REMARK  3 active torsions:
REMARK  status: ('A' for Active; 'I' for Inactive)
REMARK    1  A    between atoms: C_2  and  C_3
REMARK    2  A    between atoms: C_3  and  N_4
REMARK    3  A    between atoms: C_6  and  N_7
REMARK                            x       y       z     vdW  Elec       q    Type
REMARK                         _______ _______ _______ _____ _____    ______ ____
ROOT
ATOM      1  O   UNL     1       7.536   5.395  20.231  0.00  0.00    +0.000 OA
ATOM      2  C   UNL     1       6.820   5.443  19.224  0.00  0.00    +0.000 C 
ATOM      3  N   UNL     1       7.362   5.085  18.020  0.00  0.00    +0.000 N 
ATOM      4  C   UNL     1       6.715   5.023  16.792  0.00  0.00    +0.000 A 
ATOM      5  C   UNL     1       6.090   6.139  16.247  0.00  0.00    +0.000 A 
ATOM      6  C   UNL     1       5.441   6.003  15.022  0.00  0.00    +0.000 A 
ATOM      7  C   UNL     1       5.433   4.765  14.392  0.00  0.00    +0.000 A 
ATOM      8  C   UNL     1       6.114   3.721  14.997  0.00  0.00    +0.000 A 
ATOM      9  N   UNL     1       6.781   3.836  16.167  0.00  0.00    +0.000 NA
ATOM     10  H   UNL     1       8.155   4.463  18.114  0.00  0.00    +0.000 HD
ENDROOT
BRANCH   2  11
ATOM     11  C   UNL     1       5.342   5.744  19.344  0.00  0.00    +0.000 C 
BRANCH  11  12
ATOM     12  N   UNL     1       4.567   4.530  19.486  0.00  0.00    +0.000 N 
ATOM     13  C   UNL     1       3.220   4.440  19.700  0.00  0.00    +0.000 A 
ATOM     14  C   UNL     1       2.950   3.093  19.822  0.00  0.00    +0.000 A 
ATOM     15  C   UNL     1       4.198   2.458  19.695  0.00  0.00    +0.000 A 
ATOM     16  N   UNL     1       5.195   3.333  19.513  0.00  0.00    +0.000 NA
BRANCH  14  17
ATOM     17  N   UNL     1       1.677   2.485  20.042  0.00  0.00    +0.000 N 
ATOM     18  O   UNL     1       1.098   2.011  19.060  0.00  0.00    +0.000 OA
ATOM     19  O   UNL     1       1.252   2.495  21.207  0.00  0.00    +0.000 OA
ENDBRANCH  14  17
ENDBRANCH  11  12
ENDBRANCH   2  11
TORSDOF 3
ENDMDL
MODEL 9
REMARK VINA RESULT:      -6.8      3.255      6.131
REMARK  Name = 
REMARK  3 active torsions:
REMARK  status: ('A' for Active; 'I' for Inactive)
REMARK    1  A    between atoms: C_2  and  C_3
REMARK    2  A    between atoms: C_3  and  N_4
REMARK    3  A    between atoms: C_6  and  N_7
REMARK                            x       y       z     vdW  Elec       q    Type
REMARK                         _______ _______ _______ _____ _____    ______ ____
ROOT
ATOM      1  O   UNL     1       7.885   7.012  18.450  0.00  0.00    +0.000 OA
ATOM      2  C   UNL     1       7.413   6.146  17.704  0.00  0.00    +0.000 C 
ATOM      3  N   UNL     1       7.301   6.423  16.370  0.00  0.00    +0.000 N 
ATOM      4  C   UNL     1       6.847   5.572  15.369  0.00  0.00    +0.000 A 
ATOM      5  C   UNL     1       5.577   5.009  15.420  0.00  0.00    +0.000 A 
ATOM      6  C   UNL     1       5.192   4.147  14.396  0.00  0.00    +0.000 A 
ATOM      7  C   UNL     1       6.086   3.874  13.368  0.00  0.00    +0.000 A 
ATOM      8  C   UNL     1       7.315   4.512  13.386  0.00  0.00    +0.000 A 
ATOM      9  N   UNL     1       7.699   5.378  14.349  0.00  0.00    +0.000 NA
ATOM     10  H   UNL     1       7.950   7.135  16.060  0.00  0.00    +0.000 HD
ENDROOT
BRANCH   2  11
ATOM     11  C   UNL     1       7.107   4.761  18.231  0.00  0.00    +0.000 C 
BRANCH  11  12
ATOM     12  N   UNL     1       5.764   4.684  18.765  0.00  0.00    +0.000 N 
ATOM     13  C   UNL     1       4.906   5.726  18.972  0.00  0.00    +0.000 A 
ATOM     14  C   UNL     1       3.777   5.174  19.541  0.00  0.00    +0.000 A 
ATOM     15  C   UNL     1       4.064   3.803  19.661  0.00  0.00    +0.000 A 
ATOM     16  N   UNL     1       5.287   3.500  19.209  0.00  0.00    +0.000 NA
BRANCH  14  17
ATOM     17  N   UNL     1       2.585   5.857  19.932  0.00  0.00    +0.000 N 
ATOM     18  O   UNL     1       2.419   7.000  19.496  0.00  0.00    +0.000 OA
ATOM     19  O   UNL     1       1.819   5.245  20.691  0.00  0.00    +0.000 OA
ENDBRANCH  14  17
ENDBRANCH  11  12
ENDBRANCH   2  11
TORSDOF 3
ENDMDL
