MODEL 1
REMARK VINA RESULT:      -6.8      0.000      0.000
REMARK  Name = 
REMARK  5 active torsions:
REMARK  status: ('A' for Active; 'I' for Inactive)
REMARK    1  A    between atoms: C_1  and  C_2
REMARK    2  A    between atoms: C_2  and  N_3
REMARK    3  A    between atoms: N_3  and  C_4
REMARK    4  A    between atoms: C_11  and  C_12
REMARK    5  A    between atoms: C_11  and  C_14
REMARK                            x       y       z     vdW  Elec       q    Type
REMARK                         _______ _______ _______ _____ _____    ______ ____
ROOT
ATOM      1  C   UNL     1       4.271   6.481  17.096  0.00  0.00    +0.000 C 
ATOM      2  C   UNL     1       5.146   5.990  18.228  0.00  0.00    +0.000 C 
ATOM      3  C   UNL     1       6.500   6.123  18.208  0.00  0.00    +0.000 C 
ENDROOT
BRANCH   3   4
ATOM      4  C   UNL     1       7.270   6.732  17.075  0.00  0.00    +0.000 C 
ATOM      5  N   UNL     1       7.482   5.951  15.975  0.00  0.00    +0.000 N 
ATOM      6  O   UNL     1       7.702   7.877  17.081  0.00  0.00    +0.000 OA
ATOM      7  H   UNL     1       7.164   4.998  15.850  0.00  0.00    +0.000 HD
ATOM      8  H   UNL     1       8.004   6.365  15.213  0.00  0.00    +0.000 HD
ENDBRANCH   3   4
BRANCH   2   9
ATOM      9  N   UNL     1       4.421   5.410  19.267  0.00  0.00    +0.000 N 
ATOM     10  H   UNL     1       4.491   5.887  20.163  0.00  0.00    +0.000 HD
BRANCH   9  11
ATOM     11  C   UNL     1       3.387   4.465  19.149  0.00  0.00    +0.000 A 
ATOM     12  C   UNL     1       3.494   3.362  18.287  0.00  0.00    +0.000 A 
ATOM     13  C   UNL     1       2.429   2.473  18.127  0.00  0.00    +0.000 A 
ATOM     14  C   UNL     1       1.243   2.697  18.814  0.00  0.00    +0.000 A 
ATOM     15  F   UNL     1       0.214   1.857  18.648  0.00  0.00    +0.000 F 
ATOM     16  C   UNL     1       1.109   3.785  19.667  0.00  0.00    +0.000 A 
ATOM     17  C   UNL     1       2.181   4.665  19.837  0.00  0.00    +0.000 A 
ENDBRANCH   9  11
ENDBRANCH   2   9
BRANCH   3  18
ATOM     18  C   UNL     1       7.315   5.664  19.406  0.00  0.00    +0.000 C 
ATOM     19  N   UNL     1       7.991   5.282  20.400  0.00  0.00    +0.000 NA
ENDBRANCH   3  18
TORSDOF 4
ENDMDL
MODEL 2
REMARK VINA RESULT:      -6.8      1.891      2.542
REMARK  Name = 
REMARK  5 active torsions:
REMARK  status: ('A' for Active; 'I' for Inactive)
REMARK    1  A    between atoms: C_1  and  C_2
REMARK    2  A    between atoms: C_2  and  N_3
REMARK    3  A    between atoms: N_3  and  C_4
REMARK    4  A    between atoms: C_11  and  C_12
REMARK    5  A    between atoms: C_11  and  C_14
REMARK                            x       y       z     vdW  Elec       q    Type
REMARK                         _______ _______ _______ _____ _____    ______ ____
ROOT
ATOM      1  C   UNL     1       5.694   5.105  19.432  0.00  0.00    +0.000 C 
ATOM      2  C   UNL     1       5.966   4.885  17.960  0.00  0.00    +0.000 C 
ATOM      3  C   UNL     1       6.822   5.672  17.255  0.00  0.00    +0.000 C 
ENDROOT
BRANCH   3   4
ATOM      4  C   UNL     1       7.560   6.842  17.834  0.00  0.00    +0.000 C 
ATOM      5  N   UNL     1       7.451   8.034  17.178  0.00  0.00    +0.000 N 
ATOM      6  O   UNL     1       8.237   6.786  18.853  0.00  0.00    +0.000 OA
ATOM      7  H   UNL     1       6.913   8.206  16.338  0.00  0.00    +0.000 HD
ATOM      8  H   UNL     1       7.952   8.822  17.571  0.00  0.00    +0.000 HD
ENDBRANCH   3   4
BRANCH   2   9
ATOM      9  N   UNL     1       5.261   3.806  17.429  0.00  0.00    +0.000 N 
ATOM     10  H   UNL     1       5.831   3.101  16.967  0.00  0.00    +0.000 HD
BRANCH   9  11
ATOM     11  C   UNL     1       3.938   3.434  17.728  0.00  0.00    +0.000 A 
ATOM     12  C   UNL     1       2.861   4.305  17.507  0.00  0.00    +0.000 A 
ATOM     13  C   UNL     1       1.563   3.948  17.878  0.00  0.00    +0.000 A 
ATOM     14  C   UNL     1       1.342   2.722  18.492  0.00  0.00    +0.000 A 
ATOM     15  F   UNL     1       0.101   2.385  18.865  0.00  0.00    +0.000 F 
ATOM     16  C   UNL     1       2.392   1.844  18.729  0.00  0.00    +0.000 A 
ATOM     17  C   UNL     1       3.687   2.198  18.344  0.00  0.00    +0.000 A 
ENDBRANCH   9  11
ENDBRANCH   2   9
BRANCH   3  18
ATOM     18  C   UNL     1       7.097   5.359  15.794  0.00  0.00    +0.000 C 
ATOM     19  N   UNL     1       7.325   5.099  14.581  0.00  0.00    +0.000 NA
ENDBRANCH   3  18
TORSDOF 4
ENDMDL
MODEL 3
REMARK VINA RESULT:      -6.7      0.115      1.213
REMARK  Name = 
REMARK  5 active torsions:
REMARK  status: ('A' for Active; 'I' for Inactive)
REMARK    1  A    between atoms: C_1  and  C_2
REMARK    2  A    between atoms: C_2  and  N_3
REMARK    3  A    between atoms: N_3  and  C_4
REMARK    4  A    between atoms: C_11  and  C_12
REMARK    5  A    between atoms: C_11  and  C_14
REMARK                            x       y       z     vdW  Elec       q    Type
REMARK                         _______ _______ _______ _____ _____    ______ ____
ROOT
ATOM      1  C   UNL     1       4.299   6.558  17.077  0.00  0.00    +0.000 C 
ATOM      2  C   UNL     1       5.180   6.032  18.188  0.00  0.00    +0.000 C 
ATOM      3  C   UNL     1       6.530   6.199  18.184  0.00  0.00    +0.000 C 
ENDROOT
BRANCH   3   4
ATOM      4  C   UNL     1       7.290   6.885  17.089  0.00  0.00    +0.000 C 
ATOM      5  N   UNL     1       7.599   6.143  15.985  0.00  0.00    +0.000 N 
ATOM      6  O   UNL     1       7.634   8.059  17.129  0.00  0.00    +0.000 OA
ATOM      7  H   UNL     1       7.358   5.171  15.833  0.00  0.00    +0.000 HD
ATOM      8  H   UNL     1       8.114   6.609  15.249  0.00  0.00    +0.000 HD
ENDBRANCH   3   4
BRANCH   2   9
ATOM      9  N   UNL     1       4.464   5.381  19.191  0.00  0.00    +0.000 N 
ATOM     10  H   UNL     1       4.609   5.742  20.131  0.00  0.00    +0.000 HD
BRANCH   9  11
ATOM     11  C   UNL     1       3.361   4.525  19.021  0.00  0.00    +0.000 A 
ATOM     12  C   UNL     1       2.161   4.724  19.721  0.00  0.00    +0.000 A 
ATOM     13  C   UNL     1       1.102   3.822  19.595  0.00  0.00    +0.000 A 
ATOM     14  C   UNL     1       1.248   2.706  18.783  0.00  0.00    +0.000 A 
ATOM     15  F   UNL     1       0.241   1.830  18.675  0.00  0.00    +0.000 F 
ATOM     16  C   UNL     1       2.428   2.483  18.084  0.00  0.00    +0.000 A 
ATOM     17  C   UNL     1       3.481   3.393  18.201  0.00  0.00    +0.000 A 
ENDBRANCH   9  11
ENDBRANCH   2   9
BRANCH   3  18
ATOM     18  C   UNL     1       7.350   5.699  19.362  0.00  0.00    +0.000 C 
ATOM     19  N   UNL     1       8.030   5.284  20.340  0.00  0.00    +0.000 NA
ENDBRANCH   3  18
TORSDOF 4
ENDMDL
MODEL 4
REMARK VINA RESULT:      -6.7      1.872      2.396
REMARK  Name = 
REMARK  5 active torsions:
REMARK  status: ('A' for Active; 'I' for Inactive)
REMARK    1  A    between atoms: C_1  and  C_2
REMARK    2  A    between atoms: C_2  and  N_3
REMARK    3  A    between atoms: N_3  and  C_4
REMARK    4  A    between atoms: C_11  and  C_12
REMARK    5  A    between atoms: C_11  and  C_14
REMARK                            x       y       z     vdW  Elec       q    Type
REMARK                         _______ _______ _______ _____ _____    ______ ____
ROOT
ATOM      1  C   UNL     1       5.729   5.193  19.457  0.00  0.00    +0.000 C 
ATOM      2  C   UNL     1       5.985   4.952  17.985  0.00  0.00    +0.000 C 
ATOM      3  C   UNL     1       6.845   5.720  17.264  0.00  0.00    +0.000 C 
ENDROOT
BRANCH   3   4
ATOM      4  C   UNL     1       7.602   6.887  17.821  0.00  0.00    +0.000 C 
ATOM      5  N   UNL     1       7.493   8.076  17.158  0.00  0.00    +0.000 N 
ATOM      6  O   UNL     1       8.295   6.833  18.829  0.00  0.00    +0.000 OA
ATOM      7  H   UNL     1       6.942   8.245  16.325  0.00  0.00    +0.000 HD
ATOM      8  H   UNL     1       8.007   8.861  17.537  0.00  0.00    +0.000 HD
ENDBRANCH   3   4
BRANCH   2   9
ATOM      9  N   UNL     1       5.261   3.875  17.474  0.00  0.00    +0.000 N 
ATOM     10  H   UNL     1       5.809   3.194  16.954  0.00  0.00    +0.000 HD
BRANCH   9  11
ATOM     11  C   UNL     1       3.969   3.472  17.853  0.00  0.00    +0.000 A 
ATOM     12  C   UNL     1       3.730   2.215  18.429  0.00  0.00    +0.000 A 
ATOM     13  C   UNL     1       2.431   1.802  18.731  0.00  0.00    +0.000 A 
ATOM     14  C   UNL     1       1.362   2.639  18.438  0.00  0.00    +0.000 A 
ATOM     15  F   UNL     1       0.114   2.237  18.709  0.00  0.00    +0.000 F 
ATOM     16  C   UNL     1       1.571   3.885  17.861  0.00  0.00    +0.000 A 
ATOM     17  C   UNL     1       2.873   4.302  17.572  0.00  0.00    +0.000 A 
ENDBRANCH   9  11
ENDBRANCH   2   9
BRANCH   3  18
ATOM     18  C   UNL     1       7.102   5.386  15.803  0.00  0.00    +0.000 C 
ATOM     19  N   UNL     1       7.316   5.108  14.592  0.00  0.00    +0.000 NA
ENDBRANCH   3  18
TORSDOF 4
ENDMDL
MODEL 5
REMARK VINA RESULT:      -6.7      1.471      1.889
REMARK  Name = 
REMARK  5 active torsions:
REMARK  status: ('A' for Active; 'I' for Inactive)
REMARK    1  A    between atoms: C_1  and  C_2
REMARK    2  A    between atoms: C_2  and  N_3
REMARK    3  A    between atoms: N_3  and  C_4
REMARK    4  A    between atoms: C_11  and  C_12
REMARK    5  A    between atoms: C_11  and  C_14
REMARK                            x       y       z     vdW  Elec       q    Type
REMARK                         _______ _______ _______ _____ _____    ______ ____
ROOT
ATOM      1  C   UNL     1       5.066   4.330  16.021  0.00  0.00    +0.000 C 
ATOM      2  C   UNL     1       5.723   4.399  17.382  0.00  0.00    +0.000 C 
ATOM      3  C   UNL     1       6.686   5.313  17.677  0.00  0.00    +0.000 C 
ENDROOT
BRANCH   3   4
ATOM      4  C   UNL     1       7.220   6.318  16.701  0.00  0.00    +0.000 C 
ATOM      5  N   UNL     1       7.171   7.632  17.071  0.00  0.00    +0.000 N 
ATOM      6  O   UNL     1       7.698   6.027  15.613  0.00  0.00    +0.000 OA
ATOM      7  H   UNL     1       6.811   7.992  17.946  0.00  0.00    +0.000 HD
ATOM      8  H   UNL     1       7.530   8.308  16.409  0.00  0.00    +0.000 HD
ENDBRANCH   3   4
BRANCH   2   9
ATOM      9  N   UNL     1       5.231   3.448  18.275  0.00  0.00    +0.000 N 
ATOM     10  H   UNL     1       5.940   2.908  18.765  0.00  0.00    +0.000 HD
BRANCH   9  11
ATOM     11  C   UNL     1       3.927   3.372  18.793  0.00  0.00    +0.000 A 
ATOM     12  C   UNL     1       3.412   4.367  19.638  0.00  0.00    +0.000 A 
ATOM     13  C   UNL     1       2.142   4.239  20.203  0.00  0.00    +0.000 A 
ATOM     14  C   UNL     1       1.388   3.103  19.940  0.00  0.00    +0.000 A 
ATOM     15  F   UNL     1       0.177   2.969  20.495  0.00  0.00    +0.000 F 
ATOM     16  C   UNL     1       1.877   2.100  19.113  0.00  0.00    +0.000 A 
ATOM     17  C   UNL     1       3.143   2.236  18.538  0.00  0.00    +0.000 A 
ENDBRANCH   9  11
ENDBRANCH   2   9
BRANCH   3  18
ATOM     18  C   UNL     1       7.262   5.367  19.083  0.00  0.00    +0.000 C 
ATOM     19  N   UNL     1       7.739   5.413  20.249  0.00  0.00    +0.000 NA
ENDBRANCH   3  18
TORSDOF 4
ENDMDL
MODEL 6
REMARK VINA RESULT:      -6.6      1.237      1.355
REMARK  Name = 
REMARK  5 active torsions:
REMARK  status: ('A' for Active; 'I' for Inactive)
REMARK    1  A    between atoms: C_1  and  C_2
REMARK    2  A    between atoms: C_2  and  N_3
REMARK    3  A    between atoms: N_3  and  C_4
REMARK    4  A    between atoms: C_11  and  C_12
REMARK    5  A    between atoms: C_11  and  C_14
REMARK                            x       y       z     vdW  Elec       q    Type
REMARK                         _______ _______ _______ _____ _____    ______ ____
ROOT
ATOM      1  C   UNL     1       4.905   4.305  16.329  0.00  0.00    +0.000 C 
ATOM      2  C   UNL     1       5.673   4.400  17.629  0.00  0.00    +0.000 C 
ATOM      3  C   UNL     1       6.656   5.318  17.825  0.00  0.00    +0.000 C 
ENDROOT
BRANCH   3   4
ATOM      4  C   UNL     1       7.106   6.305  16.789  0.00  0.00    +0.000 C 
ATOM      5  N   UNL     1       7.583   5.800  15.613  0.00  0.00    +0.000 N 
ATOM      6  O   UNL     1       7.059   7.519  16.937  0.00  0.00    +0.000 OA
ATOM      7  H   UNL     1       7.657   4.820  15.371  0.00  0.00    +0.000 HD
ATOM      8  H   UNL     1       7.887   6.469  14.917  0.00  0.00    +0.000 HD
ENDBRANCH   3   4
BRANCH   2   9
ATOM      9  N   UNL     1       5.258   3.466  18.577  0.00  0.00    +0.000 N 
ATOM     10  H   UNL     1       6.005   3.039  19.119  0.00  0.00    +0.000 HD
BRANCH   9  11
ATOM     11  C   UNL     1       3.955   3.291  19.074  0.00  0.00    +0.000 A 
ATOM     12  C   UNL     1       3.210   2.135  18.792  0.00  0.00    +0.000 A 
ATOM     13  C   UNL     1       1.890   2.009  19.232  0.00  0.00    +0.000 A 
ATOM     14  C   UNL     1       1.304   3.050  19.940  0.00  0.00    +0.000 A 
ATOM     15  F   UNL     1       0.033   2.939  20.347  0.00  0.00    +0.000 F 
ATOM     16  C   UNL     1       2.017   4.207  20.226  0.00  0.00    +0.000 A 
ATOM     17  C   UNL     1       3.342   4.325  19.797  0.00  0.00    +0.000 A 
ENDBRANCH   9  11
ENDBRANCH   2   9
BRANCH   3  18
ATOM     18  C   UNL     1       7.346   5.400  19.177  0.00  0.00    +0.000 C 
ATOM     19  N   UNL     1       7.919   5.468  20.298  0.00  0.00    +0.000 NA
ENDBRANCH   3  18
TORSDOF 4
ENDMDL
MODEL 7
REMARK VINA RESULT:      -6.5      3.798      5.952
REMARK  Name = 
REMARK  5 active torsions:
REMARK  status: ('A' for Active; 'I' for Inactive)
REMARK    1  A    between atoms: C_1  and  C_2
REMARK    2  A    between atoms: C_2  and  N_3
REMARK    3  A    between atoms: N_3  and  C_4
REMARK    4  A    between atoms: C_11  and  C_12
REMARK    5  A    between atoms: C_11  and  C_14
REMARK                            x       y       z     vdW  Elec       q    Type
REMARK                         _______ _______ _______ _____ _____    ______ ____
ROOT
ATOM      1  C   UNL     1       4.169   2.557  19.840  0.00  0.00    +0.000 C 
ATOM      2  C   UNL     1       3.663   3.982  19.878  0.00  0.00    +0.000 C 
ATOM      3  C   UNL     1       2.461   4.309  20.424  0.00  0.00    +0.000 C 
ENDROOT
BRANCH   3   4
ATOM      4  C   UNL     1       1.506   3.316  21.015  0.00  0.00    +0.000 C 
ATOM      5  N   UNL     1       0.414   2.980  20.267  0.00  0.00    +0.000 N 
ATOM      6  O   UNL     1       1.657   2.793  22.111  0.00  0.00    +0.000 OA
ATOM      7  H   UNL     1       0.190   3.335  19.346  0.00  0.00    +0.000 HD
ATOM      8  H   UNL     1      -0.229   2.311  20.670  0.00  0.00    +0.000 HD
ENDBRANCH   3   4
BRANCH   2   9
ATOM      9  N   UNL     1       4.551   4.893  19.310  0.00  0.00    +0.000 N 
ATOM     10  H   UNL     1       4.878   5.626  19.935  0.00  0.00    +0.000 HD
BRANCH   9  11
ATOM     11  C   UNL     1       5.269   4.736  18.111  0.00  0.00    +0.000 A 
ATOM     12  C   UNL     1       6.672   4.716  18.092  0.00  0.00    +0.000 A 
ATOM     13  C   UNL     1       7.370   4.633  16.885  0.00  0.00    +0.000 A 
ATOM     14  C   UNL     1       6.665   4.591  15.690  0.00  0.00    +0.000 A 
ATOM     15  F   UNL     1       7.331   4.529  14.530  0.00  0.00    +0.000 F 
ATOM     16  C   UNL     1       5.276   4.616  15.681  0.00  0.00    +0.000 A 
ATOM     17  C   UNL     1       4.579   4.685  16.891  0.00  0.00    +0.000 A 
ENDBRANCH   9  11
ENDBRANCH   2   9
BRANCH   3  18
ATOM     18  C   UNL     1       2.039   5.768  20.485  0.00  0.00    +0.000 C 
ATOM     19  N   UNL     1       1.688   6.979  20.535  0.00  0.00    +0.000 NA
ENDBRANCH   3  18
TORSDOF 4
ENDMDL
MODEL 8
REMARK VINA RESULT:      -6.5      3.763      5.600
REMARK  Name = 
REMARK  5 active torsions:
REMARK  status: ('A' for Active; 'I' for Inactive)
REMARK    1  A    between atoms: C_1  and  C_2
REMARK    2  A    between atoms: C_2  and  N_3
REMARK    3  A    between atoms: N_3  and  C_4
REMARK    4  A    between atoms: C_11  and  C_12
REMARK    5  A    between atoms: C_11  and  C_14
REMARK                            x       y       z     vdW  Elec       q    Type
REMARK                         _______ _______ _______ _____ _____    ______ ____
ROOT
ATOM      1  C   UNL     1       1.998   5.901  20.130  0.00  0.00    +0.000 C 
ATOM      2  C   UNL     1       3.106   4.872  20.132  0.00  0.00    +0.000 C 
ATOM      3  C   UNL     1       2.895   3.580  20.501  0.00  0.00    +0.000 C 
ENDROOT
BRANCH   3   4
ATOM      4  C   UNL     1       1.575   3.041  20.965  0.00  0.00    +0.000 C 
ATOM      5  N   UNL     1       0.576   2.956  20.038  0.00  0.00    +0.000 N 
ATOM      6  O   UNL     1       1.353   2.671  22.111  0.00  0.00    +0.000 OA
ATOM      7  H   UNL     1       0.644   3.218  19.062  0.00  0.00    +0.000 HD
ATOM      8  H   UNL     1      -0.314   2.594  20.355  0.00  0.00    +0.000 HD
ENDBRANCH   3   4
BRANCH   2   9
ATOM      9  N   UNL     1       4.333   5.388  19.717  0.00  0.00    +0.000 N 
ATOM     10  H   UNL     1       4.896   5.810  20.452  0.00  0.00    +0.000 HD
BRANCH   9  11
ATOM     11  C   UNL     1       4.995   5.118  18.507  0.00  0.00    +0.000 A 
ATOM     12  C   UNL     1       4.288   4.833  17.328  0.00  0.00    +0.000 A 
ATOM     13  C   UNL     1       4.962   4.495  16.154  0.00  0.00    +0.000 A 
ATOM     14  C   UNL     1       6.349   4.420  16.159  0.00  0.00    +0.000 A 
ATOM     15  F   UNL     1       6.997   4.078  15.038  0.00  0.00    +0.000 F 
ATOM     16  C   UNL     1       7.072   4.691  17.313  0.00  0.00    +0.000 A 
ATOM     17  C   UNL     1       6.396   5.043  18.484  0.00  0.00    +0.000 A 
ENDBRANCH   9  11
ENDBRANCH   2   9
BRANCH   3  18
ATOM     18  C   UNL     1       4.039   2.582  20.423  0.00  0.00    +0.000 C 
ATOM     19  N   UNL     1       4.988   1.754  20.358  0.00  0.00    +0.000 NA
ENDBRANCH   3  18
TORSDOF 4
ENDMDL
MODEL 9
REMARK VINA RESULT:      -6.5      3.752      5.966
REMARK  Name = 
REMARK  5 active torsions:
REMARK  status: ('A' for Active; 'I' for Inactive)
REMARK    1  A    between atoms: C_1  and  C_2
REMARK    2  A    between atoms: C_2  and  N_3
REMARK    3  A    between atoms: N_3  and  C_4
REMARK    4  A    between atoms: C_11  and  C_12
REMARK    5  A    between atoms: C_11  and  C_14
REMARK                            x       y       z     vdW  Elec       q    Type
REMARK                         _______ _______ _______ _____ _____    ______ ____
ROOT
ATOM      1  C   UNL     1       4.136   2.814  19.678  0.00  0.00    +0.000 C 
ATOM      2  C   UNL     1       3.593   4.219  19.826  0.00  0.00    +0.000 C 
ATOM      3  C   UNL     1       2.399   4.474  20.426  0.00  0.00    +0.000 C 
ENDROOT
BRANCH   3   4
ATOM      4  C   UNL     1       1.489   3.417  20.975  0.00  0.00    +0.000 C 
ATOM      5  N   UNL     1       0.419   3.056  20.207  0.00  0.00    +0.000 N 
ATOM      6  O   UNL     1       1.658   2.863  22.053  0.00  0.00    +0.000 OA
ATOM      7  H   UNL     1       0.184   3.433  19.296  0.00  0.00    +0.000 HD
ATOM      8  H   UNL     1      -0.195   2.344  20.581  0.00  0.00    +0.000 HD
ENDBRANCH   3   4
BRANCH   2   9
ATOM      9  N   UNL     1       4.440   5.191  19.297  0.00  0.00    +0.000 N 
ATOM     10  H   UNL     1       4.700   5.935  19.940  0.00  0.00    +0.000 HD
BRANCH   9  11
ATOM     11  C   UNL     1       5.203   5.094  18.120  0.00  0.00    +0.000 A 
ATOM     12  C   UNL     1       4.613   5.187  16.850  0.00  0.00    +0.000 A 
ATOM     13  C   UNL     1       5.374   5.014  15.693  0.00  0.00    +0.000 A 
ATOM     14  C   UNL     1       6.729   4.728  15.802  0.00  0.00    +0.000 A 
ATOM     15  F   UNL     1       7.458   4.545  14.694  0.00  0.00    +0.000 F 
ATOM     16  C   UNL     1       7.336   4.624  17.047  0.00  0.00    +0.000 A 
ATOM     17  C   UNL     1       6.575   4.811  18.204  0.00  0.00    +0.000 A 
ENDBRANCH   9  11
ENDBRANCH   2   9
BRANCH   3  18
ATOM     18  C   UNL     1       1.940   5.913  20.596  0.00  0.00    +0.000 C 
ATOM     19  N   UNL     1       1.559   7.107  20.737  0.00  0.00    +0.000 NA
ENDBRANCH   3  18
TORSDOF 4
ENDMDL
