MODEL 1
REMARK VINA RESULT:      -7.1      0.000      0.000
REMARK  Name = 
REMARK  9 active torsions:
REMARK  status: ('A' for Active; 'I' for Inactive)
REMARK    1  A    between atoms: C_1  and  O_2
REMARK    2  A    between atoms: O_2  and  C_3
REMARK    3  A    between atoms: C_3  and  C_5
REMARK    4  A    between atoms: C_8  and  N_9
REMARK    5  A    between atoms: N_9  and  C_18
REMARK    6  A    between atoms: C_10  and  C_12
REMARK    7  A    between atoms: C_18  and  C_19
REMARK    8  A    between atoms: C_18  and  C_20
REMARK    9  A    between atoms: C_21  and  C_22
REMARK                            x       y       z     vdW  Elec       q    Type
REMARK                         _______ _______ _______ _____ _____    ______ ____
ROOT
ATOM      1  N   UNL     1       3.371   4.126  19.298  0.00  0.00    +0.000 N 
ATOM      2  C   UNL     1       2.335   5.010  19.709  0.00  0.00    +0.000 C 
ATOM      3  O   UNL     1       1.475   4.660  20.517  0.00  0.00    +0.000 OA
ENDROOT
BRANCH   1   7
ATOM      4  C   UNL     1       5.851   4.540  15.846  0.00  0.00    +0.000 A 
ATOM      5  C   UNL     1       4.577   3.974  15.760  0.00  0.00    +0.000 A 
ATOM      6  C   UNL     1       3.766   3.870  16.902  0.00  0.00    +0.000 A 
ATOM      7  C   UNL     1       4.208   4.326  18.158  0.00  0.00    +0.000 A 
ATOM      8  C   UNL     1       5.486   4.910  18.247  0.00  0.00    +0.000 A 
ATOM      9  C   UNL     1       6.109   5.426  19.515  0.00  0.00    +0.000 C 
ATOM     10  C   UNL     1       6.282   5.027  17.083  0.00  0.00    +0.000 A 
BRANCH   4  11
ATOM     11  C   UNL     1       6.724   4.580  14.629  0.00  0.00    +0.000 C 
ATOM     12  O   UNL     1       7.651   5.358  14.491  0.00  0.00    +0.000 OA
BRANCH  11  14
ATOM     13  C   UNL     1       6.739   3.873  12.376  0.00  0.00    +0.000 C 
ATOM     14  O   UNL     1       6.325   3.646  13.728  0.00  0.00    +0.000 OA
ENDBRANCH  11  14
ENDBRANCH   4  11
ENDBRANCH   1   7
BRANCH   2  15
ATOM     15  C   UNL     1       2.268   6.439  19.295  0.00  0.00    +0.000 A 
ATOM     16  C   UNL     1       2.556   6.908  18.020  0.00  0.00    +0.000 A 
ATOM     17  C   UNL     1       2.455   8.266  17.781  0.00  0.00    +0.000 A 
ATOM     18  N   UNL     1       2.053   9.168  18.699  0.00  0.00    +0.000 NA
ATOM     19  C   UNL     1       1.710   8.688  19.910  0.00  0.00    +0.000 A 
ATOM     20  C   UNL     1       1.797   7.350  20.250  0.00  0.00    +0.000 A 
ENDBRANCH   2  15
BRANCH   1  21
ATOM     21  C   UNL     1       3.316   2.770  19.908  0.00  0.00    +0.000 C 
ATOM     22  C   UNL     1       2.397   1.797  19.160  0.00  0.00    +0.000 C 
ATOM     23  C   UNL     1       4.676   2.119  20.167  0.00  0.00    +0.000 C 
ENDBRANCH   1  21
TORSDOF 5
ENDMDL
MODEL 2
REMARK VINA RESULT:      -7.0      0.661      1.546
REMARK  Name = 
REMARK  9 active torsions:
REMARK  status: ('A' for Active; 'I' for Inactive)
REMARK    1  A    between atoms: C_1  and  O_2
REMARK    2  A    between atoms: O_2  and  C_3
REMARK    3  A    between atoms: C_3  and  C_5
REMARK    4  A    between atoms: C_8  and  N_9
REMARK    5  A    between atoms: N_9  and  C_18
REMARK    6  A    between atoms: C_10  and  C_12
REMARK    7  A    between atoms: C_18  and  C_19
REMARK    8  A    between atoms: C_18  and  C_20
REMARK    9  A    between atoms: C_21  and  C_22
REMARK                            x       y       z     vdW  Elec       q    Type
REMARK                         _______ _______ _______ _____ _____    ______ ____
ROOT
ATOM      1  N   UNL     1       3.325   4.366  19.827  0.00  0.00    +0.000 N 
ATOM      2  C   UNL     1       2.296   5.309  20.098  0.00  0.00    +0.000 C 
ATOM      3  O   UNL     1       1.436   5.094  20.951  0.00  0.00    +0.000 OA
ENDROOT
BRANCH   1   7
ATOM      4  C   UNL     1       5.852   4.595  16.392  0.00  0.00    +0.000 A 
ATOM      5  C   UNL     1       6.268   5.084  17.632  0.00  0.00    +0.000 A 
ATOM      6  C   UNL     1       5.433   4.976  18.756  0.00  0.00    +0.000 A 
ATOM      7  C   UNL     1       4.161   4.381  18.669  0.00  0.00    +0.000 A 
ATOM      8  C   UNL     1       3.743   3.874  17.424  0.00  0.00    +0.000 A 
ATOM      9  C   UNL     1       2.410   3.228  17.162  0.00  0.00    +0.000 C 
ATOM     10  C   UNL     1       4.605   3.971  16.306  0.00  0.00    +0.000 A 
BRANCH   4  11
ATOM     11  C   UNL     1       6.732   4.781  15.193  0.00  0.00    +0.000 C 
ATOM     12  O   UNL     1       7.688   5.536  15.170  0.00  0.00    +0.000 OA
BRANCH  11  14
ATOM     13  C   UNL     1       6.982   4.196  12.918  0.00  0.00    +0.000 C 
ATOM     14  O   UNL     1       6.301   4.005  14.164  0.00  0.00    +0.000 OA
ENDBRANCH  11  14
ENDBRANCH   4  11
ENDBRANCH   1   7
BRANCH   2  15
ATOM     15  C   UNL     1       2.237   6.657  19.467  0.00  0.00    +0.000 A 
ATOM     16  C   UNL     1       2.556   6.926  18.142  0.00  0.00    +0.000 A 
ATOM     17  C   UNL     1       2.458   8.230  17.695  0.00  0.00    +0.000 A 
ATOM     18  N   UNL     1       2.032   9.261  18.453  0.00  0.00    +0.000 NA
ATOM     19  C   UNL     1       1.659   8.971  19.715  0.00  0.00    +0.000 A 
ATOM     20  C   UNL     1       1.741   7.702  20.259  0.00  0.00    +0.000 A 
ENDBRANCH   2  15
BRANCH   1  21
ATOM     21  C   UNL     1       3.263   3.121  20.640  0.00  0.00    +0.000 C 
ATOM     22  C   UNL     1       1.955   2.340  20.469  0.00  0.00    +0.000 C 
ATOM     23  C   UNL     1       4.463   2.183  20.484  0.00  0.00    +0.000 C 
ENDBRANCH   1  21
TORSDOF 5
ENDMDL
MODEL 3
REMARK VINA RESULT:      -7.0      2.366      4.002
REMARK  Name = 
REMARK  9 active torsions:
REMARK  status: ('A' for Active; 'I' for Inactive)
REMARK    1  A    between atoms: C_1  and  O_2
REMARK    2  A    between atoms: O_2  and  C_3
REMARK    3  A    between atoms: C_3  and  C_5
REMARK    4  A    between atoms: C_8  and  N_9
REMARK    5  A    between atoms: N_9  and  C_18
REMARK    6  A    between atoms: C_10  and  C_12
REMARK    7  A    between atoms: C_18  and  C_19
REMARK    8  A    between atoms: C_18  and  C_20
REMARK    9  A    between atoms: C_21  and  C_22
REMARK                            x       y       z     vdW  Elec       q    Type
REMARK                         _______ _______ _______ _____ _____    ______ ____
ROOT
ATOM      1  N   UNL     1       5.794   5.578  17.921  0.00  0.00    +0.000 N 
ATOM      2  C   UNL     1       4.881   5.093  18.898  0.00  0.00    +0.000 C 
ATOM      3  O   UNL     1       5.052   5.303  20.098  0.00  0.00    +0.000 OA
ENDROOT
BRANCH   1   7
ATOM      4  C   UNL     1       6.156   4.216  13.890  0.00  0.00    +0.000 A 
ATOM      5  C   UNL     1       6.674   3.476  14.955  0.00  0.00    +0.000 A 
ATOM      6  C   UNL     1       6.522   3.928  16.276  0.00  0.00    +0.000 A 
ATOM      7  C   UNL     1       5.853   5.131  16.566  0.00  0.00    +0.000 A 
ATOM      8  C   UNL     1       5.317   5.874  15.497  0.00  0.00    +0.000 A 
ATOM      9  C   UNL     1       4.593   7.185  15.639  0.00  0.00    +0.000 C 
ATOM     10  C   UNL     1       5.459   5.394  14.173  0.00  0.00    +0.000 A 
BRANCH   4  11
ATOM     11  C   UNL     1       6.387   3.749  12.485  0.00  0.00    +0.000 C 
ATOM     12  O   UNL     1       7.254   4.203  11.759  0.00  0.00    +0.000 OA
BRANCH  11  14
ATOM     13  C   UNL     1       4.356   3.209  11.408  0.00  0.00    +0.000 C 
ATOM     14  O   UNL     1       5.498   2.776  12.156  0.00  0.00    +0.000 OA
ENDBRANCH  11  14
ENDBRANCH   4  11
ENDBRANCH   1   7
BRANCH   2  15
ATOM     15  C   UNL     1       3.606   4.404  18.553  0.00  0.00    +0.000 A 
ATOM     16  C   UNL     1       2.475   5.036  18.053  0.00  0.00    +0.000 A 
ATOM     17  C   UNL     1       1.359   4.266  17.782  0.00  0.00    +0.000 A 
ATOM     18  N   UNL     1       1.308   2.927  17.932  0.00  0.00    +0.000 NA
ATOM     19  C   UNL     1       2.436   2.321  18.352  0.00  0.00    +0.000 A 
ATOM     20  C   UNL     1       3.594   3.007  18.668  0.00  0.00    +0.000 A 
ENDBRANCH   2  15
BRANCH   1  21
ATOM     21  C   UNL     1       6.954   6.333  18.469  0.00  0.00    +0.000 C 
ATOM     22  C   UNL     1       8.038   5.436  19.077  0.00  0.00    +0.000 C 
ATOM     23  C   UNL     1       7.582   7.345  17.508  0.00  0.00    +0.000 C 
ENDBRANCH   1  21
TORSDOF 5
ENDMDL
MODEL 4
REMARK VINA RESULT:      -6.7      0.494      1.093
REMARK  Name = 
REMARK  9 active torsions:
REMARK  status: ('A' for Active; 'I' for Inactive)
REMARK    1  A    between atoms: C_1  and  O_2
REMARK    2  A    between atoms: O_2  and  C_3
REMARK    3  A    between atoms: C_3  and  C_5
REMARK    4  A    between atoms: C_8  and  N_9
REMARK    5  A    between atoms: N_9  and  C_18
REMARK    6  A    between atoms: C_10  and  C_12
REMARK    7  A    between atoms: C_18  and  C_19
REMARK    8  A    between atoms: C_18  and  C_20
REMARK    9  A    between atoms: C_21  and  C_22
REMARK                            x       y       z     vdW  Elec       q    Type
REMARK                         _______ _______ _______ _____ _____    ______ ____
ROOT
ATOM      1  N   UNL     1       3.565   3.804  19.107  0.00  0.00    +0.000 N 
ATOM      2  C   UNL     1       2.469   4.580  19.576  0.00  0.00    +0.000 C 
ATOM      3  O   UNL     1       1.627   4.108  20.340  0.00  0.00    +0.000 OA
ENDROOT
BRANCH   1   7
ATOM      4  C   UNL     1       6.046   4.669  15.740  0.00  0.00    +0.000 A 
ATOM      5  C   UNL     1       4.823   4.011  15.590  0.00  0.00    +0.000 A 
ATOM      6  C   UNL     1       4.009   3.758  16.707  0.00  0.00    +0.000 A 
ATOM      7  C   UNL     1       4.397   4.153  18.000  0.00  0.00    +0.000 A 
ATOM      8  C   UNL     1       5.622   4.829  18.155  0.00  0.00    +0.000 A 
ATOM      9  C   UNL     1       6.186   5.298  19.468  0.00  0.00    +0.000 C 
ATOM     10  C   UNL     1       6.421   5.095  17.017  0.00  0.00    +0.000 A 
BRANCH   4  11
ATOM     11  C   UNL     1       6.928   4.868  14.546  0.00  0.00    +0.000 C 
ATOM     12  O   UNL     1       7.884   5.622  14.534  0.00  0.00    +0.000 OA
BRANCH  11  14
ATOM     13  C   UNL     1       7.182   4.310  12.265  0.00  0.00    +0.000 C 
ATOM     14  O   UNL     1       6.499   4.105  13.507  0.00  0.00    +0.000 OA
ENDBRANCH  11  14
ENDBRANCH   4  11
ENDBRANCH   1   7
BRANCH   2  15
ATOM     15  C   UNL     1       2.312   6.032  19.283  0.00  0.00    +0.000 A 
ATOM     16  C   UNL     1       2.040   7.007  20.234  0.00  0.00    +0.000 A 
ATOM     17  C   UNL     1       1.915   8.318  19.814  0.00  0.00    +0.000 A 
ATOM     18  N   UNL     1       2.082   8.723  18.539  0.00  0.00    +0.000 NA
ATOM     19  C   UNL     1       2.415   7.776  17.641  0.00  0.00    +0.000 A 
ATOM     20  C   UNL     1       2.541   6.436  17.960  0.00  0.00    +0.000 A 
ENDBRANCH   2  15
BRANCH   1  21
ATOM     21  C   UNL     1       3.594   2.401  19.601  0.00  0.00    +0.000 C 
ATOM     22  C   UNL     1       3.464   1.355  18.487  0.00  0.00    +0.000 C 
ATOM     23  C   UNL     1       4.775   2.057  20.512  0.00  0.00    +0.000 C 
ENDBRANCH   1  21
TORSDOF 5
ENDMDL
MODEL 5
REMARK VINA RESULT:      -6.7      0.952      2.051
REMARK  Name = 
REMARK  9 active torsions:
REMARK  status: ('A' for Active; 'I' for Inactive)
REMARK    1  A    between atoms: C_1  and  O_2
REMARK    2  A    between atoms: O_2  and  C_3
REMARK    3  A    between atoms: C_3  and  C_5
REMARK    4  A    between atoms: C_8  and  N_9
REMARK    5  A    between atoms: N_9  and  C_18
REMARK    6  A    between atoms: C_10  and  C_12
REMARK    7  A    between atoms: C_18  and  C_19
REMARK    8  A    between atoms: C_18  and  C_20
REMARK    9  A    between atoms: C_21  and  C_22
REMARK                            x       y       z     vdW  Elec       q    Type
REMARK                         _______ _______ _______ _____ _____    ______ ____
ROOT
ATOM      1  N   UNL     1       3.051   4.187  19.934  0.00  0.00    +0.000 N 
ATOM      2  C   UNL     1       1.907   5.008  20.133  0.00  0.00    +0.000 C 
ATOM      3  O   UNL     1       0.916   4.594  20.734  0.00  0.00    +0.000 OA
ENDROOT
BRANCH   1   7
ATOM      4  C   UNL     1       6.182   5.181  17.205  0.00  0.00    +0.000 A 
ATOM      5  C   UNL     1       6.279   5.489  18.564  0.00  0.00    +0.000 A 
ATOM      6  C   UNL     1       5.250   5.131  19.450  0.00  0.00    +0.000 A 
ATOM      7  C   UNL     1       4.098   4.459  19.001  0.00  0.00    +0.000 A 
ATOM      8  C   UNL     1       4.002   4.134  17.635  0.00  0.00    +0.000 A 
ATOM      9  C   UNL     1       2.832   3.437  16.997  0.00  0.00    +0.000 C 
ATOM     10  C   UNL     1       5.057   4.483  16.759  0.00  0.00    +0.000 A 
BRANCH   4  11
ATOM     11  C   UNL     1       7.261   5.632  16.267  0.00  0.00    +0.000 C 
ATOM     12  O   UNL     1       7.786   6.729  16.323  0.00  0.00    +0.000 OA
BRANCH  11  14
ATOM     13  C   UNL     1       7.095   4.899  14.028  0.00  0.00    +0.000 C 
ATOM     14  O   UNL     1       7.544   4.655  15.366  0.00  0.00    +0.000 OA
ENDBRANCH  11  14
ENDBRANCH   4  11
ENDBRANCH   1   7
BRANCH   2  15
ATOM     15  C   UNL     1       1.855   6.444  19.743  0.00  0.00    +0.000 A 
ATOM     16  C   UNL     1       1.579   7.491  20.612  0.00  0.00    +0.000 A 
ATOM     17  C   UNL     1       1.559   8.778  20.106  0.00  0.00    +0.000 A 
ATOM     18  N   UNL     1       1.833   9.091  18.824  0.00  0.00    +0.000 NA
ATOM     19  C   UNL     1       2.168   8.071  18.009  0.00  0.00    +0.000 A 
ATOM     20  C   UNL     1       2.195   6.750  18.418  0.00  0.00    +0.000 A 
ENDBRANCH   2  15
BRANCH   1  21
ATOM     21  C   UNL     1       2.940   2.812  20.492  0.00  0.00    +0.000 C 
ATOM     22  C   UNL     1       1.894   1.944  19.782  0.00  0.00    +0.000 C 
ATOM     23  C   UNL     1       4.262   2.051  20.614  0.00  0.00    +0.000 C 
ENDBRANCH   1  21
TORSDOF 5
ENDMDL
MODEL 6
REMARK VINA RESULT:      -6.4      2.820      5.997
REMARK  Name = 
REMARK  9 active torsions:
REMARK  status: ('A' for Active; 'I' for Inactive)
REMARK    1  A    between atoms: C_1  and  O_2
REMARK    2  A    between atoms: O_2  and  C_3
REMARK    3  A    between atoms: C_3  and  C_5
REMARK    4  A    between atoms: C_8  and  N_9
REMARK    5  A    between atoms: N_9  and  C_18
REMARK    6  A    between atoms: C_10  and  C_12
REMARK    7  A    between atoms: C_18  and  C_19
REMARK    8  A    between atoms: C_18  and  C_20
REMARK    9  A    between atoms: C_21  and  C_22
REMARK                            x       y       z     vdW  Elec       q    Type
REMARK                         _______ _______ _______ _____ _____    ______ ____
ROOT
ATOM      1  N   UNL     1       3.257   4.054  19.558  0.00  0.00    +0.000 N 
ATOM      2  C   UNL     1       4.607   3.611  19.490  0.00  0.00    +0.000 C 
ATOM      3  O   UNL     1       4.938   2.494  19.888  0.00  0.00    +0.000 OA
ENDROOT
BRANCH   1   7
ATOM      4  C   UNL     1       1.839   8.069  19.233  0.00  0.00    +0.000 A 
ATOM      5  C   UNL     1       1.872   7.409  20.464  0.00  0.00    +0.000 A 
ATOM      6  C   UNL     1       2.366   6.097  20.554  0.00  0.00    +0.000 A 
ATOM      7  C   UNL     1       2.836   5.412  19.419  0.00  0.00    +0.000 A 
ATOM      8  C   UNL     1       2.819   6.078  18.179  0.00  0.00    +0.000 A 
ATOM      9  C   UNL     1       3.267   5.479  16.874  0.00  0.00    +0.000 C 
ATOM     10  C   UNL     1       2.338   7.408  18.108  0.00  0.00    +0.000 A 
BRANCH   4  11
ATOM     11  C   UNL     1       1.247   9.443  19.149  0.00  0.00    +0.000 C 
ATOM     12  O   UNL     1       1.124  10.060  18.106  0.00  0.00    +0.000 OA
BRANCH  11  14
ATOM     13  C   UNL     1      -0.416  10.464  20.479  0.00  0.00    +0.000 C 
ATOM     14  O   UNL     1       0.889   9.882  20.384  0.00  0.00    +0.000 OA
ENDBRANCH  11  14
ENDBRANCH   4  11
ENDBRANCH   1   7
BRANCH   2  15
ATOM     15  C   UNL     1       5.693   4.397  18.841  0.00  0.00    +0.000 A 
ATOM     16  C   UNL     1       6.421   5.403  19.463  0.00  0.00    +0.000 A 
ATOM     17  C   UNL     1       7.400   6.053  18.733  0.00  0.00    +0.000 A 
ATOM     18  N   UNL     1       7.725   5.745  17.461  0.00  0.00    +0.000 NA
ATOM     19  C   UNL     1       7.057   4.720  16.896  0.00  0.00    +0.000 A 
ATOM     20  C   UNL     1       6.049   4.025  17.538  0.00  0.00    +0.000 A 
ENDBRANCH   2  15
BRANCH   1  21
ATOM     21  C   UNL     1       2.306   3.074  20.150  0.00  0.00    +0.000 C 
ATOM     22  C   UNL     1       2.171   3.193  21.672  0.00  0.00    +0.000 C 
ATOM     23  C   UNL     1       0.922   3.038  19.498  0.00  0.00    +0.000 C 
ENDBRANCH   1  21
TORSDOF 5
ENDMDL
MODEL 7
REMARK VINA RESULT:      -6.3      2.845      5.835
REMARK  Name = 
REMARK  9 active torsions:
REMARK  status: ('A' for Active; 'I' for Inactive)
REMARK    1  A    between atoms: C_1  and  O_2
REMARK    2  A    between atoms: O_2  and  C_3
REMARK    3  A    between atoms: C_3  and  C_5
REMARK    4  A    between atoms: C_8  and  N_9
REMARK    5  A    between atoms: N_9  and  C_18
REMARK    6  A    between atoms: C_10  and  C_12
REMARK    7  A    between atoms: C_18  and  C_19
REMARK    8  A    between atoms: C_18  and  C_20
REMARK    9  A    between atoms: C_21  and  C_22
REMARK                            x       y       z     vdW  Elec       q    Type
REMARK                         _______ _______ _______ _____ _____    ______ ____
ROOT
ATOM      1  N   UNL     1       3.251   3.983  19.571  0.00  0.00    +0.000 N 
ATOM      2  C   UNL     1       4.589   3.508  19.495  0.00  0.00    +0.000 C 
ATOM      3  O   UNL     1       4.907   2.408  19.948  0.00  0.00    +0.000 OA
ENDROOT
BRANCH   1   7
ATOM      4  C   UNL     1       1.913   8.007  19.060  0.00  0.00    +0.000 A 
ATOM      5  C   UNL     1       2.023   7.435  20.330  0.00  0.00    +0.000 A 
ATOM      6  C   UNL     1       2.490   6.118  20.479  0.00  0.00    +0.000 A 
ATOM      7  C   UNL     1       2.855   5.340  19.365  0.00  0.00    +0.000 A 
ATOM      8  C   UNL     1       2.759   5.917  18.084  0.00  0.00    +0.000 A 
ATOM      9  C   UNL     1       3.092   5.213  16.797  0.00  0.00    +0.000 C 
ATOM     10  C   UNL     1       2.308   7.252  17.953  0.00  0.00    +0.000 A 
BRANCH   4  11
ATOM     11  C   UNL     1       1.351   9.388  18.920  0.00  0.00    +0.000 C 
ATOM     12  O   UNL     1       1.475  10.067  17.916  0.00  0.00    +0.000 OA
BRANCH  11  14
ATOM     13  C   UNL     1      -0.624  10.255  19.883  0.00  0.00    +0.000 C 
ATOM     14  O   UNL     1       0.707   9.757  20.058  0.00  0.00    +0.000 OA
ENDBRANCH  11  14
ENDBRANCH   4  11
ENDBRANCH   1   7
BRANCH   2  15
ATOM     15  C   UNL     1       5.674   4.232  18.775  0.00  0.00    +0.000 A 
ATOM     16  C   UNL     1       6.009   4.032  17.442  0.00  0.00    +0.000 A 
ATOM     17  C   UNL     1       7.045   4.775  16.907  0.00  0.00    +0.000 A 
ATOM     18  N   UNL     1       7.730   5.718  17.585  0.00  0.00    +0.000 NA
ATOM     19  C   UNL     1       7.345   5.949  18.856  0.00  0.00    +0.000 A 
ATOM     20  C   UNL     1       6.336   5.243  19.485  0.00  0.00    +0.000 A 
ENDBRANCH   2  15
BRANCH   1  21
ATOM     21  C   UNL     1       2.296   3.060  20.242  0.00  0.00    +0.000 C 
ATOM     22  C   UNL     1       2.177   3.292  21.753  0.00  0.00    +0.000 C 
ATOM     23  C   UNL     1       0.905   2.992  19.608  0.00  0.00    +0.000 C 
ENDBRANCH   1  21
TORSDOF 5
ENDMDL
MODEL 8
REMARK VINA RESULT:      -6.3      1.279      2.269
REMARK  Name = 
REMARK  9 active torsions:
REMARK  status: ('A' for Active; 'I' for Inactive)
REMARK    1  A    between atoms: C_1  and  O_2
REMARK    2  A    between atoms: O_2  and  C_3
REMARK    3  A    between atoms: C_3  and  C_5
REMARK    4  A    between atoms: C_8  and  N_9
REMARK    5  A    between atoms: N_9  and  C_18
REMARK    6  A    between atoms: C_10  and  C_12
REMARK    7  A    between atoms: C_18  and  C_19
REMARK    8  A    between atoms: C_18  and  C_20
REMARK    9  A    between atoms: C_21  and  C_22
REMARK                            x       y       z     vdW  Elec       q    Type
REMARK                         _______ _______ _______ _____ _____    ______ ____
ROOT
ATOM      1  N   UNL     1       3.111   4.208  19.930  0.00  0.00    +0.000 N 
ATOM      2  C   UNL     1       1.980   5.042  20.146  0.00  0.00    +0.000 C 
ATOM      3  O   UNL     1       0.996   4.642  20.769  0.00  0.00    +0.000 OA
ENDROOT
BRANCH   1   7
ATOM      4  C   UNL     1       6.206   5.150  17.142  0.00  0.00    +0.000 A 
ATOM      5  C   UNL     1       6.360   5.398  18.508  0.00  0.00    +0.000 A 
ATOM      6  C   UNL     1       5.341   5.057  19.412  0.00  0.00    +0.000 A 
ATOM      7  C   UNL     1       4.143   4.464  18.975  0.00  0.00    +0.000 A 
ATOM      8  C   UNL     1       3.988   4.199  17.601  0.00  0.00    +0.000 A 
ATOM      9  C   UNL     1       2.764   3.590  16.975  0.00  0.00    +0.000 C 
ATOM     10  C   UNL     1       5.034   4.528  16.706  0.00  0.00    +0.000 A 
BRANCH   4  11
ATOM     11  C   UNL     1       7.278   5.582  16.188  0.00  0.00    +0.000 C 
ATOM     12  O   UNL     1       7.554   4.978  15.168  0.00  0.00    +0.000 OA
BRANCH  11  14
ATOM     13  C   UNL     1       7.000   7.746  17.092  0.00  0.00    +0.000 C 
ATOM     14  O   UNL     1       7.882   6.715  16.634  0.00  0.00    +0.000 OA
ENDBRANCH  11  14
ENDBRANCH   4  11
ENDBRANCH   1   7
BRANCH   2  15
ATOM     15  C   UNL     1       1.934   6.476  19.746  0.00  0.00    +0.000 A 
ATOM     16  C   UNL     1       2.238   6.955  18.478  0.00  0.00    +0.000 A 
ATOM     17  C   UNL     1       2.156   8.316  18.253  0.00  0.00    +0.000 A 
ATOM     18  N   UNL     1       1.757   9.214  19.177  0.00  0.00    +0.000 NA
ATOM     19  C   UNL     1       1.398   8.726  20.380  0.00  0.00    +0.000 A 
ATOM     20  C   UNL     1       1.466   7.384  20.707  0.00  0.00    +0.000 A 
ENDBRANCH   2  15
BRANCH   1  21
ATOM     21  C   UNL     1       2.997   2.839  20.500  0.00  0.00    +0.000 C 
ATOM     22  C   UNL     1       1.910   1.985  19.834  0.00  0.00    +0.000 C 
ATOM     23  C   UNL     1       4.310   2.055  20.576  0.00  0.00    +0.000 C 
ENDBRANCH   1  21
TORSDOF 5
ENDMDL
MODEL 9
REMARK VINA RESULT:      -6.2      2.504      6.152
REMARK  Name = 
REMARK  9 active torsions:
REMARK  status: ('A' for Active; 'I' for Inactive)
REMARK    1  A    between atoms: C_1  and  O_2
REMARK    2  A    between atoms: O_2  and  C_3
REMARK    3  A    between atoms: C_3  and  C_5
REMARK    4  A    between atoms: C_8  and  N_9
REMARK    5  A    between atoms: N_9  and  C_18
REMARK    6  A    between atoms: C_10  and  C_12
REMARK    7  A    between atoms: C_18  and  C_19
REMARK    8  A    between atoms: C_18  and  C_20
REMARK    9  A    between atoms: C_21  and  C_22
REMARK                            x       y       z     vdW  Elec       q    Type
REMARK                         _______ _______ _______ _____ _____    ______ ____
ROOT
ATOM      1  N   UNL     1       3.352   4.660  17.661  0.00  0.00    +0.000 N 
ATOM      2  C   UNL     1       4.740   4.400  17.492  0.00  0.00    +0.000 C 
ATOM      3  O   UNL     1       5.143   3.330  17.038  0.00  0.00    +0.000 OA
ENDROOT
BRANCH   1   7
ATOM      4  C   UNL     1       1.870   7.940  19.959  0.00  0.00    +0.000 A 
ATOM      5  C   UNL     1       2.108   8.063  18.588  0.00  0.00    +0.000 A 
ATOM      6  C   UNL     1       2.571   6.966  17.845  0.00  0.00    +0.000 A 
ATOM      7  C   UNL     1       2.810   5.719  18.452  0.00  0.00    +0.000 A 
ATOM      8  C   UNL     1       2.559   5.585  19.830  0.00  0.00    +0.000 A 
ATOM      9  C   UNL     1       2.782   4.330  20.627  0.00  0.00    +0.000 C 
ATOM     10  C   UNL     1       2.072   6.695  20.561  0.00  0.00    +0.000 A 
BRANCH   4  11
ATOM     11  C   UNL     1       1.440   9.141  20.745  0.00  0.00    +0.000 C 
ATOM     12  O   UNL     1       1.124  10.201  20.235  0.00  0.00    +0.000 OA
BRANCH  11  14
ATOM     13  C   UNL     1       0.379   9.409  22.838  0.00  0.00    +0.000 C 
ATOM     14  O   UNL     1       1.466   8.872  22.076  0.00  0.00    +0.000 OA
ENDBRANCH  11  14
ENDBRANCH   4  11
ENDBRANCH   1   7
BRANCH   2  15
ATOM     15  C   UNL     1       5.797   5.421  17.735  0.00  0.00    +0.000 A 
ATOM     16  C   UNL     1       5.942   6.598  17.012  0.00  0.00    +0.000 A 
ATOM     17  C   UNL     1       6.976   7.453  17.347  0.00  0.00    +0.000 A 
ATOM     18  N   UNL     1       7.835   7.238  18.364  0.00  0.00    +0.000 NA
ATOM     19  C   UNL     1       7.638   6.127  19.100  0.00  0.00    +0.000 A 
ATOM     20  C   UNL     1       6.645   5.202  18.829  0.00  0.00    +0.000 A 
ENDBRANCH   2  15
BRANCH   1  21
ATOM     21  C   UNL     1       2.454   3.543  17.262  0.00  0.00    +0.000 C 
ATOM     22  C   UNL     1       2.805   2.205  17.925  0.00  0.00    +0.000 C 
ATOM     23  C   UNL     1       0.957   3.828  17.410  0.00  0.00    +0.000 C 
ENDBRANCH   1  21
TORSDOF 5
ENDMDL
