MODEL 1
REMARK VINA RESULT:      -7.0      0.000      0.000
REMARK  Name = 
REMARK  8 active torsions:
REMARK  status: ('A' for Active; 'I' for Inactive)
REMARK    1  A    between atoms: C_1  and  O_2
REMARK    2  A    between atoms: O_2  and  C_3
REMARK    3  A    between atoms: C_3  and  C_5
REMARK    4  A    between atoms: N_7  and  C_8
REMARK    5  A    between atoms: C_14  and  C_15
REMARK    6  A    between atoms: C_16  and  C_17
REMARK    7  A    between atoms: C_17  and  O_19
REMARK    8  A    between atoms: O_19  and  C_20
REMARK                            x       y       z     vdW  Elec       q    Type
REMARK                         _______ _______ _______ _____ _____    ______ ____
ROOT
ATOM      1  C   UNL     1       5.974   5.696  18.093  0.00  0.00    +0.000 A 
ATOM      2  C   UNL     1       5.186   5.385  19.187  0.00  0.00    +0.000 A 
ATOM      3  N   UNL     1       4.168   4.530  18.813  0.00  0.00    +0.000 N 
ATOM      4  C   UNL     1       4.241   4.372  17.433  0.00  0.00    +0.000 A 
ATOM      5  C   UNL     1       3.201   3.705  16.588  0.00  0.00    +0.000 C 
ATOM      6  C   UNL     1       5.370   5.056  16.969  0.00  0.00    +0.000 A 
ENDROOT
BRANCH   3   7
ATOM      7  C   UNL     1       3.241   3.955  19.734  0.00  0.00    +0.000 A 
ATOM      8  C   UNL     1       1.953   4.502  19.853  0.00  0.00    +0.000 A 
ATOM      9  C   UNL     1       1.034   3.947  20.746  0.00  0.00    +0.000 A 
ATOM     10  C   UNL     1       1.396   2.858  21.535  0.00  0.00    +0.000 A 
ATOM     11  C   UNL     1       2.679   2.324  21.437  0.00  0.00    +0.000 A 
ATOM     12  C   UNL     1       3.604   2.874  20.543  0.00  0.00    +0.000 A 
ENDBRANCH   3   7
BRANCH   1  13
ATOM     13  C   UNL     1       7.189   6.503  18.139  0.00  0.00    +0.000 C 
ATOM     14  O   UNL     1       8.155   6.238  18.841  0.00  0.00    +0.000 OA
BRANCH  13  16
ATOM     15  C   UNL     1       7.938   8.682  17.711  0.00  0.00    +0.000 C 
ATOM     16  O   UNL     1       7.116   7.587  17.310  0.00  0.00    +0.000 OA
ENDBRANCH  13  16
ENDBRANCH   1  13
BRANCH   6  17
ATOM     17  C   UNL     1       5.774   5.123  15.564  0.00  0.00    +0.000 C 
ATOM     18  O   UNL     1       5.668   6.132  14.880  0.00  0.00    +0.000 OA
BRANCH  17  19
ATOM     19  O   UNL     1       6.338   3.961  15.127  0.00  0.00    +0.000 OA
ATOM     20  C   UNL     1       6.242   3.762  13.717  0.00  0.00    +0.000 C 
ENDBRANCH  17  19
ENDBRANCH   6  17
TORSDOF 5
ENDMDL
MODEL 2
REMARK VINA RESULT:      -7.0      3.160      4.543
REMARK  Name = 
REMARK  8 active torsions:
REMARK  status: ('A' for Active; 'I' for Inactive)
REMARK    1  A    between atoms: C_1  and  O_2
REMARK    2  A    between atoms: O_2  and  C_3
REMARK    3  A    between atoms: C_3  and  C_5
REMARK    4  A    between atoms: N_7  and  C_8
REMARK    5  A    between atoms: C_14  and  C_15
REMARK    6  A    between atoms: C_16  and  C_17
REMARK    7  A    between atoms: C_17  and  O_19
REMARK    8  A    between atoms: O_19  and  C_20
REMARK                            x       y       z     vdW  Elec       q    Type
REMARK                         _______ _______ _______ _____ _____    ______ ____
ROOT
ATOM      1  C   UNL     1       4.848   4.892  18.432  0.00  0.00    +0.000 A 
ATOM      2  C   UNL     1       4.274   6.140  18.270  0.00  0.00    +0.000 A 
ATOM      3  N   UNL     1       3.108   6.228  19.004  0.00  0.00    +0.000 N 
ATOM      4  C   UNL     1       2.873   4.977  19.565  0.00  0.00    +0.000 A 
ATOM      5  C   UNL     1       1.610   4.567  20.256  0.00  0.00    +0.000 C 
ATOM      6  C   UNL     1       3.953   4.143  19.255  0.00  0.00    +0.000 A 
ENDROOT
BRANCH   3   7
ATOM      7  C   UNL     1       2.331   7.420  19.115  0.00  0.00    +0.000 A 
ATOM      8  C   UNL     1       2.103   8.207  17.975  0.00  0.00    +0.000 A 
ATOM      9  C   UNL     1       1.342   9.374  18.068  0.00  0.00    +0.000 A 
ATOM     10  C   UNL     1       0.818   9.772  19.296  0.00  0.00    +0.000 A 
ATOM     11  C   UNL     1       1.060   9.008  20.435  0.00  0.00    +0.000 A 
ATOM     12  C   UNL     1       1.820   7.837  20.349  0.00  0.00    +0.000 A 
ENDBRANCH   3   7
BRANCH   1  13
ATOM     13  C   UNL     1       6.132   4.481  17.874  0.00  0.00    +0.000 C 
ATOM     14  O   UNL     1       7.180   4.487  18.504  0.00  0.00    +0.000 OA
BRANCH  13  16
ATOM     15  C   UNL     1       6.905   4.786  15.683  0.00  0.00    +0.000 C 
ATOM     16  O   UNL     1       6.024   4.097  16.567  0.00  0.00    +0.000 OA
ENDBRANCH  13  16
ENDBRANCH   1  13
BRANCH   6  17
ATOM     17  C   UNL     1       4.061   2.744  19.671  0.00  0.00    +0.000 C 
ATOM     18  O   UNL     1       4.937   2.330  20.420  0.00  0.00    +0.000 OA
BRANCH  17  19
ATOM     19  O   UNL     1       3.046   1.975  19.186  0.00  0.00    +0.000 OA
ATOM     20  C   UNL     1       3.006   1.894  17.762  0.00  0.00    +0.000 C 
ENDBRANCH  17  19
ENDBRANCH   6  17
TORSDOF 5
ENDMDL
MODEL 3
REMARK VINA RESULT:      -6.9      0.611      1.338
REMARK  Name = 
REMARK  8 active torsions:
REMARK  status: ('A' for Active; 'I' for Inactive)
REMARK    1  A    between atoms: C_1  and  O_2
REMARK    2  A    between atoms: O_2  and  C_3
REMARK    3  A    between atoms: C_3  and  C_5
REMARK    4  A    between atoms: N_7  and  C_8
REMARK    5  A    between atoms: C_14  and  C_15
REMARK    6  A    between atoms: C_16  and  C_17
REMARK    7  A    between atoms: C_17  and  O_19
REMARK    8  A    between atoms: O_19  and  C_20
REMARK                            x       y       z     vdW  Elec       q    Type
REMARK                         _______ _______ _______ _____ _____    ______ ____
ROOT
ATOM      1  C   UNL     1       6.296   5.748  18.153  0.00  0.00    +0.000 A 
ATOM      2  C   UNL     1       5.341   5.588  19.140  0.00  0.00    +0.000 A 
ATOM      3  N   UNL     1       4.434   4.613  18.774  0.00  0.00    +0.000 N 
ATOM      4  C   UNL     1       4.752   4.213  17.481  0.00  0.00    +0.000 A 
ATOM      5  C   UNL     1       3.899   3.336  16.618  0.00  0.00    +0.000 C 
ATOM      6  C   UNL     1       5.920   4.875  17.086  0.00  0.00    +0.000 A 
ENDROOT
BRANCH   3   7
ATOM      7  C   UNL     1       3.382   4.154  19.622  0.00  0.00    +0.000 A 
ATOM      8  C   UNL     1       3.572   3.001  20.400  0.00  0.00    +0.000 A 
ATOM      9  C   UNL     1       2.553   2.543  21.238  0.00  0.00    +0.000 A 
ATOM     10  C   UNL     1       1.337   3.219  21.294  0.00  0.00    +0.000 A 
ATOM     11  C   UNL     1       1.134   4.351  20.508  0.00  0.00    +0.000 A 
ATOM     12  C   UNL     1       2.151   4.817  19.668  0.00  0.00    +0.000 A 
ENDBRANCH   3   7
BRANCH   1  13
ATOM     13  C   UNL     1       7.456   6.629  18.243  0.00  0.00    +0.000 C 
ATOM     14  O   UNL     1       8.337   6.508  19.082  0.00  0.00    +0.000 OA
BRANCH  13  16
ATOM     15  C   UNL     1       7.918   8.868  17.731  0.00  0.00    +0.000 C 
ATOM     16  O   UNL     1       7.436   7.602  17.285  0.00  0.00    +0.000 OA
ENDBRANCH  13  16
ENDBRANCH   1  13
BRANCH   6  17
ATOM     17  C   UNL     1       6.559   4.713  15.780  0.00  0.00    +0.000 C 
ATOM     18  O   UNL     1       7.750   4.467  15.640  0.00  0.00    +0.000 OA
BRANCH  17  19
ATOM     19  O   UNL     1       5.672   4.801  14.750  0.00  0.00    +0.000 OA
ATOM     20  C   UNL     1       5.988   3.965  13.637  0.00  0.00    +0.000 C 
ENDBRANCH  17  19
ENDBRANCH   6  17
TORSDOF 5
ENDMDL
MODEL 4
REMARK VINA RESULT:      -6.9      3.167      4.576
REMARK  Name = 
REMARK  8 active torsions:
REMARK  status: ('A' for Active; 'I' for Inactive)
REMARK    1  A    between atoms: C_1  and  O_2
REMARK    2  A    between atoms: O_2  and  C_3
REMARK    3  A    between atoms: C_3  and  C_5
REMARK    4  A    between atoms: N_7  and  C_8
REMARK    5  A    between atoms: C_14  and  C_15
REMARK    6  A    between atoms: C_16  and  C_17
REMARK    7  A    between atoms: C_17  and  O_19
REMARK    8  A    between atoms: O_19  and  C_20
REMARK                            x       y       z     vdW  Elec       q    Type
REMARK                         _______ _______ _______ _____ _____    ______ ____
ROOT
ATOM      1  C   UNL     1       4.861   4.898  18.374  0.00  0.00    +0.000 A 
ATOM      2  C   UNL     1       4.303   6.152  18.207  0.00  0.00    +0.000 A 
ATOM      3  N   UNL     1       3.129   6.251  18.928  0.00  0.00    +0.000 N 
ATOM      4  C   UNL     1       2.875   5.003  19.485  0.00  0.00    +0.000 A 
ATOM      5  C   UNL     1       1.599   4.606  20.161  0.00  0.00    +0.000 C 
ATOM      6  C   UNL     1       3.948   4.157  19.186  0.00  0.00    +0.000 A 
ENDROOT
BRANCH   3   7
ATOM      7  C   UNL     1       2.365   7.453  19.032  0.00  0.00    +0.000 A 
ATOM      8  C   UNL     1       1.844   7.837  20.278  0.00  0.00    +0.000 A 
ATOM      9  C   UNL     1       1.099   9.012  20.396  0.00  0.00    +0.000 A 
ATOM     10  C   UNL     1       0.855   9.801  19.274  0.00  0.00    +0.000 A 
ATOM     11  C   UNL     1       1.350   9.414  18.031  0.00  0.00    +0.000 A 
ATOM     12  C   UNL     1       2.099   8.239  17.906  0.00  0.00    +0.000 A 
ENDBRANCH   3   7
BRANCH   1  13
ATOM     13  C   UNL     1       6.147   4.473  17.830  0.00  0.00    +0.000 C 
ATOM     14  O   UNL     1       7.188   4.467  18.472  0.00  0.00    +0.000 OA
BRANCH  13  16
ATOM     15  C   UNL     1       6.747   4.939  15.613  0.00  0.00    +0.000 C 
ATOM     16  O   UNL     1       6.049   4.090  16.522  0.00  0.00    +0.000 OA
ENDBRANCH  13  16
ENDBRANCH   1  13
BRANCH   6  17
ATOM     17  C   UNL     1       4.036   2.757  19.601  0.00  0.00    +0.000 C 
ATOM     18  O   UNL     1       4.915   2.327  20.337  0.00  0.00    +0.000 OA
BRANCH  17  19
ATOM     19  O   UNL     1       2.999   2.007  19.132  0.00  0.00    +0.000 OA
ATOM     20  C   UNL     1       2.940   1.922  17.710  0.00  0.00    +0.000 C 
ENDBRANCH  17  19
ENDBRANCH   6  17
TORSDOF 5
ENDMDL
MODEL 5
REMARK VINA RESULT:      -6.9      3.178      4.526
REMARK  Name = 
REMARK  8 active torsions:
REMARK  status: ('A' for Active; 'I' for Inactive)
REMARK    1  A    between atoms: C_1  and  O_2
REMARK    2  A    between atoms: O_2  and  C_3
REMARK    3  A    between atoms: C_3  and  C_5
REMARK    4  A    between atoms: N_7  and  C_8
REMARK    5  A    between atoms: C_14  and  C_15
REMARK    6  A    between atoms: C_16  and  C_17
REMARK    7  A    between atoms: C_17  and  O_19
REMARK    8  A    between atoms: O_19  and  C_20
REMARK                            x       y       z     vdW  Elec       q    Type
REMARK                         _______ _______ _______ _____ _____    ______ ____
ROOT
ATOM      1  C   UNL     1       4.848   4.980  18.519  0.00  0.00    +0.000 A 
ATOM      2  C   UNL     1       4.264   6.222  18.351  0.00  0.00    +0.000 A 
ATOM      3  N   UNL     1       3.077   6.290  19.054  0.00  0.00    +0.000 N 
ATOM      4  C   UNL     1       2.843   5.033  19.599  0.00  0.00    +0.000 A 
ATOM      5  C   UNL     1       1.566   4.603  20.251  0.00  0.00    +0.000 C 
ATOM      6  C   UNL     1       3.940   4.213  19.312  0.00  0.00    +0.000 A 
ENDROOT
BRANCH   3   7
ATOM      7  C   UNL     1       2.285   7.473  19.154  0.00  0.00    +0.000 A 
ATOM      8  C   UNL     1       2.055   8.252  18.008  0.00  0.00    +0.000 A 
ATOM      9  C   UNL     1       1.278   9.409  18.089  0.00  0.00    +0.000 A 
ATOM     10  C   UNL     1       0.740   9.806  19.311  0.00  0.00    +0.000 A 
ATOM     11  C   UNL     1       0.982   9.050  20.456  0.00  0.00    +0.000 A 
ATOM     12  C   UNL     1       1.758   7.888  20.381  0.00  0.00    +0.000 A 
ENDBRANCH   3   7
BRANCH   1  13
ATOM     13  C   UNL     1       6.152   4.588  17.993  0.00  0.00    +0.000 C 
ATOM     14  O   UNL     1       6.342   4.254  16.832  0.00  0.00    +0.000 OA
BRANCH  13  16
ATOM     15  C   UNL     1       7.820   5.878  19.013  0.00  0.00    +0.000 C 
ATOM     16  O   UNL     1       7.126   4.634  18.949  0.00  0.00    +0.000 OA
ENDBRANCH  13  16
ENDBRANCH   1  13
BRANCH   6  17
ATOM     17  C   UNL     1       4.053   2.813  19.719  0.00  0.00    +0.000 C 
ATOM     18  O   UNL     1       4.919   2.401  20.480  0.00  0.00    +0.000 OA
BRANCH  17  19
ATOM     19  O   UNL     1       3.053   2.039  19.211  0.00  0.00    +0.000 OA
ATOM     20  C   UNL     1       3.126   1.848  17.799  0.00  0.00    +0.000 C 
ENDBRANCH  17  19
ENDBRANCH   6  17
TORSDOF 5
ENDMDL
MODEL 6
REMARK VINA RESULT:      -6.9      1.610      3.631
REMARK  Name = 
REMARK  8 active torsions:
REMARK  status: ('A' for Active; 'I' for Inactive)
REMARK    1  A    between atoms: C_1  and  O_2
REMARK    2  A    between atoms: O_2  and  C_3
REMARK    3  A    between atoms: C_3  and  C_5
REMARK    4  A    between atoms: N_7  and  C_8
REMARK    5  A    between atoms: C_14  and  C_15
REMARK    6  A    between atoms: C_16  and  C_17
REMARK    7  A    between atoms: C_17  and  O_19
REMARK    8  A    between atoms: O_19  and  C_20
REMARK                            x       y       z     vdW  Elec       q    Type
REMARK                         _______ _______ _______ _____ _____    ______ ____
ROOT
ATOM      1  C   UNL     1       6.072   4.636  16.056  0.00  0.00    +0.000 A 
ATOM      2  C   UNL     1       4.961   3.832  16.240  0.00  0.00    +0.000 A 
ATOM      3  N   UNL     1       4.380   4.095  17.465  0.00  0.00    +0.000 N 
ATOM      4  C   UNL     1       5.194   5.010  18.125  0.00  0.00    +0.000 A 
ATOM      5  C   UNL     1       5.056   5.403  19.563  0.00  0.00    +0.000 C 
ATOM      6  C   UNL     1       6.228   5.386  17.261  0.00  0.00    +0.000 A 
ENDROOT
BRANCH   3   7
ATOM      7  C   UNL     1       3.165   3.492  17.909  0.00  0.00    +0.000 A 
ATOM      8  C   UNL     1       1.954   4.188  17.767  0.00  0.00    +0.000 A 
ATOM      9  C   UNL     1       0.756   3.609  18.192  0.00  0.00    +0.000 A 
ATOM     10  C   UNL     1       0.760   2.344  18.775  0.00  0.00    +0.000 A 
ATOM     11  C   UNL     1       1.961   1.657  18.939  0.00  0.00    +0.000 A 
ATOM     12  C   UNL     1       3.163   2.231  18.513  0.00  0.00    +0.000 A 
ENDBRANCH   3   7
BRANCH   1  13
ATOM     13  C   UNL     1       6.876   4.688  14.839  0.00  0.00    +0.000 C 
ATOM     14  O   UNL     1       7.787   5.484  14.661  0.00  0.00    +0.000 OA
BRANCH  13  16
ATOM     15  C   UNL     1       6.815   4.078  12.577  0.00  0.00    +0.000 C 
ATOM     16  O   UNL     1       6.486   3.750  13.926  0.00  0.00    +0.000 OA
ENDBRANCH  13  16
ENDBRANCH   1  13
BRANCH   6  17
ATOM     17  C   UNL     1       7.289   6.333  17.607  0.00  0.00    +0.000 C 
ATOM     18  O   UNL     1       8.231   6.052  18.336  0.00  0.00    +0.000 OA
BRANCH  17  19
ATOM     19  O   UNL     1       7.143   7.533  16.977  0.00  0.00    +0.000 OA
ATOM     20  C   UNL     1       7.806   8.616  17.628  0.00  0.00    +0.000 C 
ENDBRANCH  17  19
ENDBRANCH   6  17
TORSDOF 5
ENDMDL
MODEL 7
REMARK VINA RESULT:      -6.8      1.482      2.685
REMARK  Name = 
REMARK  8 active torsions:
REMARK  status: ('A' for Active; 'I' for Inactive)
REMARK    1  A    between atoms: C_1  and  O_2
REMARK    2  A    between atoms: O_2  and  C_3
REMARK    3  A    between atoms: C_3  and  C_5
REMARK    4  A    between atoms: N_7  and  C_8
REMARK    5  A    between atoms: C_14  and  C_15
REMARK    6  A    between atoms: C_16  and  C_17
REMARK    7  A    between atoms: C_17  and  O_19
REMARK    8  A    between atoms: O_19  and  C_20
REMARK                            x       y       z     vdW  Elec       q    Type
REMARK                         _______ _______ _______ _____ _____    ______ ____
ROOT
ATOM      1  C   UNL     1       6.030   4.779  17.600  0.00  0.00    +0.000 A 
ATOM      2  C   UNL     1       5.292   4.013  18.485  0.00  0.00    +0.000 A 
ATOM      3  N   UNL     1       4.054   4.587  18.694  0.00  0.00    +0.000 N 
ATOM      4  C   UNL     1       4.035   5.799  18.012  0.00  0.00    +0.000 A 
ATOM      5  C   UNL     1       2.972   6.845  18.146  0.00  0.00    +0.000 C 
ATOM      6  C   UNL     1       5.233   5.925  17.300  0.00  0.00    +0.000 A 
ENDROOT
BRANCH   3   7
ATOM      7  C   UNL     1       3.029   3.988  19.486  0.00  0.00    +0.000 A 
ATOM      8  C   UNL     1       1.957   3.335  18.854  0.00  0.00    +0.000 A 
ATOM      9  C   UNL     1       0.950   2.740  19.616  0.00  0.00    +0.000 A 
ATOM     10  C   UNL     1       0.994   2.804  21.007  0.00  0.00    +0.000 A 
ATOM     11  C   UNL     1       2.043   3.468  21.639  0.00  0.00    +0.000 A 
ATOM     12  C   UNL     1       3.056   4.065  20.882  0.00  0.00    +0.000 A 
ENDBRANCH   3   7
BRANCH   1  13
ATOM     13  C   UNL     1       7.349   4.426  17.084  0.00  0.00    +0.000 C 
ATOM     14  O   UNL     1       8.286   4.085  17.793  0.00  0.00    +0.000 OA
BRANCH  13  16
ATOM     15  C   UNL     1       6.426   3.759  15.037  0.00  0.00    +0.000 C 
ATOM     16  O   UNL     1       7.412   4.528  15.724  0.00  0.00    +0.000 OA
ENDBRANCH  13  16
ENDBRANCH   1  13
BRANCH   6  17
ATOM     17  C   UNL     1       5.579   7.076  16.466  0.00  0.00    +0.000 C 
ATOM     18  O   UNL     1       5.293   7.158  15.279  0.00  0.00    +0.000 OA
BRANCH  17  19
ATOM     19  O   UNL     1       6.194   8.067  17.172  0.00  0.00    +0.000 OA
ATOM     20  C   UNL     1       7.592   7.860  17.367  0.00  0.00    +0.000 C 
ENDBRANCH  17  19
ENDBRANCH   6  17
TORSDOF 5
ENDMDL
MODEL 8
REMARK VINA RESULT:      -6.8      1.527      2.209
REMARK  Name = 
REMARK  8 active torsions:
REMARK  status: ('A' for Active; 'I' for Inactive)
REMARK    1  A    between atoms: C_1  and  O_2
REMARK    2  A    between atoms: O_2  and  C_3
REMARK    3  A    between atoms: C_3  and  C_5
REMARK    4  A    between atoms: N_7  and  C_8
REMARK    5  A    between atoms: C_14  and  C_15
REMARK    6  A    between atoms: C_16  and  C_17
REMARK    7  A    between atoms: C_17  and  O_19
REMARK    8  A    between atoms: O_19  and  C_20
REMARK                            x       y       z     vdW  Elec       q    Type
REMARK                         _______ _______ _______ _____ _____    ______ ____
ROOT
ATOM      1  C   UNL     1       6.165   4.836  18.079  0.00  0.00    +0.000 A 
ATOM      2  C   UNL     1       5.318   4.105  18.891  0.00  0.00    +0.000 A 
ATOM      3  N   UNL     1       4.029   4.592  18.798  0.00  0.00    +0.000 N 
ATOM      4  C   UNL     1       4.068   5.723  17.991  0.00  0.00    +0.000 A 
ATOM      5  C   UNL     1       2.936   6.685  17.803  0.00  0.00    +0.000 C 
ATOM      6  C   UNL     1       5.372   5.877  17.506  0.00  0.00    +0.000 A 
ENDROOT
BRANCH   3   7
ATOM      7  C   UNL     1       2.909   3.991  19.447  0.00  0.00    +0.000 A 
ATOM      8  C   UNL     1       2.817   4.028  20.848  0.00  0.00    +0.000 A 
ATOM      9  C   UNL     1       1.725   3.449  21.496  0.00  0.00    +0.000 A 
ATOM     10  C   UNL     1       0.728   2.817  20.757  0.00  0.00    +0.000 A 
ATOM     11  C   UNL     1       0.823   2.757  19.369  0.00  0.00    +0.000 A 
ATOM     12  C   UNL     1       1.914   3.337  18.713  0.00  0.00    +0.000 A 
ENDBRANCH   3   7
BRANCH   1  13
ATOM     13  C   UNL     1       7.579   4.545  17.863  0.00  0.00    +0.000 C 
ATOM     14  O   UNL     1       8.043   4.193  16.787  0.00  0.00    +0.000 OA
BRANCH  13  16
ATOM     15  C   UNL     1       8.195   5.997  19.595  0.00  0.00    +0.000 C 
ATOM     16  O   UNL     1       8.316   4.706  19.002  0.00  0.00    +0.000 OA
ENDBRANCH  13  16
ENDBRANCH   1  13
BRANCH   6  17
ATOM     17  C   UNL     1       5.802   6.963  16.625  0.00  0.00    +0.000 C 
ATOM     18  O   UNL     1       6.560   7.857  16.980  0.00  0.00    +0.000 OA
BRANCH  17  19
ATOM     19  O   UNL     1       5.319   6.831  15.358  0.00  0.00    +0.000 OA
ATOM     20  C   UNL     1       5.545   5.546  14.780  0.00  0.00    +0.000 C 
ENDBRANCH  17  19
ENDBRANCH   6  17
TORSDOF 5
ENDMDL
MODEL 9
REMARK VINA RESULT:      -6.8      1.623      3.809
REMARK  Name = 
REMARK  8 active torsions:
REMARK  status: ('A' for Active; 'I' for Inactive)
REMARK    1  A    between atoms: C_1  and  O_2
REMARK    2  A    between atoms: O_2  and  C_3
REMARK    3  A    between atoms: C_3  and  C_5
REMARK    4  A    between atoms: N_7  and  C_8
REMARK    5  A    between atoms: C_14  and  C_15
REMARK    6  A    between atoms: C_16  and  C_17
REMARK    7  A    between atoms: C_17  and  O_19
REMARK    8  A    between atoms: O_19  and  C_20
REMARK                            x       y       z     vdW  Elec       q    Type
REMARK                         _______ _______ _______ _____ _____    ______ ____
ROOT
ATOM      1  C   UNL     1       5.904   4.731  15.871  0.00  0.00    +0.000 A 
ATOM      2  C   UNL     1       4.793   3.939  16.096  0.00  0.00    +0.000 A 
ATOM      3  N   UNL     1       4.318   4.137  17.377  0.00  0.00    +0.000 N 
ATOM      4  C   UNL     1       5.202   4.994  18.022  0.00  0.00    +0.000 A 
ATOM      5  C   UNL     1       5.188   5.301  19.487  0.00  0.00    +0.000 C 
ATOM      6  C   UNL     1       6.173   5.403  17.102  0.00  0.00    +0.000 A 
ENDROOT
BRANCH   3   7
ATOM      7  C   UNL     1       3.127   3.531  17.880  0.00  0.00    +0.000 A 
ATOM      8  C   UNL     1       3.188   2.244  18.440  0.00  0.00    +0.000 A 
ATOM      9  C   UNL     1       2.032   1.641  18.941  0.00  0.00    +0.000 A 
ATOM     10  C   UNL     1       0.810   2.306  18.873  0.00  0.00    +0.000 A 
ATOM     11  C   UNL     1       0.739   3.574  18.299  0.00  0.00    +0.000 A 
ATOM     12  C   UNL     1       1.894   4.185  17.798  0.00  0.00    +0.000 A 
ENDBRANCH   3   7
BRANCH   1  13
ATOM     13  C   UNL     1       6.611   4.842  14.598  0.00  0.00    +0.000 C 
ATOM     14  O   UNL     1       7.722   5.338  14.480  0.00  0.00    +0.000 OA
BRANCH  13  16
ATOM     15  C   UNL     1       6.665   3.675  12.567  0.00  0.00    +0.000 C 
ATOM     16  O   UNL     1       5.882   4.334  13.561  0.00  0.00    +0.000 OA
ENDBRANCH  13  16
ENDBRANCH   1  13
BRANCH   6  17
ATOM     17  C   UNL     1       7.280   6.307  17.417  0.00  0.00    +0.000 C 
ATOM     18  O   UNL     1       8.267   5.966  18.055  0.00  0.00    +0.000 OA
BRANCH  17  19
ATOM     19  O   UNL     1       7.117   7.543  16.868  0.00  0.00    +0.000 OA
ATOM     20  C   UNL     1       7.745   8.593  17.601  0.00  0.00    +0.000 C 
ENDBRANCH  17  19
ENDBRANCH   6  17
TORSDOF 5
ENDMDL
