MODEL 1
REMARK VINA RESULT:      -7.9      0.000      0.000
REMARK  Name = 
REMARK  2 active torsions:
REMARK  status: ('A' for Active; 'I' for Inactive)
REMARK    1  A    between atoms: C_4  and  C_5
REMARK    2  A    between atoms: C_15  and  O_16
REMARK                            x       y       z     vdW  Elec       q    Type
REMARK                         _______ _______ _______ _____ _____    ______ ____
ROOT
ATOM      1  O   UNL     1       7.515   6.113  18.437  0.00  0.00    +0.000 OA
ATOM      2  C   UNL     1       6.558   5.434  18.092  0.00  0.00    +0.000 A 
ATOM      3  C   UNL     1       5.498   5.076  19.048  0.00  0.00    +0.000 A 
ATOM      4  C   UNL     1       4.458   4.348  18.618  0.00  0.00    +0.000 A 
ATOM      5  O   UNL     1       4.280   3.905  17.321  0.00  0.00    +0.000 OA
ATOM      6  C   UNL     1       5.252   4.205  16.398  0.00  0.00    +0.000 A 
ATOM      7  C   UNL     1       5.057   3.747  15.093  0.00  0.00    +0.000 A 
ATOM      8  C   UNL     1       6.018   4.029  14.124  0.00  0.00    +0.000 A 
ATOM      9  C   UNL     1       7.170   4.745  14.440  0.00  0.00    +0.000 A 
ATOM     10  C   UNL     1       7.362   5.206  15.743  0.00  0.00    +0.000 A 
ATOM     11  C   UNL     1       6.396   4.938  16.718  0.00  0.00    +0.000 A 
ENDROOT
BRANCH   4  12
ATOM     12  C   UNL     1       3.394   3.956  19.546  0.00  0.00    +0.000 A 
ATOM     13  C   UNL     1       2.223   4.719  19.647  0.00  0.00    +0.000 A 
ATOM     14  C   UNL     1       1.222   4.354  20.552  0.00  0.00    +0.000 A 
ATOM     15  C   UNL     1       1.382   3.227  21.361  0.00  0.00    +0.000 A 
ATOM     16  C   UNL     1       2.543   2.463  21.265  0.00  0.00    +0.000 A 
ATOM     17  C   UNL     1       3.539   2.830  20.362  0.00  0.00    +0.000 A 
ATOM     18  F   UNL     1       4.651   2.084  20.294  0.00  0.00    +0.000 F 
ENDBRANCH   4  12
BRANCH   8  19
ATOM     19  O   UNL     1       5.867   3.615  12.834  0.00  0.00    +0.000 OA
ATOM     20  H   UNL     1       5.012   3.929  12.497  0.00  0.00    +0.000 HD
ENDBRANCH   8  19
TORSDOF 2
ENDMDL
MODEL 2
REMARK VINA RESULT:      -7.9      1.112      1.547
REMARK  Name = 
REMARK  2 active torsions:
REMARK  status: ('A' for Active; 'I' for Inactive)
REMARK    1  A    between atoms: C_4  and  C_5
REMARK    2  A    between atoms: C_15  and  O_16
REMARK                            x       y       z     vdW  Elec       q    Type
REMARK                         _______ _______ _______ _____ _____    ______ ____
ROOT
ATOM      1  O   UNL     1       7.314   6.229  18.654  0.00  0.00    +0.000 OA
ATOM      2  C   UNL     1       6.412   5.500  18.266  0.00  0.00    +0.000 A 
ATOM      3  C   UNL     1       5.330   5.083  19.173  0.00  0.00    +0.000 A 
ATOM      4  C   UNL     1       4.352   4.301  18.696  0.00  0.00    +0.000 A 
ATOM      5  O   UNL     1       4.257   3.851  17.392  0.00  0.00    +0.000 OA
ATOM      6  C   UNL     1       5.253   4.206  16.514  0.00  0.00    +0.000 A 
ATOM      7  C   UNL     1       5.143   3.742  15.202  0.00  0.00    +0.000 A 
ATOM      8  C   UNL     1       6.130   4.077  14.278  0.00  0.00    +0.000 A 
ATOM      9  C   UNL     1       7.226   4.854  14.646  0.00  0.00    +0.000 A 
ATOM     10  C   UNL     1       7.333   5.321  15.956  0.00  0.00    +0.000 A 
ATOM     11  C   UNL     1       6.340   4.999  16.886  0.00  0.00    +0.000 A 
ENDROOT
BRANCH   4  12
ATOM     12  C   UNL     1       3.269   3.849  19.574  0.00  0.00    +0.000 A 
ATOM     13  C   UNL     1       3.528   2.949  20.615  0.00  0.00    +0.000 A 
ATOM     14  C   UNL     1       2.485   2.503  21.434  0.00  0.00    +0.000 A 
ATOM     15  C   UNL     1       1.181   2.952  21.219  0.00  0.00    +0.000 A 
ATOM     16  C   UNL     1       0.917   3.849  20.187  0.00  0.00    +0.000 A 
ATOM     17  C   UNL     1       1.957   4.290  19.372  0.00  0.00    +0.000 A 
ATOM     18  F   UNL     1       1.677   5.147  18.379  0.00  0.00    +0.000 F 
ENDBRANCH   4  12
BRANCH   8  19
ATOM     19  O   UNL     1       6.061   3.660  12.982  0.00  0.00    +0.000 OA
ATOM     20  H   UNL     1       6.628   2.879  12.868  0.00  0.00    +0.000 HD
ENDBRANCH   8  19
TORSDOF 2
ENDMDL
MODEL 3
REMARK VINA RESULT:      -7.7      4.456      6.878
REMARK  Name = 
REMARK  2 active torsions:
REMARK  status: ('A' for Active; 'I' for Inactive)
REMARK    1  A    between atoms: C_4  and  C_5
REMARK    2  A    between atoms: C_15  and  O_16
REMARK                            x       y       z     vdW  Elec       q    Type
REMARK                         _______ _______ _______ _____ _____    ______ ____
ROOT
ATOM      1  O   UNL     1       1.911   9.878  17.363  0.00  0.00    +0.000 OA
ATOM      2  C   UNL     1       1.902   8.993  18.207  0.00  0.00    +0.000 A 
ATOM      3  C   UNL     1       2.372   7.635  17.887  0.00  0.00    +0.000 A 
ATOM      4  C   UNL     1       2.363   6.705  18.851  0.00  0.00    +0.000 A 
ATOM      5  O   UNL     1       1.955   6.913  20.155  0.00  0.00    +0.000 OA
ATOM      6  C   UNL     1       1.496   8.163  20.494  0.00  0.00    +0.000 A 
ATOM      7  C   UNL     1       1.086   8.356  21.815  0.00  0.00    +0.000 A 
ATOM      8  C   UNL     1       0.613   9.607  22.204  0.00  0.00    +0.000 A 
ATOM      9  C   UNL     1       0.532  10.660  21.294  0.00  0.00    +0.000 A 
ATOM     10  C   UNL     1       0.946  10.467  19.976  0.00  0.00    +0.000 A 
ATOM     11  C   UNL     1       1.433   9.217  19.582  0.00  0.00    +0.000 A 
ENDROOT
BRANCH   4  12
ATOM     12  C   UNL     1       2.805   5.337  18.564  0.00  0.00    +0.000 A 
ATOM     13  C   UNL     1       1.992   4.467  17.828  0.00  0.00    +0.000 A 
ATOM     14  C   UNL     1       2.409   3.155  17.579  0.00  0.00    +0.000 A 
ATOM     15  C   UNL     1       3.638   2.705  18.063  0.00  0.00    +0.000 A 
ATOM     16  C   UNL     1       4.454   3.565  18.795  0.00  0.00    +0.000 A 
ATOM     17  C   UNL     1       4.035   4.871  19.042  0.00  0.00    +0.000 A 
ATOM     18  F   UNL     1       4.833   5.678  19.756  0.00  0.00    +0.000 F 
ENDBRANCH   4  12
BRANCH   8  19
ATOM     19  O   UNL     1       0.214   9.849  23.484  0.00  0.00    +0.000 OA
ATOM     20  H   UNL     1       0.155   9.007  23.964  0.00  0.00    +0.000 HD
ENDBRANCH   8  19
TORSDOF 2
ENDMDL
MODEL 4
REMARK VINA RESULT:      -7.6      4.612      7.069
REMARK  Name = 
REMARK  2 active torsions:
REMARK  status: ('A' for Active; 'I' for Inactive)
REMARK    1  A    between atoms: C_4  and  C_5
REMARK    2  A    between atoms: C_15  and  O_16
REMARK                            x       y       z     vdW  Elec       q    Type
REMARK                         _______ _______ _______ _____ _____    ______ ____
ROOT
ATOM      1  O   UNL     1       1.838   9.959  17.398  0.00  0.00    +0.000 OA
ATOM      2  C   UNL     1       1.867   9.091  18.259  0.00  0.00    +0.000 A 
ATOM      3  C   UNL     1       2.424   7.759  17.975  0.00  0.00    +0.000 A 
ATOM      4  C   UNL     1       2.454   6.848  18.957  0.00  0.00    +0.000 A 
ATOM      5  O   UNL     1       2.011   7.056  20.249  0.00  0.00    +0.000 OA
ATOM      6  C   UNL     1       1.471   8.282  20.556  0.00  0.00    +0.000 A 
ATOM      7  C   UNL     1       1.026   8.474  21.865  0.00  0.00    +0.000 A 
ATOM      8  C   UNL     1       0.471   9.702  22.220  0.00  0.00    +0.000 A 
ATOM      9  C   UNL     1       0.343  10.730  21.288  0.00  0.00    +0.000 A 
ATOM     10  C   UNL     1       0.791  10.538  19.981  0.00  0.00    +0.000 A 
ATOM     11  C   UNL     1       1.361   9.313  19.621  0.00  0.00    +0.000 A 
ENDROOT
BRANCH   4  12
ATOM     12  C   UNL     1       2.984   5.504  18.705  0.00  0.00    +0.000 A 
ATOM     13  C   UNL     1       4.230   5.125  19.219  0.00  0.00    +0.000 A 
ATOM     14  C   UNL     1       4.741   3.850  18.955  0.00  0.00    +0.000 A 
ATOM     15  C   UNL     1       4.013   2.948  18.177  0.00  0.00    +0.000 A 
ATOM     16  C   UNL     1       2.771   3.318  17.665  0.00  0.00    +0.000 A 
ATOM     17  C   UNL     1       2.266   4.589  17.929  0.00  0.00    +0.000 A 
ATOM     18  F   UNL     1       1.072   4.925  17.418  0.00  0.00    +0.000 F 
ENDBRANCH   4  12
BRANCH   8  19
ATOM     19  O   UNL     1       0.035   9.944  23.489  0.00  0.00    +0.000 OA
ATOM     20  H   UNL     1      -0.869   9.601  23.585  0.00  0.00    +0.000 HD
ENDBRANCH   8  19
TORSDOF 2
ENDMDL
MODEL 5
REMARK VINA RESULT:      -7.6      3.279      4.324
REMARK  Name = 
REMARK  2 active torsions:
REMARK  status: ('A' for Active; 'I' for Inactive)
REMARK    1  A    between atoms: C_4  and  C_5
REMARK    2  A    between atoms: C_15  and  O_16
REMARK                            x       y       z     vdW  Elec       q    Type
REMARK                         _______ _______ _______ _____ _____    ______ ____
ROOT
ATOM      1  O   UNL     1       2.504   3.210  17.760  0.00  0.00    +0.000 OA
ATOM      2  C   UNL     1       2.944   4.347  17.660  0.00  0.00    +0.000 A 
ATOM      3  C   UNL     1       2.238   5.489  18.261  0.00  0.00    +0.000 A 
ATOM      4  C   UNL     1       2.771   6.713  18.143  0.00  0.00    +0.000 A 
ATOM      5  O   UNL     1       3.961   7.005  17.505  0.00  0.00    +0.000 OA
ATOM      6  C   UNL     1       4.648   5.970  16.917  0.00  0.00    +0.000 A 
ATOM      7  C   UNL     1       5.847   6.282  16.274  0.00  0.00    +0.000 A 
ATOM      8  C   UNL     1       6.576   5.263  15.665  0.00  0.00    +0.000 A 
ATOM      9  C   UNL     1       6.121   3.946  15.677  0.00  0.00    +0.000 A 
ATOM     10  C   UNL     1       4.925   3.635  16.323  0.00  0.00    +0.000 A 
ATOM     11  C   UNL     1       4.194   4.650  16.947  0.00  0.00    +0.000 A 
ENDROOT
BRANCH   4  12
ATOM     12  C   UNL     1       2.086   7.877  18.713  0.00  0.00    +0.000 A 
ATOM     13  C   UNL     1       1.822   9.003  17.922  0.00  0.00    +0.000 A 
ATOM     14  C   UNL     1       1.191  10.120  18.478  0.00  0.00    +0.000 A 
ATOM     15  C   UNL     1       0.819  10.121  19.823  0.00  0.00    +0.000 A 
ATOM     16  C   UNL     1       1.076   9.004  20.615  0.00  0.00    +0.000 A 
ATOM     17  C   UNL     1       1.706   7.893  20.059  0.00  0.00    +0.000 A 
ATOM     18  F   UNL     1       1.951   6.833  20.843  0.00  0.00    +0.000 F 
ENDBRANCH   4  12
BRANCH   8  19
ATOM     19  O   UNL     1       7.759   5.515  15.036  0.00  0.00    +0.000 OA
ATOM     20  H   UNL     1       8.351   4.754  15.155  0.00  0.00    +0.000 HD
ENDBRANCH   8  19
TORSDOF 2
ENDMDL
MODEL 6
REMARK VINA RESULT:      -7.6      3.507      4.598
REMARK  Name = 
REMARK  2 active torsions:
REMARK  status: ('A' for Active; 'I' for Inactive)
REMARK    1  A    between atoms: C_4  and  C_5
REMARK    2  A    between atoms: C_15  and  O_16
REMARK                            x       y       z     vdW  Elec       q    Type
REMARK                         _______ _______ _______ _____ _____    ______ ____
ROOT
ATOM      1  O   UNL     1       2.361   3.210  18.056  0.00  0.00    +0.000 OA
ATOM      2  C   UNL     1       2.804   4.348  17.989  0.00  0.00    +0.000 A 
ATOM      3  C   UNL     1       2.132   5.464  18.675  0.00  0.00    +0.000 A 
ATOM      4  C   UNL     1       2.667   6.690  18.591  0.00  0.00    +0.000 A 
ATOM      5  O   UNL     1       3.830   7.006  17.914  0.00  0.00    +0.000 OA
ATOM      6  C   UNL     1       4.483   5.997  17.249  0.00  0.00    +0.000 A 
ATOM      7  C   UNL     1       5.655   6.334  16.568  0.00  0.00    +0.000 A 
ATOM      8  C   UNL     1       6.350   5.342  15.880  0.00  0.00    +0.000 A 
ATOM      9  C   UNL     1       5.887   4.028  15.850  0.00  0.00    +0.000 A 
ATOM     10  C   UNL     1       4.719   3.691  16.534  0.00  0.00    +0.000 A 
ATOM     11  C   UNL     1       4.023   4.679  17.237  0.00  0.00    +0.000 A 
ENDROOT
BRANCH   4  12
ATOM     12  C   UNL     1       2.016   7.829  19.244  0.00  0.00    +0.000 A 
ATOM     13  C   UNL     1       1.706   7.783  20.609  0.00  0.00    +0.000 A 
ATOM     14  C   UNL     1       1.062   8.863  21.220  0.00  0.00    +0.000 A 
ATOM     15  C   UNL     1       0.723   9.994  20.475  0.00  0.00    +0.000 A 
ATOM     16  C   UNL     1       1.030  10.047  19.117  0.00  0.00    +0.000 A 
ATOM     17  C   UNL     1       1.671   8.969  18.511  0.00  0.00    +0.000 A 
ATOM     18  F   UNL     1       1.947   9.040  17.200  0.00  0.00    +0.000 F 
ENDBRANCH   4  12
BRANCH   8  19
ATOM     19  O   UNL     1       7.505   5.618  15.212  0.00  0.00    +0.000 OA
ATOM     20  H   UNL     1       7.289   5.932  14.319  0.00  0.00    +0.000 HD
ENDBRANCH   8  19
TORSDOF 2
ENDMDL
MODEL 7
REMARK VINA RESULT:      -7.5      2.741      6.365
REMARK  Name = 
REMARK  2 active torsions:
REMARK  status: ('A' for Active; 'I' for Inactive)
REMARK    1  A    between atoms: C_4  and  C_5
REMARK    2  A    between atoms: C_15  and  O_16
REMARK                            x       y       z     vdW  Elec       q    Type
REMARK                         _______ _______ _______ _____ _____    ______ ____
ROOT
ATOM      1  O   UNL     1       2.205   3.284  16.348  0.00  0.00    +0.000 OA
ATOM      2  C   UNL     1       2.801   3.681  17.339  0.00  0.00    +0.000 A 
ATOM      3  C   UNL     1       4.002   4.522  17.217  0.00  0.00    +0.000 A 
ATOM      4  C   UNL     1       4.608   4.950  18.333  0.00  0.00    +0.000 A 
ATOM      5  O   UNL     1       4.188   4.678  19.621  0.00  0.00    +0.000 OA
ATOM      6  C   UNL     1       3.077   3.886  19.783  0.00  0.00    +0.000 A 
ATOM      7  C   UNL     1       2.667   3.619  21.091  0.00  0.00    +0.000 A 
ATOM      8  C   UNL     1       1.546   2.820  21.301  0.00  0.00    +0.000 A 
ATOM      9  C   UNL     1       0.839   2.275  20.232  0.00  0.00    +0.000 A 
ATOM     10  C   UNL     1       1.247   2.545  18.925  0.00  0.00    +0.000 A 
ATOM     11  C   UNL     1       2.364   3.357  18.706  0.00  0.00    +0.000 A 
ENDROOT
BRANCH   4  12
ATOM     12  C   UNL     1       5.818   5.773  18.250  0.00  0.00    +0.000 A 
ATOM     13  C   UNL     1       6.902   5.530  19.102  0.00  0.00    +0.000 A 
ATOM     14  C   UNL     1       8.044   6.335  19.035  0.00  0.00    +0.000 A 
ATOM     15  C   UNL     1       8.111   7.385  18.118  0.00  0.00    +0.000 A 
ATOM     16  C   UNL     1       7.038   7.631  17.265  0.00  0.00    +0.000 A 
ATOM     17  C   UNL     1       5.901   6.828  17.335  0.00  0.00    +0.000 A 
ATOM     18  F   UNL     1       4.877   7.090  16.510  0.00  0.00    +0.000 F 
ENDBRANCH   4  12
BRANCH   8  19
ATOM     19  O   UNL     1       1.099   2.542  22.559  0.00  0.00    +0.000 OA
ATOM     20  H   UNL     1       0.144   2.715  22.602  0.00  0.00    +0.000 HD
ENDBRANCH   8  19
TORSDOF 2
ENDMDL
MODEL 8
REMARK VINA RESULT:      -7.4      4.676      7.108
REMARK  Name = 
REMARK  2 active torsions:
REMARK  status: ('A' for Active; 'I' for Inactive)
REMARK    1  A    between atoms: C_4  and  C_5
REMARK    2  A    between atoms: C_15  and  O_16
REMARK                            x       y       z     vdW  Elec       q    Type
REMARK                         _______ _______ _______ _____ _____    ______ ____
ROOT
ATOM      1  O   UNL     1       1.837   9.548  17.449  0.00  0.00    +0.000 OA
ATOM      2  C   UNL     1       1.800   8.869  18.466  0.00  0.00    +0.000 A 
ATOM      3  C   UNL     1       2.379   7.517  18.497  0.00  0.00    +0.000 A 
ATOM      4  C   UNL     1       2.333   6.820  19.640  0.00  0.00    +0.000 A 
ATOM      5  O   UNL     1       1.791   7.274  20.828  0.00  0.00    +0.000 OA
ATOM      6  C   UNL     1       1.227   8.527  20.841  0.00  0.00    +0.000 A 
ATOM      7  C   UNL     1       0.681   8.969  22.048  0.00  0.00    +0.000 A 
ATOM      8  C   UNL     1       0.099  10.234  22.107  0.00  0.00    +0.000 A 
ATOM      9  C   UNL     1       0.043  11.053  20.982  0.00  0.00    +0.000 A 
ATOM     10  C   UNL     1       0.592  10.612  19.777  0.00  0.00    +0.000 A 
ATOM     11  C   UNL     1       1.189   9.349  19.714  0.00  0.00    +0.000 A 
ENDROOT
BRANCH   4  12
ATOM     12  C   UNL     1       2.883   5.463  19.703  0.00  0.00    +0.000 A 
ATOM     13  C   UNL     1       4.203   5.212  19.309  0.00  0.00    +0.000 A 
ATOM     14  C   UNL     1       4.713   3.910  19.348  0.00  0.00    +0.000 A 
ATOM     15  C   UNL     1       3.910   2.853  19.780  0.00  0.00    +0.000 A 
ATOM     16  C   UNL     1       2.596   3.095  20.176  0.00  0.00    +0.000 A 
ATOM     17  C   UNL     1       2.091   4.393  20.135  0.00  0.00    +0.000 A 
ATOM     18  F   UNL     1       0.821   4.600  20.512  0.00  0.00    +0.000 F 
ENDBRANCH   4  12
BRANCH   8  19
ATOM     19  O   UNL     1      -0.435  10.716  23.265  0.00  0.00    +0.000 OA
ATOM     20  H   UNL     1      -1.335  10.368  23.369  0.00  0.00    +0.000 HD
ENDBRANCH   8  19
TORSDOF 2
ENDMDL
MODEL 9
REMARK VINA RESULT:      -7.3      4.942      7.710
REMARK  Name = 
REMARK  2 active torsions:
REMARK  status: ('A' for Active; 'I' for Inactive)
REMARK    1  A    between atoms: C_4  and  C_5
REMARK    2  A    between atoms: C_15  and  O_16
REMARK                            x       y       z     vdW  Elec       q    Type
REMARK                         _______ _______ _______ _____ _____    ______ ____
ROOT
ATOM      1  O   UNL     1       0.148  10.534  17.711  0.00  0.00    +0.000 OA
ATOM      2  C   UNL     1       0.713   9.694  18.398  0.00  0.00    +0.000 A 
ATOM      3  C   UNL     1       1.591   8.682  17.790  0.00  0.00    +0.000 A 
ATOM      4  C   UNL     1       2.205   7.796  18.587  0.00  0.00    +0.000 A 
ATOM      5  O   UNL     1       2.096   7.756  19.965  0.00  0.00    +0.000 OA
ATOM      6  C   UNL     1       1.276   8.675  20.573  0.00  0.00    +0.000 A 
ATOM      7  C   UNL     1       1.176   8.619  21.965  0.00  0.00    +0.000 A 
ATOM      8  C   UNL     1       0.356   9.532  22.624  0.00  0.00    +0.000 A 
ATOM      9  C   UNL     1      -0.372  10.486  21.917  0.00  0.00    +0.000 A 
ATOM     10  C   UNL     1      -0.269  10.544  20.527  0.00  0.00    +0.000 A 
ATOM     11  C   UNL     1       0.563   9.639  19.860  0.00  0.00    +0.000 A 
ENDROOT
BRANCH   4  12
ATOM     12  C   UNL     1       3.071   6.762  18.016  0.00  0.00    +0.000 A 
ATOM     13  C   UNL     1       4.263   7.111  17.369  0.00  0.00    +0.000 A 
ATOM     14  C   UNL     1       5.073   6.121  16.804  0.00  0.00    +0.000 A 
ATOM     15  C   UNL     1       4.699   4.778  16.880  0.00  0.00    +0.000 A 
ATOM     16  C   UNL     1       3.516   4.423  17.525  0.00  0.00    +0.000 A 
ATOM     17  C   UNL     1       2.711   5.412  18.085  0.00  0.00    +0.000 A 
ATOM     18  F   UNL     1       1.572   5.046  18.692  0.00  0.00    +0.000 F 
ENDBRANCH   4  12
BRANCH   8  19
ATOM     19  O   UNL     1       0.235   9.526  23.982  0.00  0.00    +0.000 OA
ATOM     20  H   UNL     1       0.722   8.767  24.342  0.00  0.00    +0.000 HD
ENDBRANCH   8  19
TORSDOF 2
ENDMDL
