MODEL 1
REMARK VINA RESULT:      -8.0      0.000      0.000
REMARK  Name = 
REMARK  5 active torsions:
REMARK  status: ('A' for Active; 'I' for Inactive)
REMARK    1  A    between atoms: N_1  and  C_2
REMARK    2  A    between atoms: C_3  and  O_4
REMARK    3  A    between atoms: C_9  and  C_10
REMARK    4  A    between atoms: C_16  and  C_17
REMARK    5  A    between atoms: C_23  and  O_24
REMARK                            x       y       z     vdW  Elec       q    Type
REMARK                         _______ _______ _______ _____ _____    ______ ____
ROOT
ATOM      1  C   UNL     1       2.344   4.070  18.041  0.00  0.00    +0.000 A 
ATOM      2  C   UNL     1       3.018   2.986  17.455  0.00  0.00    +0.000 A 
ATOM      3  N   UNL     1       4.280   2.979  17.027  0.00  0.00    +0.000 NA
ATOM      4  C   UNL     1       4.989   4.081  17.241  0.00  0.00    +0.000 A 
ATOM      5  C   UNL     1       6.279   4.075  16.725  0.00  0.00    +0.000 A 
ATOM      6  C   UNL     1       7.134   5.174  16.841  0.00  0.00    +0.000 A 
ATOM      7  C   UNL     1       6.714   6.292  17.560  0.00  0.00    +0.000 A 
ATOM      8  C   UNL     1       5.441   6.268  18.146  0.00  0.00    +0.000 A 
ATOM      9  C   UNL     1       4.500   5.215  17.939  0.00  0.00    +0.000 A 
ATOM     10  C   UNL     1       3.100   5.225  18.347  0.00  0.00    +0.000 A 
ENDROOT
BRANCH  10  11
ATOM     11  C   UNL     1       2.478   6.458  18.977  0.00  0.00    +0.000 A 
ATOM     12  C   UNL     1       2.302   7.635  18.213  0.00  0.00    +0.000 A 
ATOM     13  C   UNL     1       1.851   8.832  18.778  0.00  0.00    +0.000 A 
ATOM     14 CL   UNL     1       1.857  10.275  17.840  0.00  0.00    +0.000 Cl
ATOM     15  C   UNL     1       1.434   8.874  20.100  0.00  0.00    +0.000 A 
ATOM     16  C   UNL     1       1.501   7.717  20.865  0.00  0.00    +0.000 A 
ATOM     17  C   UNL     1       2.044   6.544  20.320  0.00  0.00    +0.000 A 
BRANCH  17  18
ATOM     18  O   UNL     1       2.135   5.454  21.142  0.00  0.00    +0.000 OA
ATOM     19  H   UNL     1       2.232   5.737  22.067  0.00  0.00    +0.000 HD
ENDBRANCH  17  18
ENDBRANCH  10  11
BRANCH   7  20
ATOM     20  C   UNL     1       7.567   7.534  17.648  0.00  0.00    +0.000 C 
ATOM     21  F   UNL     1       6.855   8.683  17.801  0.00  0.00    +0.000 F 
ATOM     22  F   UNL     1       8.424   7.485  18.709  0.00  0.00    +0.000 F 
ATOM     23  F   UNL     1       8.346   7.712  16.548  0.00  0.00    +0.000 F 
ENDBRANCH   7  20
BRANCH   1  24
ATOM     24  N   UNL     1       0.969   3.880  18.334  0.00  0.00    +0.000 N 
ATOM     25  H   UNL     1       0.370   4.534  17.836  0.00  0.00    +0.000 HD
ATOM     26  H   UNL     1       0.787   3.882  19.334  0.00  0.00    +0.000 HD
ENDBRANCH   1  24
BRANCH   2  27
ATOM     27  O   UNL     1       2.349   1.794  17.332  0.00  0.00    +0.000 OA
ATOM     28  H   UNL     1       2.929   1.173  17.807  0.00  0.00    +0.000 HD
ENDBRANCH   2  27
TORSDOF 5
ENDMDL
MODEL 2
REMARK VINA RESULT:      -7.9      3.114      5.464
REMARK  Name = 
REMARK  5 active torsions:
REMARK  status: ('A' for Active; 'I' for Inactive)
REMARK    1  A    between atoms: N_1  and  C_2
REMARK    2  A    between atoms: C_3  and  O_4
REMARK    3  A    between atoms: C_9  and  C_10
REMARK    4  A    between atoms: C_16  and  C_17
REMARK    5  A    between atoms: C_23  and  O_24
REMARK                            x       y       z     vdW  Elec       q    Type
REMARK                         _______ _______ _______ _____ _____    ______ ____
ROOT
ATOM      1  C   UNL     1       4.069   3.290  20.134  0.00  0.00    +0.000 A 
ATOM      2  C   UNL     1       3.049   3.231  21.098  0.00  0.00    +0.000 A 
ATOM      3  N   UNL     1       2.158   4.185  21.363  0.00  0.00    +0.000 NA
ATOM      4  C   UNL     1       2.192   5.265  20.592  0.00  0.00    +0.000 A 
ATOM      5  C   UNL     1       1.299   6.274  20.931  0.00  0.00    +0.000 A 
ATOM      6  C   UNL     1       1.241   7.485  20.235  0.00  0.00    +0.000 A 
ATOM      7  C   UNL     1       2.051   7.667  19.115  0.00  0.00    +0.000 A 
ATOM      8  C   UNL     1       2.897   6.618  18.727  0.00  0.00    +0.000 A 
ATOM      9  C   UNL     1       3.070   5.424  19.489  0.00  0.00    +0.000 A 
ATOM     10  C   UNL     1       4.076   4.396  19.253  0.00  0.00    +0.000 A 
ENDROOT
BRANCH  10  11
ATOM     11  C   UNL     1       5.131   4.566  18.175  0.00  0.00    +0.000 A 
ATOM     12  C   UNL     1       4.802   4.342  16.818  0.00  0.00    +0.000 A 
ATOM     13  C   UNL     1       5.764   4.363  15.803  0.00  0.00    +0.000 A 
ATOM     14 CL   UNL     1       5.334   3.880  14.207  0.00  0.00    +0.000 Cl
ATOM     15  C   UNL     1       7.072   4.733  16.078  0.00  0.00    +0.000 A 
ATOM     16  C   UNL     1       7.420   5.053  17.385  0.00  0.00    +0.000 A 
ATOM     17  C   UNL     1       6.474   4.938  18.413  0.00  0.00    +0.000 A 
BRANCH  17  18
ATOM     18  O   UNL     1       6.895   5.212  19.686  0.00  0.00    +0.000 OA
ATOM     19  H   UNL     1       7.688   4.692  19.897  0.00  0.00    +0.000 HD
ENDBRANCH  17  18
ENDBRANCH  10  11
BRANCH   7  20
ATOM     20  C   UNL     1       2.084   8.982  18.376  0.00  0.00    +0.000 C 
ATOM     21  F   UNL     1       3.303   9.296  17.860  0.00  0.00    +0.000 F 
ATOM     22  F   UNL     1       1.221   8.989  17.318  0.00  0.00    +0.000 F 
ATOM     23  F   UNL     1       1.720  10.031  19.160  0.00  0.00    +0.000 F 
ENDBRANCH   7  20
BRANCH   1  24
ATOM     24  N   UNL     1       4.965   2.191  20.090  0.00  0.00    +0.000 N 
ATOM     25  H   UNL     1       5.291   1.917  21.014  0.00  0.00    +0.000 HD
ATOM     26  H   UNL     1       5.736   2.351  19.447  0.00  0.00    +0.000 HD
ENDBRANCH   1  24
BRANCH   2  27
ATOM     27  O   UNL     1       2.910   2.077  21.828  0.00  0.00    +0.000 OA
ATOM     28  H   UNL     1       1.966   2.087  22.065  0.00  0.00    +0.000 HD
ENDBRANCH   2  27
TORSDOF 5
ENDMDL
MODEL 3
REMARK VINA RESULT:      -7.4      2.859      5.435
REMARK  Name = 
REMARK  5 active torsions:
REMARK  status: ('A' for Active; 'I' for Inactive)
REMARK    1  A    between atoms: N_1  and  C_2
REMARK    2  A    between atoms: C_3  and  O_4
REMARK    3  A    between atoms: C_9  and  C_10
REMARK    4  A    between atoms: C_16  and  C_17
REMARK    5  A    between atoms: C_23  and  O_24
REMARK                            x       y       z     vdW  Elec       q    Type
REMARK                         _______ _______ _______ _____ _____    ______ ____
ROOT
ATOM      1  C   UNL     1       3.917   3.657  20.001  0.00  0.00    +0.000 A 
ATOM      2  C   UNL     1       2.989   3.564  21.050  0.00  0.00    +0.000 A 
ATOM      3  N   UNL     1       2.111   4.499  21.413  0.00  0.00    +0.000 NA
ATOM      4  C   UNL     1       2.060   5.593  20.663  0.00  0.00    +0.000 A 
ATOM      5  C   UNL     1       1.186   6.581  21.100  0.00  0.00    +0.000 A 
ATOM      6  C   UNL     1       1.048   7.802  20.435  0.00  0.00    +0.000 A 
ATOM      7  C   UNL     1       1.752   8.018  19.251  0.00  0.00    +0.000 A 
ATOM      8  C   UNL     1       2.575   6.990  18.768  0.00  0.00    +0.000 A 
ATOM      9  C   UNL     1       2.834   5.786  19.489  0.00  0.00    +0.000 A 
ATOM     10  C   UNL     1       3.829   4.779  19.144  0.00  0.00    +0.000 A 
ENDROOT
BRANCH  10  11
ATOM     11  C   UNL     1       4.781   4.986  17.980  0.00  0.00    +0.000 A 
ATOM     12  C   UNL     1       5.862   5.890  18.099  0.00  0.00    +0.000 A 
ATOM     13  C   UNL     1       6.690   6.210  17.018  0.00  0.00    +0.000 A 
ATOM     14 CL   UNL     1       7.854   7.469  17.176  0.00  0.00    +0.000 Cl
ATOM     15  C   UNL     1       6.558   5.546  15.807  0.00  0.00    +0.000 A 
ATOM     16  C   UNL     1       5.567   4.581  15.673  0.00  0.00    +0.000 A 
ATOM     17  C   UNL     1       4.679   4.333  16.730  0.00  0.00    +0.000 A 
BRANCH  17  18
ATOM     18  O   UNL     1       3.691   3.412  16.515  0.00  0.00    +0.000 OA
ATOM     19  H   UNL     1       3.526   3.311  15.563  0.00  0.00    +0.000 HD
ENDBRANCH  17  18
ENDBRANCH  10  11
BRANCH   7  20
ATOM     20  C   UNL     1       1.699   9.347  18.538  0.00  0.00    +0.000 C 
ATOM     21  F   UNL     1       2.842   9.661  17.870  0.00  0.00    +0.000 F 
ATOM     22  F   UNL     1       0.704   9.381  17.604  0.00  0.00    +0.000 F 
ATOM     23  F   UNL     1       1.453  10.383  19.382  0.00  0.00    +0.000 F 
ENDBRANCH   7  20
BRANCH   1  24
ATOM     24  N   UNL     1       4.822   2.574  19.856  0.00  0.00    +0.000 N 
ATOM     25  H   UNL     1       5.031   2.368  18.883  0.00  0.00    +0.000 HD
ATOM     26  H   UNL     1       4.516   1.748  20.363  0.00  0.00    +0.000 HD
ENDBRANCH   1  24
BRANCH   2  27
ATOM     27  O   UNL     1       2.932   2.395  21.767  0.00  0.00    +0.000 OA
ATOM     28  H   UNL     1       2.433   1.805  21.175  0.00  0.00    +0.000 HD
ENDBRANCH   2  27
TORSDOF 5
ENDMDL
MODEL 4
REMARK VINA RESULT:      -7.0      1.547      1.983
REMARK  Name = 
REMARK  5 active torsions:
REMARK  status: ('A' for Active; 'I' for Inactive)
REMARK    1  A    between atoms: N_1  and  C_2
REMARK    2  A    between atoms: C_3  and  O_4
REMARK    3  A    between atoms: C_9  and  C_10
REMARK    4  A    between atoms: C_16  and  C_17
REMARK    5  A    between atoms: C_23  and  O_24
REMARK                            x       y       z     vdW  Elec       q    Type
REMARK                         _______ _______ _______ _____ _____    ______ ____
ROOT
ATOM      1  C   UNL     1       2.506   4.535  17.963  0.00  0.00    +0.000 A 
ATOM      2  C   UNL     1       3.206   3.386  17.560  0.00  0.00    +0.000 A 
ATOM      3  N   UNL     1       4.504   3.314  17.267  0.00  0.00    +0.000 NA
ATOM      4  C   UNL     1       5.218   4.419  17.445  0.00  0.00    +0.000 A 
ATOM      5  C   UNL     1       6.553   4.338  17.069  0.00  0.00    +0.000 A 
ATOM      6  C   UNL     1       7.422   5.428  17.164  0.00  0.00    +0.000 A 
ATOM      7  C   UNL     1       6.963   6.621  17.722  0.00  0.00    +0.000 A 
ATOM      8  C   UNL     1       5.636   6.677  18.173  0.00  0.00    +0.000 A 
ATOM      9  C   UNL     1       4.693   5.626  17.974  0.00  0.00    +0.000 A 
ATOM     10  C   UNL     1       3.259   5.702  18.231  0.00  0.00    +0.000 A 
ENDROOT
BRANCH  10  11
ATOM     11  C   UNL     1       2.610   7.002  18.669  0.00  0.00    +0.000 A 
ATOM     12  C   UNL     1       2.102   7.135  19.983  0.00  0.00    +0.000 A 
ATOM     13  C   UNL     1       1.386   8.262  20.396  0.00  0.00    +0.000 A 
ATOM     14 CL   UNL     1       0.619   8.271  21.937  0.00  0.00    +0.000 Cl
ATOM     15  C   UNL     1       1.256   9.361  19.559  0.00  0.00    +0.000 A 
ATOM     16  C   UNL     1       1.821   9.312  18.290  0.00  0.00    +0.000 A 
ATOM     17  C   UNL     1       2.455   8.142  17.847  0.00  0.00    +0.000 A 
BRANCH  17  18
ATOM     18  O   UNL     1       2.940   8.138  16.568  0.00  0.00    +0.000 OA
ATOM     19  H   UNL     1       3.593   7.427  16.459  0.00  0.00    +0.000 HD
ENDBRANCH  17  18
ENDBRANCH  10  11
BRANCH   7  20
ATOM     20  C   UNL     1       7.836   7.849  17.775  0.00  0.00    +0.000 C 
ATOM     21  F   UNL     1       8.713   7.860  18.816  0.00  0.00    +0.000 F 
ATOM     22  F   UNL     1       8.597   7.979  16.650  0.00  0.00    +0.000 F 
ATOM     23  F   UNL     1       7.116   8.999  17.872  0.00  0.00    +0.000 F 
ENDBRANCH   7  20
BRANCH   1  24
ATOM     24  N   UNL     1       1.104   4.400  18.129  0.00  0.00    +0.000 N 
ATOM     25  H   UNL     1       0.728   5.050  18.814  0.00  0.00    +0.000 HD
ATOM     26  H   UNL     1       0.833   3.440  18.327  0.00  0.00    +0.000 HD
ENDBRANCH   1  24
BRANCH   2  27
ATOM     27  O   UNL     1       2.519   2.200  17.486  0.00  0.00    +0.000 OA
ATOM     28  H   UNL     1       2.182   2.091  18.393  0.00  0.00    +0.000 HD
ENDBRANCH   2  27
TORSDOF 5
ENDMDL
MODEL 5
REMARK VINA RESULT:      -6.5      2.989      5.387
REMARK  Name = 
REMARK  5 active torsions:
REMARK  status: ('A' for Active; 'I' for Inactive)
REMARK    1  A    between atoms: N_1  and  C_2
REMARK    2  A    between atoms: C_3  and  O_4
REMARK    3  A    between atoms: C_9  and  C_10
REMARK    4  A    between atoms: C_16  and  C_17
REMARK    5  A    between atoms: C_23  and  O_24
REMARK                            x       y       z     vdW  Elec       q    Type
REMARK                         _______ _______ _______ _____ _____    ______ ____
ROOT
ATOM      1  C   UNL     1       3.569   2.213  18.353  0.00  0.00    +0.000 A 
ATOM      2  C   UNL     1       2.477   1.956  19.198  0.00  0.00    +0.000 A 
ATOM      3  N   UNL     1       1.662   2.864  19.733  0.00  0.00    +0.000 NA
ATOM      4  C   UNL     1       1.857   4.127  19.374  0.00  0.00    +0.000 A 
ATOM      5  C   UNL     1       1.040   5.063  19.997  0.00  0.00    +0.000 A 
ATOM      6  C   UNL     1       1.150   6.433  19.748  0.00  0.00    +0.000 A 
ATOM      7  C   UNL     1       2.058   6.882  18.790  0.00  0.00    +0.000 A 
ATOM      8  C   UNL     1       2.828   5.931  18.105  0.00  0.00    +0.000 A 
ATOM      9  C   UNL     1       2.829   4.541  18.426  0.00  0.00    +0.000 A 
ATOM     10  C   UNL     1       3.748   3.540  17.898  0.00  0.00    +0.000 A 
ENDROOT
BRANCH  10  11
ATOM     11  C   UNL     1       4.895   3.936  16.985  0.00  0.00    +0.000 A 
ATOM     12  C   UNL     1       4.741   3.863  15.581  0.00  0.00    +0.000 A 
ATOM     13  C   UNL     1       5.803   4.095  14.700  0.00  0.00    +0.000 A 
ATOM     14 CL   UNL     1       5.602   3.789  13.019  0.00  0.00    +0.000 Cl
ATOM     15  C   UNL     1       7.030   4.534  15.176  0.00  0.00    +0.000 A 
ATOM     16  C   UNL     1       7.199   4.709  16.544  0.00  0.00    +0.000 A 
ATOM     17  C   UNL     1       6.160   4.384  17.428  0.00  0.00    +0.000 A 
BRANCH  17  18
ATOM     18  O   UNL     1       6.409   4.525  18.766  0.00  0.00    +0.000 OA
ATOM     19  H   UNL     1       6.639   5.446  18.970  0.00  0.00    +0.000 HD
ENDBRANCH  17  18
ENDBRANCH  10  11
BRANCH   7  20
ATOM     20  C   UNL     1       2.272   8.355  18.540  0.00  0.00    +0.000 C 
ATOM     21  F   UNL     1       3.514   8.663  18.079  0.00  0.00    +0.000 F 
ATOM     22  F   UNL     1       1.400   8.842  17.609  0.00  0.00    +0.000 F 
ATOM     23  F   UNL     1       2.082   9.107  19.657  0.00  0.00    +0.000 F 
ENDBRANCH   7  20
BRANCH   1  24
ATOM     24  N   UNL     1       4.358   1.097  17.978  0.00  0.00    +0.000 N 
ATOM     25  H   UNL     1       4.268   0.320  18.627  0.00  0.00    +0.000 HD
ATOM     26  H   UNL     1       5.330   1.350  17.820  0.00  0.00    +0.000 HD
ENDBRANCH   1  24
BRANCH   2  27
ATOM     27  O   UNL     1       2.173   0.650  19.489  0.00  0.00    +0.000 OA
ATOM     28  H   UNL     1       2.928   0.166  19.110  0.00  0.00    +0.000 HD
ENDBRANCH   2  27
TORSDOF 5
ENDMDL
MODEL 6
REMARK VINA RESULT:      -6.5      8.563     10.954
REMARK  Name = 
REMARK  5 active torsions:
REMARK  status: ('A' for Active; 'I' for Inactive)
REMARK    1  A    between atoms: N_1  and  C_2
REMARK    2  A    between atoms: C_3  and  O_4
REMARK    3  A    between atoms: C_9  and  C_10
REMARK    4  A    between atoms: C_16  and  C_17
REMARK    5  A    between atoms: C_23  and  O_24
REMARK                            x       y       z     vdW  Elec       q    Type
REMARK                         _______ _______ _______ _____ _____    ______ ____
ROOT
ATOM      1  C   UNL     1      -2.970  11.174  17.274  0.00  0.00    +0.000 A 
ATOM      2  C   UNL     1      -4.308  11.116  16.853  0.00  0.00    +0.000 A 
ATOM      3  N   UNL     1      -5.382  11.377  17.597  0.00  0.00    +0.000 NA
ATOM      4  C   UNL     1      -5.161  11.803  18.835  0.00  0.00    +0.000 A 
ATOM      5  C   UNL     1      -6.295  12.003  19.613  0.00  0.00    +0.000 A 
ATOM      6  C   UNL     1      -6.222  12.417  20.946  0.00  0.00    +0.000 A 
ATOM      7  C   UNL     1      -4.978  12.713  21.501  0.00  0.00    +0.000 A 
ATOM      8  C   UNL     1      -3.840  12.585  20.692  0.00  0.00    +0.000 A 
ATOM      9  C   UNL     1      -3.870  12.045  19.371  0.00  0.00    +0.000 A 
ATOM     10  C   UNL     1      -2.709  11.697  18.561  0.00  0.00    +0.000 A 
ENDROOT
BRANCH  10  11
ATOM     11  C   UNL     1      -1.303  11.804  19.123  0.00  0.00    +0.000 A 
ATOM     12  C   UNL     1      -0.782  10.769  19.935  0.00  0.00    +0.000 A 
ATOM     13  C   UNL     1       0.456  10.876  20.578  0.00  0.00    +0.000 A 
ATOM     14 CL   UNL     1       0.936   9.674  21.712  0.00  0.00    +0.000 Cl
ATOM     15  C   UNL     1       1.284  11.962  20.337  0.00  0.00    +0.000 A 
ATOM     16  C   UNL     1       0.853  12.959  19.471  0.00  0.00    +0.000 A 
ATOM     17  C   UNL     1      -0.429  12.894  18.905  0.00  0.00    +0.000 A 
BRANCH  17  18
ATOM     18  O   UNL     1      -0.816  13.935  18.107  0.00  0.00    +0.000 OA
ATOM     19  H   UNL     1      -1.601  13.689  17.590  0.00  0.00    +0.000 HD
ENDBRANCH  17  18
ENDBRANCH  10  11
BRANCH   7  20
ATOM     20  C   UNL     1      -4.837  13.087  22.956  0.00  0.00    +0.000 C 
ATOM     21  F   UNL     1      -3.867  12.395  23.613  0.00  0.00    +0.000 F 
ATOM     22  F   UNL     1      -4.520  14.405  23.111  0.00  0.00    +0.000 F 
ATOM     23  F   UNL     1      -5.985  12.895  23.658  0.00  0.00    +0.000 F 
ENDBRANCH   7  20
BRANCH   1  24
ATOM     24  N   UNL     1      -1.990  10.760  16.335  0.00  0.00    +0.000 N 
ATOM     25  H   UNL     1      -2.066  11.253  15.449  0.00  0.00    +0.000 HD
ATOM     26  H   UNL     1      -1.982   9.751  16.210  0.00  0.00    +0.000 HD
ENDBRANCH   1  24
BRANCH   2  27
ATOM     27  O   UNL     1      -4.565  10.798  15.542  0.00  0.00    +0.000 OA
ATOM     28  H   UNL     1      -3.897  11.319  15.061  0.00  0.00    +0.000 HD
ENDBRANCH   2  27
TORSDOF 5
ENDMDL
MODEL 7
REMARK VINA RESULT:      -6.4      8.042     10.850
REMARK  Name = 
REMARK  5 active torsions:
REMARK  status: ('A' for Active; 'I' for Inactive)
REMARK    1  A    between atoms: N_1  and  C_2
REMARK    2  A    between atoms: C_3  and  O_4
REMARK    3  A    between atoms: C_9  and  C_10
REMARK    4  A    between atoms: C_16  and  C_17
REMARK    5  A    between atoms: C_23  and  O_24
REMARK                            x       y       z     vdW  Elec       q    Type
REMARK                         _______ _______ _______ _____ _____    ______ ____
ROOT
ATOM      1  C   UNL     1      -3.565  11.615  17.561  0.00  0.00    +0.000 A 
ATOM      2  C   UNL     1      -4.958  11.798  17.580  0.00  0.00    +0.000 A 
ATOM      3  N   UNL     1      -5.698  12.109  18.643  0.00  0.00    +0.000 NA
ATOM      4  C   UNL     1      -5.048  12.339  19.777  0.00  0.00    +0.000 A 
ATOM      5  C   UNL     1      -5.845  12.595  20.886  0.00  0.00    +0.000 A 
ATOM      6  C   UNL     1      -5.307  12.822  22.156  0.00  0.00    +0.000 A 
ATOM      7  C   UNL     1      -3.922  12.869  22.312  0.00  0.00    +0.000 A 
ATOM      8  C   UNL     1      -3.118  12.688  21.177  0.00  0.00    +0.000 A 
ATOM      9  C   UNL     1      -3.634  12.329  19.896  0.00  0.00    +0.000 A 
ATOM     10  C   UNL     1      -2.846  11.929  18.737  0.00  0.00    +0.000 A 
ENDROOT
BRANCH  10  11
ATOM     11  C   UNL     1      -1.339  11.767  18.833  0.00  0.00    +0.000 A 
ATOM     12  C   UNL     1      -0.783  10.530  19.234  0.00  0.00    +0.000 A 
ATOM     13  C   UNL     1       0.588  10.366  19.459  0.00  0.00    +0.000 A 
ATOM     14 CL   UNL     1       1.173   8.899  20.142  0.00  0.00    +0.000 Cl
ATOM     15  C   UNL     1       1.478  11.391  19.170  0.00  0.00    +0.000 A 
ATOM     16  C   UNL     1       0.983  12.595  18.684  0.00  0.00    +0.000 A 
ATOM     17  C   UNL     1      -0.400  12.785  18.552  0.00  0.00    +0.000 A 
BRANCH  17  18
ATOM     18  O   UNL     1      -0.826  14.013  18.123  0.00  0.00    +0.000 OA
ATOM     19  H   UNL     1      -0.359  14.717  18.601  0.00  0.00    +0.000 HD
ENDBRANCH  17  18
ENDBRANCH  10  11
BRANCH   7  20
ATOM     20  C   UNL     1      -3.291  13.032  23.672  0.00  0.00    +0.000 C 
ATOM     21  F   UNL     1      -1.937  12.899  23.673  0.00  0.00    +0.000 F 
ATOM     22  F   UNL     1      -3.542  14.264  24.202  0.00  0.00    +0.000 F 
ATOM     23  F   UNL     1      -3.763  12.134  24.578  0.00  0.00    +0.000 F 
ENDBRANCH   7  20
BRANCH   1  24
ATOM     24  N   UNL     1      -2.998  11.192  16.332  0.00  0.00    +0.000 N 
ATOM     25  H   UNL     1      -3.701  10.989  15.627  0.00  0.00    +0.000 HD
ATOM     26  H   UNL     1      -2.349  10.419  16.455  0.00  0.00    +0.000 HD
ENDBRANCH   1  24
BRANCH   2  27
ATOM     27  O   UNL     1      -5.645  11.688  16.397  0.00  0.00    +0.000 OA
ATOM     28  H   UNL     1      -5.232  10.910  15.982  0.00  0.00    +0.000 HD
ENDBRANCH   2  27
TORSDOF 5
ENDMDL
MODEL 8
REMARK VINA RESULT:      -6.4      3.879      4.851
REMARK  Name = 
REMARK  5 active torsions:
REMARK  status: ('A' for Active; 'I' for Inactive)
REMARK    1  A    between atoms: N_1  and  C_2
REMARK    2  A    between atoms: C_3  and  O_4
REMARK    3  A    between atoms: C_9  and  C_10
REMARK    4  A    between atoms: C_16  and  C_17
REMARK    5  A    between atoms: C_23  and  O_24
REMARK                            x       y       z     vdW  Elec       q    Type
REMARK                         _______ _______ _______ _____ _____    ______ ____
ROOT
ATOM      1  C   UNL     1       4.805   6.837  17.279  0.00  0.00    +0.000 A 
ATOM      2  C   UNL     1       5.579   5.903  16.571  0.00  0.00    +0.000 A 
ATOM      3  N   UNL     1       5.363   4.590  16.501  0.00  0.00    +0.000 NA
ATOM      4  C   UNL     1       4.270   4.132  17.098  0.00  0.00    +0.000 A 
ATOM      5  C   UNL     1       4.103   2.753  17.069  0.00  0.00    +0.000 A 
ATOM      6  C   UNL     1       3.020   2.119  17.683  0.00  0.00    +0.000 A 
ATOM      7  C   UNL     1       2.029   2.893  18.286  0.00  0.00    +0.000 A 
ATOM      8  C   UNL     1       2.158   4.289  18.247  0.00  0.00    +0.000 A 
ATOM      9  C   UNL     1       3.312   4.958  17.740  0.00  0.00    +0.000 A 
ATOM     10  C   UNL     1       3.597   6.383  17.858  0.00  0.00    +0.000 A 
ENDROOT
BRANCH  10  11
ATOM     11  C   UNL     1       2.682   7.301  18.648  0.00  0.00    +0.000 A 
ATOM     12  C   UNL     1       2.144   8.460  18.042  0.00  0.00    +0.000 A 
ATOM     13  C   UNL     1       1.400   9.402  18.761  0.00  0.00    +0.000 A 
ATOM     14 CL   UNL     1       0.952  10.887  18.016  0.00  0.00    +0.000 Cl
ATOM     15  C   UNL     1       1.053   9.165  20.083  0.00  0.00    +0.000 A 
ATOM     16  C   UNL     1       1.481   7.993  20.693  0.00  0.00    +0.000 A 
ATOM     17  C   UNL     1       2.307   7.099  19.997  0.00  0.00    +0.000 A 
BRANCH  17  18
ATOM     18  O   UNL     1       2.742   5.991  20.672  0.00  0.00    +0.000 OA
ATOM     19  H   UNL     1       1.991   5.530  21.081  0.00  0.00    +0.000 HD
ENDBRANCH  17  18
ENDBRANCH  10  11
BRANCH   7  20
ATOM     20  C   UNL     1       0.881   2.257  19.031  0.00  0.00    +0.000 C 
ATOM     21  F   UNL     1       0.017   1.571  18.234  0.00  0.00    +0.000 F 
ATOM     22  F   UNL     1       1.317   1.361  19.963  0.00  0.00    +0.000 F 
ATOM     23  F   UNL     1       0.132   3.166  19.711  0.00  0.00    +0.000 F 
ENDBRANCH   7  20
BRANCH   1  24
ATOM     24  N   UNL     1       5.277   8.174  17.293  0.00  0.00    +0.000 N 
ATOM     25  H   UNL     1       5.358   8.568  16.359  0.00  0.00    +0.000 HD
ATOM     26  H   UNL     1       6.140   8.270  17.822  0.00  0.00    +0.000 HD
ENDBRANCH   1  24
BRANCH   2  27
ATOM     27  O   UNL     1       6.647   6.364  15.842  0.00  0.00    +0.000 OA
ATOM     28  H   UNL     1       6.680   5.741  15.095  0.00  0.00    +0.000 HD
ENDBRANCH   2  27
TORSDOF 5
ENDMDL
MODEL 9
REMARK VINA RESULT:      -6.4      7.805     10.129
REMARK  Name = 
REMARK  5 active torsions:
REMARK  status: ('A' for Active; 'I' for Inactive)
REMARK    1  A    between atoms: N_1  and  C_2
REMARK    2  A    between atoms: C_3  and  O_4
REMARK    3  A    between atoms: C_9  and  C_10
REMARK    4  A    between atoms: C_16  and  C_17
REMARK    5  A    between atoms: C_23  and  O_24
REMARK                            x       y       z     vdW  Elec       q    Type
REMARK                         _______ _______ _______ _____ _____    ______ ____
ROOT
ATOM      1  C   UNL     1      -5.472  12.954  19.126  0.00  0.00    +0.000 A 
ATOM      2  C   UNL     1      -5.895  12.397  17.908  0.00  0.00    +0.000 A 
ATOM      3  N   UNL     1      -5.170  11.626  17.099  0.00  0.00    +0.000 NA
ATOM      4  C   UNL     1      -3.956  11.294  17.520  0.00  0.00    +0.000 A 
ATOM      5  C   UNL     1      -3.194  10.547  16.630  0.00  0.00    +0.000 A 
ATOM      6  C   UNL     1      -1.885  10.152  16.916  0.00  0.00    +0.000 A 
ATOM      7  C   UNL     1      -1.340  10.449  18.165  0.00  0.00    +0.000 A 
ATOM      8  C   UNL     1      -2.137  11.135  19.093  0.00  0.00    +0.000 A 
ATOM      9  C   UNL     1      -3.427  11.661  18.784  0.00  0.00    +0.000 A 
ATOM     10  C   UNL     1      -4.213  12.553  19.629  0.00  0.00    +0.000 A 
ENDROOT
BRANCH  10  11
ATOM     11  C   UNL     1      -3.652  13.092  20.932  0.00  0.00    +0.000 A 
ATOM     12  C   UNL     1      -4.047  12.522  22.165  0.00  0.00    +0.000 A 
ATOM     13  C   UNL     1      -3.659  13.062  23.396  0.00  0.00    +0.000 A 
ATOM     14 CL   UNL     1      -4.340  12.446  24.852  0.00  0.00    +0.000 Cl
ATOM     15  C   UNL     1      -2.756  14.113  23.451  0.00  0.00    +0.000 A 
ATOM     16  C   UNL     1      -2.268  14.646  22.264  0.00  0.00    +0.000 A 
ATOM     17  C   UNL     1      -2.735  14.164  21.033  0.00  0.00    +0.000 A 
BRANCH  17  18
ATOM     18  O   UNL     1      -2.259  14.768  19.902  0.00  0.00    +0.000 OA
ATOM     19  H   UNL     1      -1.400  14.389  19.654  0.00  0.00    +0.000 HD
ENDBRANCH  17  18
ENDBRANCH  10  11
BRANCH   7  20
ATOM     20  C   UNL     1       0.093  10.114  18.496  0.00  0.00    +0.000 C 
ATOM     21  F   UNL     1       0.919  11.195  18.530  0.00  0.00    +0.000 F 
ATOM     22  F   UNL     1       0.205   9.524  19.722  0.00  0.00    +0.000 F 
ATOM     23  F   UNL     1       0.643   9.241  17.611  0.00  0.00    +0.000 F 
ENDBRANCH   7  20
BRANCH   1  24
ATOM     24  N   UNL     1      -6.384  13.825  19.776  0.00  0.00    +0.000 N 
ATOM     25  H   UNL     1      -7.251  13.360  20.032  0.00  0.00    +0.000 HD
ATOM     26  H   UNL     1      -6.550  14.674  19.243  0.00  0.00    +0.000 HD
ENDBRANCH   1  24
BRANCH   2  27
ATOM     27  O   UNL     1      -7.188  12.620  17.505  0.00  0.00    +0.000 OA
ATOM     28  H   UNL     1      -7.608  12.962  18.314  0.00  0.00    +0.000 HD
ENDBRANCH   2  27
TORSDOF 5
ENDMDL
