MODEL 1
REMARK VINA RESULT:      -6.6      0.000      0.000
REMARK  Name = 
REMARK  5 active torsions:
REMARK  status: ('A' for Active; 'I' for Inactive)
REMARK    1  A    between atoms: C_1  and  N_2
REMARK    2  A    between atoms: C_3  and  C_4
REMARK    3  A    between atoms: C_4  and  O_6
REMARK    4  A    between atoms: C_9  and  S_10
REMARK    5  A    between atoms: S_10  and  N_13
REMARK                            x       y       z     vdW  Elec       q    Type
REMARK                         _______ _______ _______ _____ _____    ______ ____
ROOT
ATOM      1  C   UNL     1       5.252   3.191  15.170  0.00  0.00    +0.000 C 
ATOM      2  N   UNL     1       6.143   4.000  14.360  0.00  0.00    +0.000 N 
ATOM      3  C   UNL     1       6.287   3.873  12.977  0.00  0.00    +0.000 A 
ATOM      4  C   UNL     1       7.302   4.746  12.606  0.00  0.00    +0.000 A 
ATOM      5  C   UNL     1       7.758   5.403  13.759  0.00  0.00    +0.000 A 
ATOM      6  C   UNL     1       7.031   4.952  14.852  0.00  0.00    +0.000 A 
ENDROOT
BRANCH   6   7
ATOM      7  S   UNL     1       7.225   5.437  16.576  0.00  0.00    +0.000 S 
ATOM      8  O   UNL     1       7.982   4.386  17.208  0.00  0.00    +0.000 OA
ATOM      9  O   UNL     1       7.753   6.786  16.475  0.00  0.00    +0.000 OA
BRANCH   7  10
ATOM     10  N   UNL     1       5.682   5.532  17.279  0.00  0.00    +0.000 NA
ATOM     11  C   UNL     1       5.494   4.952  18.620  0.00  0.00    +0.000 C 
ATOM     12  C   UNL     1       4.111   4.347  18.859  0.00  0.00    +0.000 C 
ATOM     13  C   UNL     1       3.043   5.361  19.251  0.00  0.00    +0.000 C 
ATOM     14  C   UNL     1       2.633   6.268  18.105  0.00  0.00    +0.000 C 
ATOM     15  C   UNL     1       3.769   7.175  17.650  0.00  0.00    +0.000 C 
ATOM     16  C   UNL     1       4.739   6.501  16.693  0.00  0.00    +0.000 C 
ENDBRANCH   7  10
ENDBRANCH   6   7
BRANCH   3  17
ATOM     17  C   UNL     1       5.490   3.017  12.116  0.00  0.00    +0.000 C 
ATOM     18  O   UNL     1       4.385   3.279  11.668  0.00  0.00    +0.000 OA
BRANCH  17  19
ATOM     19  O   UNL     1       6.109   1.842  11.848  0.00  0.00    +0.000 OA
ATOM     20  H   UNL     1       6.031   1.194  12.572  0.00  0.00    +0.000 HD
ENDBRANCH  17  19
ENDBRANCH   3  17
TORSDOF 4
ENDMDL
MODEL 2
REMARK VINA RESULT:      -6.4      3.729      7.056
REMARK  Name = 
REMARK  5 active torsions:
REMARK  status: ('A' for Active; 'I' for Inactive)
REMARK    1  A    between atoms: C_1  and  N_2
REMARK    2  A    between atoms: C_3  and  C_4
REMARK    3  A    between atoms: C_4  and  O_6
REMARK    4  A    between atoms: C_9  and  S_10
REMARK    5  A    between atoms: S_10  and  N_13
REMARK                            x       y       z     vdW  Elec       q    Type
REMARK                         _______ _______ _______ _____ _____    ______ ____
ROOT
ATOM      1  C   UNL     1       2.967   6.630  17.964  0.00  0.00    +0.000 C 
ATOM      2  N   UNL     1       2.372   5.902  19.068  0.00  0.00    +0.000 N 
ATOM      3  C   UNL     1       1.843   6.498  20.215  0.00  0.00    +0.000 A 
ATOM      4  C   UNL     1       1.475   5.462  21.063  0.00  0.00    +0.000 A 
ATOM      5  C   UNL     1       1.770   4.247  20.424  0.00  0.00    +0.000 A 
ATOM      6  C   UNL     1       2.316   4.516  19.177  0.00  0.00    +0.000 A 
ENDROOT
BRANCH   6   7
ATOM      7  S   UNL     1       2.903   3.327  17.957  0.00  0.00    +0.000 S 
ATOM      8  O   UNL     1       2.907   2.043  18.613  0.00  0.00    +0.000 OA
ATOM      9  O   UNL     1       2.042   3.583  16.816  0.00  0.00    +0.000 OA
BRANCH   7  10
ATOM     10  N   UNL     1       4.489   3.751  17.521  0.00  0.00    +0.000 NA
ATOM     11  C   UNL     1       4.735   4.184  16.135  0.00  0.00    +0.000 C 
ATOM     12  C   UNL     1       6.105   3.790  15.583  0.00  0.00    +0.000 C 
ATOM     13  C   UNL     1       7.234   4.733  15.979  0.00  0.00    +0.000 C 
ATOM     14  C   UNL     1       7.609   4.633  17.446  0.00  0.00    +0.000 C 
ATOM     15  C   UNL     1       6.485   5.094  18.364  0.00  0.00    +0.000 C 
ATOM     16  C   UNL     1       5.432   4.028  18.619  0.00  0.00    +0.000 C 
ENDBRANCH   7  10
ENDBRANCH   6   7
BRANCH   3  17
ATOM     17  C   UNL     1       1.684   7.925  20.432  0.00  0.00    +0.000 C 
ATOM     18  O   UNL     1       1.427   8.757  19.577  0.00  0.00    +0.000 OA
BRANCH  17  19
ATOM     19  O   UNL     1       1.863   8.267  21.731  0.00  0.00    +0.000 OA
ATOM     20  H   UNL     1       1.242   8.953  22.035  0.00  0.00    +0.000 HD
ENDBRANCH  17  19
ENDBRANCH   3  17
TORSDOF 4
ENDMDL
MODEL 3
REMARK VINA RESULT:      -6.4      0.217      1.405
REMARK  Name = 
REMARK  5 active torsions:
REMARK  status: ('A' for Active; 'I' for Inactive)
REMARK    1  A    between atoms: C_1  and  N_2
REMARK    2  A    between atoms: C_3  and  C_4
REMARK    3  A    between atoms: C_4  and  O_6
REMARK    4  A    between atoms: C_9  and  S_10
REMARK    5  A    between atoms: S_10  and  N_13
REMARK                            x       y       z     vdW  Elec       q    Type
REMARK                         _______ _______ _______ _____ _____    ______ ____
ROOT
ATOM      1  C   UNL     1       5.345   3.154  15.270  0.00  0.00    +0.000 C 
ATOM      2  N   UNL     1       6.182   4.024  14.465  0.00  0.00    +0.000 N 
ATOM      3  C   UNL     1       6.317   3.928  13.078  0.00  0.00    +0.000 A 
ATOM      4  C   UNL     1       7.278   4.861  12.713  0.00  0.00    +0.000 A 
ATOM      5  C   UNL     1       7.711   5.523  13.872  0.00  0.00    +0.000 A 
ATOM      6  C   UNL     1       7.022   5.014  14.964  0.00  0.00    +0.000 A 
ENDROOT
BRANCH   6   7
ATOM      7  S   UNL     1       7.209   5.481  16.694  0.00  0.00    +0.000 S 
ATOM      8  O   UNL     1       7.900   4.389  17.334  0.00  0.00    +0.000 OA
ATOM      9  O   UNL     1       7.807   6.801  16.611  0.00  0.00    +0.000 OA
BRANCH   7  10
ATOM     10  N   UNL     1       5.660   5.650  17.370  0.00  0.00    +0.000 NA
ATOM     11  C   UNL     1       4.689   6.509  16.670  0.00  0.00    +0.000 C 
ATOM     12  C   UNL     1       3.722   7.252  17.593  0.00  0.00    +0.000 C 
ATOM     13  C   UNL     1       2.524   6.423  18.043  0.00  0.00    +0.000 C 
ATOM     14  C   UNL     1       2.891   5.330  19.029  0.00  0.00    +0.000 C 
ATOM     15  C   UNL     1       3.788   4.267  18.408  0.00  0.00    +0.000 C 
ATOM     16  C   UNL     1       5.258   4.653  18.377  0.00  0.00    +0.000 C 
ENDBRANCH   7  10
ENDBRANCH   6   7
BRANCH   3  17
ATOM     17  C   UNL     1       5.557   3.045  12.212  0.00  0.00    +0.000 C 
ATOM     18  O   UNL     1       4.445   3.265  11.760  0.00  0.00    +0.000 OA
BRANCH  17  19
ATOM     19  O   UNL     1       6.224   1.896  11.942  0.00  0.00    +0.000 OA
ATOM     20  H   UNL     1       7.136   1.893  12.285  0.00  0.00    +0.000 HD
ENDBRANCH  17  19
ENDBRANCH   3  17
TORSDOF 4
ENDMDL
MODEL 4
REMARK VINA RESULT:      -6.3      2.380      3.669
REMARK  Name = 
REMARK  5 active torsions:
REMARK  status: ('A' for Active; 'I' for Inactive)
REMARK    1  A    between atoms: C_1  and  N_2
REMARK    2  A    between atoms: C_3  and  C_4
REMARK    3  A    between atoms: C_4  and  O_6
REMARK    4  A    between atoms: C_9  and  S_10
REMARK    5  A    between atoms: S_10  and  N_13
REMARK                            x       y       z     vdW  Elec       q    Type
REMARK                         _______ _______ _______ _____ _____    ______ ____
ROOT
ATOM      1  C   UNL     1       7.353   6.350  16.698  0.00  0.00    +0.000 C 
ATOM      2  N   UNL     1       6.400   5.305  16.375  0.00  0.00    +0.000 N 
ATOM      3  C   UNL     1       6.291   4.693  15.125  0.00  0.00    +0.000 A 
ATOM      4  C   UNL     1       5.202   3.835  15.201  0.00  0.00    +0.000 A 
ATOM      5  C   UNL     1       4.664   3.922  16.494  0.00  0.00    +0.000 A 
ATOM      6  C   UNL     1       5.414   4.826  17.233  0.00  0.00    +0.000 A 
ENDROOT
BRANCH   6   7
ATOM      7  S   UNL     1       5.145   5.341  18.938  0.00  0.00    +0.000 S 
ATOM      8  O   UNL     1       6.312   4.924  19.675  0.00  0.00    +0.000 OA
ATOM      9  O   UNL     1       4.805   6.746  18.803  0.00  0.00    +0.000 OA
BRANCH   7  10
ATOM     10  N   UNL     1       3.776   4.527  19.530  0.00  0.00    +0.000 NA
ATOM     11  C   UNL     1       2.464   5.178  19.378  0.00  0.00    +0.000 C 
ATOM     12  C   UNL     1       1.482   4.894  20.515  0.00  0.00    +0.000 C 
ATOM     13  C   UNL     1       0.737   3.572  20.384  0.00  0.00    +0.000 C 
ATOM     14  C   UNL     1       1.622   2.362  20.622  0.00  0.00    +0.000 C 
ATOM     15  C   UNL     1       2.702   2.216  19.557  0.00  0.00    +0.000 C 
ATOM     16  C   UNL     1       3.923   3.087  19.805  0.00  0.00    +0.000 C 
ENDBRANCH   7  10
ENDBRANCH   6   7
BRANCH   3  17
ATOM     17  C   UNL     1       7.184   4.902  13.998  0.00  0.00    +0.000 C 
ATOM     18  O   UNL     1       8.136   5.665  13.969  0.00  0.00    +0.000 OA
BRANCH  17  19
ATOM     19  O   UNL     1       6.844   4.142  12.929  0.00  0.00    +0.000 OA
ATOM     20  H   UNL     1       7.598   3.657  12.549  0.00  0.00    +0.000 HD
ENDBRANCH  17  19
ENDBRANCH   3  17
TORSDOF 4
ENDMDL
MODEL 5
REMARK VINA RESULT:      -6.3      3.219      4.903
REMARK  Name = 
REMARK  5 active torsions:
REMARK  status: ('A' for Active; 'I' for Inactive)
REMARK    1  A    between atoms: C_1  and  N_2
REMARK    2  A    between atoms: C_3  and  C_4
REMARK    3  A    between atoms: C_4  and  O_6
REMARK    4  A    between atoms: C_9  and  S_10
REMARK    5  A    between atoms: S_10  and  N_13
REMARK                            x       y       z     vdW  Elec       q    Type
REMARK                         _______ _______ _______ _____ _____    ______ ____
ROOT
ATOM      1  C   UNL     1       5.601   5.484  19.307  0.00  0.00    +0.000 C 
ATOM      2  N   UNL     1       5.144   4.717  18.163  0.00  0.00    +0.000 N 
ATOM      3  C   UNL     1       5.919   4.444  17.034  0.00  0.00    +0.000 A 
ATOM      4  C   UNL     1       5.089   3.785  16.138  0.00  0.00    +0.000 A 
ATOM      5  C   UNL     1       3.823   3.651  16.729  0.00  0.00    +0.000 A 
ATOM      6  C   UNL     1       3.856   4.218  17.995  0.00  0.00    +0.000 A 
ENDROOT
BRANCH   6   7
ATOM      7  S   UNL     1       2.500   4.352  19.174  0.00  0.00    +0.000 S 
ATOM      8  O   UNL     1       1.403   3.602  18.614  0.00  0.00    +0.000 OA
ATOM      9  O   UNL     1       3.118   3.955  20.426  0.00  0.00    +0.000 OA
BRANCH   7  10
ATOM     10  N   UNL     1       2.066   5.989  19.301  0.00  0.00    +0.000 NA
ATOM     11  C   UNL     1       2.012   6.589  20.645  0.00  0.00    +0.000 C 
ATOM     12  C   UNL     1       0.937   7.664  20.816  0.00  0.00    +0.000 C 
ATOM     13  C   UNL     1       1.348   9.044  20.318  0.00  0.00    +0.000 C 
ATOM     14  C   UNL     1       1.433   9.132  18.805  0.00  0.00    +0.000 C 
ATOM     15  C   UNL     1       2.542   8.256  18.236  0.00  0.00    +0.000 C 
ATOM     16  C   UNL     1       2.142   6.798  18.072  0.00  0.00    +0.000 C 
ENDBRANCH   7  10
ENDBRANCH   6   7
BRANCH   3  17
ATOM     17  C   UNL     1       7.327   4.763  16.875  0.00  0.00    +0.000 C 
ATOM     18  O   UNL     1       8.259   4.185  17.411  0.00  0.00    +0.000 OA
BRANCH  17  19
ATOM     19  O   UNL     1       7.521   5.815  16.043  0.00  0.00    +0.000 OA
ATOM     20  H   UNL     1       7.602   5.554  15.109  0.00  0.00    +0.000 HD
ENDBRANCH  17  19
ENDBRANCH   3  17
TORSDOF 4
ENDMDL
MODEL 6
REMARK VINA RESULT:      -6.3      2.347      3.443
REMARK  Name = 
REMARK  5 active torsions:
REMARK  status: ('A' for Active; 'I' for Inactive)
REMARK    1  A    between atoms: C_1  and  N_2
REMARK    2  A    between atoms: C_3  and  C_4
REMARK    3  A    between atoms: C_4  and  O_6
REMARK    4  A    between atoms: C_9  and  S_10
REMARK    5  A    between atoms: S_10  and  N_13
REMARK                            x       y       z     vdW  Elec       q    Type
REMARK                         _______ _______ _______ _____ _____    ______ ____
ROOT
ATOM      1  C   UNL     1       7.273   6.544  16.578  0.00  0.00    +0.000 C 
ATOM      2  N   UNL     1       6.452   5.388  16.271  0.00  0.00    +0.000 N 
ATOM      3  C   UNL     1       6.452   4.722  15.043  0.00  0.00    +0.000 A 
ATOM      4  C   UNL     1       5.462   3.752  15.123  0.00  0.00    +0.000 A 
ATOM      5  C   UNL     1       4.877   3.825  16.396  0.00  0.00    +0.000 A 
ATOM      6  C   UNL     1       5.499   4.834  17.120  0.00  0.00    +0.000 A 
ENDROOT
BRANCH   6   7
ATOM      7  S   UNL     1       5.120   5.377  18.795  0.00  0.00    +0.000 S 
ATOM      8  O   UNL     1       6.243   4.986  19.610  0.00  0.00    +0.000 OA
ATOM      9  O   UNL     1       4.777   6.776  18.612  0.00  0.00    +0.000 OA
BRANCH   7  10
ATOM     10  N   UNL     1       3.725   4.560  19.316  0.00  0.00    +0.000 NA
ATOM     11  C   UNL     1       3.878   3.192  19.840  0.00  0.00    +0.000 C 
ATOM     12  C   UNL     1       2.699   2.265  19.543  0.00  0.00    +0.000 C 
ATOM     13  C   UNL     1       1.531   2.406  20.512  0.00  0.00    +0.000 C 
ATOM     14  C   UNL     1       0.768   3.707  20.342  0.00  0.00    +0.000 C 
ATOM     15  C   UNL     1       1.613   4.924  20.697  0.00  0.00    +0.000 C 
ATOM     16  C   UNL     1       2.527   5.379  19.570  0.00  0.00    +0.000 C 
ENDBRANCH   7  10
ENDBRANCH   6   7
BRANCH   3  17
ATOM     17  C   UNL     1       7.351   4.989  13.935  0.00  0.00    +0.000 C 
ATOM     18  O   UNL     1       8.326   5.722  13.962  0.00  0.00    +0.000 OA
BRANCH  17  19
ATOM     19  O   UNL     1       6.989   4.322  12.812  0.00  0.00    +0.000 OA
ATOM     20  H   UNL     1       6.423   3.550  12.990  0.00  0.00    +0.000 HD
ENDBRANCH  17  19
ENDBRANCH   3  17
TORSDOF 4
ENDMDL
MODEL 7
REMARK VINA RESULT:      -6.2      3.440      5.045
REMARK  Name = 
REMARK  5 active torsions:
REMARK  status: ('A' for Active; 'I' for Inactive)
REMARK    1  A    between atoms: C_1  and  N_2
REMARK    2  A    between atoms: C_3  and  C_4
REMARK    3  A    between atoms: C_4  and  O_6
REMARK    4  A    between atoms: C_9  and  S_10
REMARK    5  A    between atoms: S_10  and  N_13
REMARK                            x       y       z     vdW  Elec       q    Type
REMARK                         _______ _______ _______ _____ _____    ______ ____
ROOT
ATOM      1  C   UNL     1       5.136   4.556  19.319  0.00  0.00    +0.000 C 
ATOM      2  N   UNL     1       5.164   5.444  18.172  0.00  0.00    +0.000 N 
ATOM      3  C   UNL     1       6.258   5.597  17.318  0.00  0.00    +0.000 A 
ATOM      4  C   UNL     1       5.920   6.605  16.424  0.00  0.00    +0.000 A 
ATOM      5  C   UNL     1       4.624   7.047  16.731  0.00  0.00    +0.000 A 
ATOM      6  C   UNL     1       4.144   6.318  17.810  0.00  0.00    +0.000 A 
ENDROOT
BRANCH   6   7
ATOM      7  S   UNL     1       2.552   6.497  18.634  0.00  0.00    +0.000 S 
ATOM      8  O   UNL     1       2.737   7.492  19.660  0.00  0.00    +0.000 OA
ATOM      9  O   UNL     1       1.638   6.722  17.528  0.00  0.00    +0.000 OA
BRANCH   7  10
ATOM     10  N   UNL     1       2.152   5.008  19.348  0.00  0.00    +0.000 NA
ATOM     11  C   UNL     1       1.793   4.999  20.776  0.00  0.00    +0.000 C 
ATOM     12  C   UNL     1       2.217   3.736  21.526  0.00  0.00    +0.000 C 
ATOM     13  C   UNL     1       1.255   2.564  21.373  0.00  0.00    +0.000 C 
ATOM     14  C   UNL     1       1.279   1.950  19.985  0.00  0.00    +0.000 C 
ATOM     15  C   UNL     1       0.769   2.911  18.918  0.00  0.00    +0.000 C 
ATOM     16  C   UNL     1       1.820   3.899  18.437  0.00  0.00    +0.000 C 
ENDBRANCH   7  10
ENDBRANCH   6   7
BRANCH   3  17
ATOM     17  C   UNL     1       7.480   4.814  17.357  0.00  0.00    +0.000 C 
ATOM     18  O   UNL     1       8.101   4.503  18.361  0.00  0.00    +0.000 OA
BRANCH  17  19
ATOM     19  O   UNL     1       7.893   4.449  16.119  0.00  0.00    +0.000 OA
ATOM     20  H   UNL     1       8.051   5.207  15.529  0.00  0.00    +0.000 HD
ENDBRANCH  17  19
ENDBRANCH   3  17
TORSDOF 4
ENDMDL
MODEL 8
REMARK VINA RESULT:      -6.1      3.179      5.017
REMARK  Name = 
REMARK  5 active torsions:
REMARK  status: ('A' for Active; 'I' for Inactive)
REMARK    1  A    between atoms: C_1  and  N_2
REMARK    2  A    between atoms: C_3  and  C_4
REMARK    3  A    between atoms: C_4  and  O_6
REMARK    4  A    between atoms: C_9  and  S_10
REMARK    5  A    between atoms: S_10  and  N_13
REMARK                            x       y       z     vdW  Elec       q    Type
REMARK                         _______ _______ _______ _____ _____    ______ ____
ROOT
ATOM      1  C   UNL     1       5.682   5.508  19.252  0.00  0.00    +0.000 C 
ATOM      2  N   UNL     1       5.193   4.723  18.135  0.00  0.00    +0.000 N 
ATOM      3  C   UNL     1       5.939   4.423  16.993  0.00  0.00    +0.000 A 
ATOM      4  C   UNL     1       5.082   3.753  16.129  0.00  0.00    +0.000 A 
ATOM      5  C   UNL     1       3.830   3.639  16.753  0.00  0.00    +0.000 A 
ATOM      6  C   UNL     1       3.898   4.230  18.008  0.00  0.00    +0.000 A 
ENDROOT
BRANCH   6   7
ATOM      7  S   UNL     1       2.572   4.396  19.216  0.00  0.00    +0.000 S 
ATOM      8  O   UNL     1       1.429   3.716  18.657  0.00  0.00    +0.000 OA
ATOM      9  O   UNL     1       3.193   3.933  20.444  0.00  0.00    +0.000 OA
BRANCH   7  10
ATOM     10  N   UNL     1       2.221   6.047  19.398  0.00  0.00    +0.000 NA
ATOM     11  C   UNL     1       1.959   6.838  18.183  0.00  0.00    +0.000 C 
ATOM     12  C   UNL     1       2.431   8.290  18.259  0.00  0.00    +0.000 C 
ATOM     13  C   UNL     1       1.461   9.228  18.966  0.00  0.00    +0.000 C 
ATOM     14  C   UNL     1       1.391   8.996  20.464  0.00  0.00    +0.000 C 
ATOM     15  C   UNL     1       0.811   7.631  20.812  0.00  0.00    +0.000 C 
ATOM     16  C   UNL     1       1.827   6.502  20.742  0.00  0.00    +0.000 C 
ENDBRANCH   7  10
ENDBRANCH   6   7
BRANCH   3  17
ATOM     17  C   UNL     1       7.344   4.730  16.793  0.00  0.00    +0.000 C 
ATOM     18  O   UNL     1       8.283   4.177  17.341  0.00  0.00    +0.000 OA
BRANCH  17  19
ATOM     19  O   UNL     1       7.526   5.738  15.906  0.00  0.00    +0.000 OA
ATOM     20  H   UNL     1       6.734   6.292  15.789  0.00  0.00    +0.000 HD
ENDBRANCH  17  19
ENDBRANCH   3  17
TORSDOF 4
ENDMDL
MODEL 9
REMARK VINA RESULT:      -6.1      3.449      5.138
REMARK  Name = 
REMARK  5 active torsions:
REMARK  status: ('A' for Active; 'I' for Inactive)
REMARK    1  A    between atoms: C_1  and  N_2
REMARK    2  A    between atoms: C_3  and  C_4
REMARK    3  A    between atoms: C_4  and  O_6
REMARK    4  A    between atoms: C_9  and  S_10
REMARK    5  A    between atoms: S_10  and  N_13
REMARK                            x       y       z     vdW  Elec       q    Type
REMARK                         _______ _______ _______ _____ _____    ______ ____
ROOT
ATOM      1  C   UNL     1       4.893   3.648  18.133  0.00  0.00    +0.000 C 
ATOM      2  N   UNL     1       5.158   5.031  17.782  0.00  0.00    +0.000 N 
ATOM      3  C   UNL     1       6.335   5.482  17.181  0.00  0.00    +0.000 A 
ATOM      4  C   UNL     1       6.235   6.866  17.112  0.00  0.00    +0.000 A 
ATOM      5  C   UNL     1       4.999   7.244  17.658  0.00  0.00    +0.000 A 
ATOM      6  C   UNL     1       4.318   6.104  18.065  0.00  0.00    +0.000 A 
ENDROOT
BRANCH   6   7
ATOM      7  S   UNL     1       2.704   6.014  18.860  0.00  0.00    +0.000 S 
ATOM      8  O   UNL     1       1.842   5.308  17.944  0.00  0.00    +0.000 OA
ATOM      9  O   UNL     1       3.018   5.466  20.167  0.00  0.00    +0.000 OA
BRANCH   7  10
ATOM     10  N   UNL     1       2.130   7.597  19.079  0.00  0.00    +0.000 NA
ATOM     11  C   UNL     1       1.716   8.355  17.886  0.00  0.00    +0.000 C 
ATOM     12  C   UNL     1       1.981   9.859  17.969  0.00  0.00    +0.000 C 
ATOM     13  C   UNL     1       0.913  10.642  18.723  0.00  0.00    +0.000 C 
ATOM     14  C   UNL     1       0.930  10.386  20.219  0.00  0.00    +0.000 C 
ATOM     15  C   UNL     1       0.562   8.949  20.565  0.00  0.00    +0.000 C 
ATOM     16  C   UNL     1       1.724   7.977  20.443  0.00  0.00    +0.000 C 
ENDBRANCH   7  10
ENDBRANCH   6   7
BRANCH   3  17
ATOM     17  C   UNL     1       7.416   4.642  16.697  0.00  0.00    +0.000 C 
ATOM     18  O   UNL     1       7.678   4.414  15.527  0.00  0.00    +0.000 OA
BRANCH  17  19
ATOM     19  O   UNL     1       8.137   4.103  17.710  0.00  0.00    +0.000 OA
ATOM     20  H   UNL     1       7.935   3.163  17.866  0.00  0.00    +0.000 HD
ENDBRANCH  17  19
ENDBRANCH   3  17
TORSDOF 4
ENDMDL
