MODEL 1
REMARK VINA RESULT:      -8.6      0.000      0.000
REMARK  Name = 
REMARK  9 active torsions:
REMARK  status: ('A' for Active; 'I' for Inactive)
REMARK    1  A    between atoms: C_1  and  C_2
REMARK    2  A    between atoms: C_2  and  O_3
REMARK    3  A    between atoms: O_3  and  C_4
REMARK    4  A    between atoms: C_11  and  C_12
REMARK    5  A    between atoms: C_17  and  C_18
REMARK    6  A    between atoms: C_18  and  C_19
REMARK    7  A    between atoms: C_19  and  N_20
REMARK    8  A    between atoms: C_24  and  C_25
REMARK    9  A    between atoms: C_30  and  C_31
REMARK                            x       y       z     vdW  Elec       q    Type
REMARK                         _______ _______ _______ _____ _____    ______ ____
ROOT
ATOM      1  C   UNL     1       1.058   9.739  19.126  0.00  0.00    +0.000 A 
ATOM      2  C   UNL     1       1.823   9.789  17.971  0.00  0.00    +0.000 A 
ATOM      3  C   UNL     1       2.621   8.690  17.667  0.00  0.00    +0.000 A 
ATOM      4  C   UNL     1       2.633   7.584  18.523  0.00  0.00    +0.000 A 
ATOM      5  C   UNL     1       3.400   6.443  18.248  0.00  0.00    +0.000 A 
ATOM      6  C   UNL     1       3.401   5.354  19.126  0.00  0.00    +0.000 A 
ATOM      7  C   UNL     1       2.643   5.432  20.298  0.00  0.00    +0.000 A 
ATOM      8  C   UNL     1       1.878   6.568  20.564  0.00  0.00    +0.000 A 
ATOM      9  C   UNL     1       1.848   7.638  19.686  0.00  0.00    +0.000 A 
ATOM     10  N   UNL     1       1.071   8.687  19.975  0.00  0.00    +0.000 NA
ENDROOT
BRANCH   1  18
ATOM     11  C   UNL     1      -4.344  13.280  23.125  0.00  0.00    +0.000 A 
ATOM     12  C   UNL     1      -4.262  13.925  21.908  0.00  0.00    +0.000 A 
ATOM     13  C   UNL     1      -3.292  13.501  21.004  0.00  0.00    +0.000 A 
ATOM     14  C   UNL     1      -2.448  12.461  21.377  0.00  0.00    +0.000 A 
ATOM     15  N   UNL     1      -1.454  11.982  20.473  0.00  0.00    +0.000 N 
ATOM     16  N   UNL     1      -1.269  12.590  19.265  0.00  0.00    +0.000 NA
ATOM     17  C   UNL     1      -0.335  11.858  18.663  0.00  0.00    +0.000 A 
ATOM     18  C   UNL     1       0.121  10.792  19.458  0.00  0.00    +0.000 A 
ATOM     19  C   UNL     1      -0.590  10.904  20.644  0.00  0.00    +0.000 A 
ATOM     20  C   UNL     1      -0.549  10.071  21.884  0.00  0.00    +0.000 C 
ATOM     21  N   UNL     1      -2.559  11.870  22.587  0.00  0.00    +0.000 NA
ATOM     22  N   UNL     1      -3.507  12.282  23.469  0.00  0.00    +0.000 NA
BRANCH  11  23
ATOM     23  O   UNL     1      -5.300  13.706  24.021  0.00  0.00    +0.000 OA
BRANCH  23  25
ATOM     24  C   UNL     1      -7.526  12.974  23.562  0.00  0.00    +0.000 C 
ATOM     25  C   UNL     1      -6.246  12.673  24.315  0.00  0.00    +0.000 C 
ENDBRANCH  23  25
ENDBRANCH  11  23
ENDBRANCH   1  18
BRANCH   6  26
ATOM     26  C   UNL     1       4.247   4.143  18.828  0.00  0.00    +0.000 C 
BRANCH  26  27
ATOM     27  C   UNL     1       5.757   4.445  18.751  0.00  0.00    +0.000 C 
BRANCH  27  28
ATOM     28  N   UNL     1       6.281   4.178  17.411  0.00  0.00    +0.000 NA
ATOM     29  C   UNL     1       5.262   3.808  16.425  0.00  0.00    +0.000 C 
ATOM     30  C   UNL     1       5.436   4.760  15.263  0.00  0.00    +0.000 C 
ATOM     31  C   UNL     1       6.908   5.104  15.323  0.00  0.00    +0.000 C 
ATOM     32  C   UNL     1       7.199   5.168  16.823  0.00  0.00    +0.000 C 
ATOM     33  C   UNL     1       7.101   6.612  17.328  0.00  0.00    +0.000 C 
ENDBRANCH  27  28
ENDBRANCH  26  27
ENDBRANCH   6  26
TORSDOF 6
ENDMDL
MODEL 2
REMARK VINA RESULT:      -8.5      1.752      3.033
REMARK  Name = 
REMARK  9 active torsions:
REMARK  status: ('A' for Active; 'I' for Inactive)
REMARK    1  A    between atoms: C_1  and  C_2
REMARK    2  A    between atoms: C_2  and  O_3
REMARK    3  A    between atoms: O_3  and  C_4
REMARK    4  A    between atoms: C_11  and  C_12
REMARK    5  A    between atoms: C_17  and  C_18
REMARK    6  A    between atoms: C_18  and  C_19
REMARK    7  A    between atoms: C_19  and  N_20
REMARK    8  A    between atoms: C_24  and  C_25
REMARK    9  A    between atoms: C_30  and  C_31
REMARK                            x       y       z     vdW  Elec       q    Type
REMARK                         _______ _______ _______ _____ _____    ______ ____
ROOT
ATOM      1  C   UNL     1       0.608   9.344  20.166  0.00  0.00    +0.000 A 
ATOM      2  C   UNL     1       0.655   8.395  21.175  0.00  0.00    +0.000 A 
ATOM      3  C   UNL     1       1.506   7.307  21.010  0.00  0.00    +0.000 A 
ATOM      4  C   UNL     1       2.276   7.198  19.848  0.00  0.00    +0.000 A 
ATOM      5  C   UNL     1       3.167   6.135  19.647  0.00  0.00    +0.000 A 
ATOM      6  C   UNL     1       3.920   6.046  18.470  0.00  0.00    +0.000 A 
ATOM      7  C   UNL     1       3.749   7.024  17.485  0.00  0.00    +0.000 A 
ATOM      8  C   UNL     1       2.865   8.082  17.693  0.00  0.00    +0.000 A 
ATOM      9  C   UNL     1       2.139   8.194  18.867  0.00  0.00    +0.000 A 
ATOM     10  N   UNL     1       1.331   9.247  19.027  0.00  0.00    +0.000 NA
ENDROOT
BRANCH   1  18
ATOM     11  C   UNL     1      -4.049  14.311  23.535  0.00  0.00    +0.000 A 
ATOM     12  C   UNL     1      -3.965  14.680  22.208  0.00  0.00    +0.000 A 
ATOM     13  C   UNL     1      -3.115  13.956  21.377  0.00  0.00    +0.000 A 
ATOM     14  C   UNL     1      -2.384  12.910  21.927  0.00  0.00    +0.000 A 
ATOM     15  N   UNL     1      -1.516  12.129  21.107  0.00  0.00    +0.000 N 
ATOM     16  N   UNL     1      -1.335  12.450  19.793  0.00  0.00    +0.000 NA
ATOM     17  C   UNL     1      -0.538  11.493  19.323  0.00  0.00    +0.000 A 
ATOM     18  C   UNL     1      -0.168  10.558  20.305  0.00  0.00    +0.000 A 
ATOM     19  C   UNL     1      -0.783  11.002  21.467  0.00  0.00    +0.000 A 
ATOM     20  C   UNL     1      -0.767  10.438  22.851  0.00  0.00    +0.000 C 
ATOM     21  N   UNL     1      -2.490  12.595  23.237  0.00  0.00    +0.000 NA
ATOM     22  N   UNL     1      -3.322  13.300  24.048  0.00  0.00    +0.000 NA
BRANCH  11  23
ATOM     23  O   UNL     1      -4.887  15.034  24.357  0.00  0.00    +0.000 OA
BRANCH  23  25
ATOM     24  C   UNL     1      -4.674  17.299  25.080  0.00  0.00    +0.000 C 
ATOM     25  C   UNL     1      -5.017  16.389  23.917  0.00  0.00    +0.000 C 
ENDBRANCH  23  25
ENDBRANCH  11  23
ENDBRANCH   1  18
BRANCH   6  26
ATOM     26  C   UNL     1       4.858   4.886  18.258  0.00  0.00    +0.000 C 
BRANCH  26  27
ATOM     27  C   UNL     1       4.311   3.815  17.293  0.00  0.00    +0.000 C 
BRANCH  27  28
ATOM     28  N   UNL     1       3.680   2.717  18.026  0.00  0.00    +0.000 NA
ATOM     29  C   UNL     1       4.102   2.601  19.425  0.00  0.00    +0.000 C 
ATOM     30  C   UNL     1       2.834   2.610  20.248  0.00  0.00    +0.000 C 
ATOM     31  C   UNL     1       1.810   2.021  19.303  0.00  0.00    +0.000 C 
ATOM     32  C   UNL     1       2.215   2.587  17.941  0.00  0.00    +0.000 C 
ATOM     33  C   UNL     1       1.409   3.850  17.622  0.00  0.00    +0.000 C 
ENDBRANCH  27  28
ENDBRANCH  26  27
ENDBRANCH   6  26
TORSDOF 6
ENDMDL
MODEL 3
REMARK VINA RESULT:      -8.5      1.477      2.268
REMARK  Name = 
REMARK  9 active torsions:
REMARK  status: ('A' for Active; 'I' for Inactive)
REMARK    1  A    between atoms: C_1  and  C_2
REMARK    2  A    between atoms: C_2  and  O_3
REMARK    3  A    between atoms: O_3  and  C_4
REMARK    4  A    between atoms: C_11  and  C_12
REMARK    5  A    between atoms: C_17  and  C_18
REMARK    6  A    between atoms: C_18  and  C_19
REMARK    7  A    between atoms: C_19  and  N_20
REMARK    8  A    between atoms: C_24  and  C_25
REMARK    9  A    between atoms: C_30  and  C_31
REMARK                            x       y       z     vdW  Elec       q    Type
REMARK                         _______ _______ _______ _____ _____    ______ ____
ROOT
ATOM      1  C   UNL     1       0.973   8.936  20.469  0.00  0.00    +0.000 A 
ATOM      2  C   UNL     1       1.369   9.396  19.223  0.00  0.00    +0.000 A 
ATOM      3  C   UNL     1       2.009   8.502  18.370  0.00  0.00    +0.000 A 
ATOM      4  C   UNL     1       2.236   7.187  18.787  0.00  0.00    +0.000 A 
ATOM      5  C   UNL     1       2.854   6.243  17.955  0.00  0.00    +0.000 A 
ATOM      6  C   UNL     1       3.077   4.935  18.401  0.00  0.00    +0.000 A 
ATOM      7  C   UNL     1       2.697   4.592  19.702  0.00  0.00    +0.000 A 
ATOM      8  C   UNL     1       2.078   5.534  20.523  0.00  0.00    +0.000 A 
ATOM      9  C   UNL     1       1.827   6.822  20.079  0.00  0.00    +0.000 A 
ATOM     10  N   UNL     1       1.200   7.674  20.898  0.00  0.00    +0.000 NA
ENDROOT
BRANCH   1  18
ATOM     11  C   UNL     1      -3.568  14.664  22.539  0.00  0.00    +0.000 A 
ATOM     12  C   UNL     1      -3.007  14.162  23.696  0.00  0.00    +0.000 A 
ATOM     13  C   UNL     1      -2.172  13.054  23.594  0.00  0.00    +0.000 A 
ATOM     14  C   UNL     1      -1.957  12.500  22.337  0.00  0.00    +0.000 A 
ATOM     15  N   UNL     1      -1.093  11.375  22.184  0.00  0.00    +0.000 N 
ATOM     16  N   UNL     1      -0.530  10.783  23.278  0.00  0.00    +0.000 NA
ATOM     17  C   UNL     1       0.256   9.834  22.776  0.00  0.00    +0.000 A 
ATOM     18  C   UNL     1       0.207   9.768  21.373  0.00  0.00    +0.000 A 
ATOM     19  C   UNL     1      -0.698  10.753  21.003  0.00  0.00    +0.000 A 
ATOM     20  C   UNL     1      -1.181  11.171  19.652  0.00  0.00    +0.000 C 
ATOM     21  N   UNL     1      -2.541  13.019  21.234  0.00  0.00    +0.000 NA
ATOM     22  N   UNL     1      -3.354  14.104  21.333  0.00  0.00    +0.000 NA
BRANCH  11  23
ATOM     23  O   UNL     1      -4.399  15.758  22.644  0.00  0.00    +0.000 OA
BRANCH  23  25
ATOM     24  C   UNL     1      -6.584  15.024  23.269  0.00  0.00    +0.000 C 
ATOM     25  C   UNL     1      -5.289  15.640  23.760  0.00  0.00    +0.000 C 
ENDBRANCH  23  25
ENDBRANCH  11  23
ENDBRANCH   1  18
BRANCH   6  26
ATOM     26  C   UNL     1       3.762   3.937  17.504  0.00  0.00    +0.000 C 
BRANCH  26  27
ATOM     27  C   UNL     1       5.301   3.975  17.593  0.00  0.00    +0.000 C 
BRANCH  27  28
ATOM     28  N   UNL     1       5.778   5.324  17.899  0.00  0.00    +0.000 NA
ATOM     29  C   UNL     1       6.550   5.426  19.141  0.00  0.00    +0.000 C 
ATOM     30  C   UNL     1       7.862   6.080  18.767  0.00  0.00    +0.000 C 
ATOM     31  C   UNL     1       7.492   6.927  17.570  0.00  0.00    +0.000 C 
ATOM     32  C   UNL     1       6.465   6.068  16.829  0.00  0.00    +0.000 C 
ATOM     33  C   UNL     1       7.144   5.253  15.723  0.00  0.00    +0.000 C 
ENDBRANCH  27  28
ENDBRANCH  26  27
ENDBRANCH   6  26
TORSDOF 6
ENDMDL
MODEL 4
REMARK VINA RESULT:      -8.5      1.524      1.834
REMARK  Name = 
REMARK  9 active torsions:
REMARK  status: ('A' for Active; 'I' for Inactive)
REMARK    1  A    between atoms: C_1  and  C_2
REMARK    2  A    between atoms: C_2  and  O_3
REMARK    3  A    between atoms: O_3  and  C_4
REMARK    4  A    between atoms: C_11  and  C_12
REMARK    5  A    between atoms: C_17  and  C_18
REMARK    6  A    between atoms: C_18  and  C_19
REMARK    7  A    between atoms: C_19  and  N_20
REMARK    8  A    between atoms: C_24  and  C_25
REMARK    9  A    between atoms: C_30  and  C_31
REMARK                            x       y       z     vdW  Elec       q    Type
REMARK                         _______ _______ _______ _____ _____    ______ ____
ROOT
ATOM      1  C   UNL     1       1.005   9.659  19.486  0.00  0.00    +0.000 A 
ATOM      2  C   UNL     1       1.558   9.805  18.223  0.00  0.00    +0.000 A 
ATOM      3  C   UNL     1       2.303   8.748  17.710  0.00  0.00    +0.000 A 
ATOM      4  C   UNL     1       2.476   7.587  18.471  0.00  0.00    +0.000 A 
ATOM      5  C   UNL     1       3.196   6.485  17.988  0.00  0.00    +0.000 A 
ATOM      6  C   UNL     1       3.361   5.339  18.774  0.00  0.00    +0.000 A 
ATOM      7  C   UNL     1       2.817   5.321  20.062  0.00  0.00    +0.000 A 
ATOM      8  C   UNL     1       2.097   6.417  20.535  0.00  0.00    +0.000 A 
ATOM      9  C   UNL     1       1.903   7.544  19.753  0.00  0.00    +0.000 A 
ATOM     10  N   UNL     1       1.176   8.553  20.244  0.00  0.00    +0.000 NA
ENDROOT
BRANCH   1  18
ATOM     11  C   UNL     1      -5.198  14.011  20.017  0.00  0.00    +0.000 A 
ATOM     12  C   UNL     1      -4.256  14.555  20.867  0.00  0.00    +0.000 A 
ATOM     13  C   UNL     1      -3.036  13.899  21.000  0.00  0.00    +0.000 A 
ATOM     14  C   UNL     1      -2.833  12.726  20.284  0.00  0.00    +0.000 A 
ATOM     15  N   UNL     1      -1.590  12.032  20.375  0.00  0.00    +0.000 N 
ATOM     16  N   UNL     1      -0.616  12.470  21.226  0.00  0.00    +0.000 NA
ATOM     17  C   UNL     1       0.410  11.652  21.008  0.00  0.00    +0.000 A 
ATOM     18  C   UNL     1       0.128  10.665  20.048  0.00  0.00    +0.000 A 
ATOM     19  C   UNL     1      -1.185  10.903  19.670  0.00  0.00    +0.000 A 
ATOM     20  C   UNL     1      -2.058  10.190  18.688  0.00  0.00    +0.000 C 
ATOM     21  N   UNL     1      -3.793  12.225  19.474  0.00  0.00    +0.000 NA
ATOM     22  N   UNL     1      -4.983  12.867  19.342  0.00  0.00    +0.000 NA
BRANCH  11  23
ATOM     23  O   UNL     1      -6.408  14.660  19.893  0.00  0.00    +0.000 OA
BRANCH  23  25
ATOM     24  C   UNL     1      -7.838  13.504  21.417  0.00  0.00    +0.000 C 
ATOM     25  C   UNL     1      -7.072  14.786  21.154  0.00  0.00    +0.000 C 
ENDBRANCH  23  25
ENDBRANCH  11  23
ENDBRANCH   1  18
BRANCH   6  26
ATOM     26  C   UNL     1       4.156   4.171  18.251  0.00  0.00    +0.000 C 
BRANCH  26  27
ATOM     27  C   UNL     1       5.682   4.352  18.379  0.00  0.00    +0.000 C 
BRANCH  27  28
ATOM     28  N   UNL     1       6.342   4.205  17.081  0.00  0.00    +0.000 NA
ATOM     29  C   UNL     1       5.449   3.805  15.990  0.00  0.00    +0.000 C 
ATOM     30  C   UNL     1       5.637   4.831  14.895  0.00  0.00    +0.000 C 
ATOM     31  C   UNL     1       7.062   5.294  15.104  0.00  0.00    +0.000 C 
ATOM     32  C   UNL     1       7.215   5.300  16.626  0.00  0.00    +0.000 C 
ATOM     33  C   UNL     1       6.946   6.700  17.188  0.00  0.00    +0.000 C 
ENDBRANCH  27  28
ENDBRANCH  26  27
ENDBRANCH   6  26
TORSDOF 6
ENDMDL
MODEL 5
REMARK VINA RESULT:      -8.4      0.929      1.011
REMARK  Name = 
REMARK  9 active torsions:
REMARK  status: ('A' for Active; 'I' for Inactive)
REMARK    1  A    between atoms: C_1  and  C_2
REMARK    2  A    between atoms: C_2  and  O_3
REMARK    3  A    between atoms: O_3  and  C_4
REMARK    4  A    between atoms: C_11  and  C_12
REMARK    5  A    between atoms: C_17  and  C_18
REMARK    6  A    between atoms: C_18  and  C_19
REMARK    7  A    between atoms: C_19  and  N_20
REMARK    8  A    between atoms: C_24  and  C_25
REMARK    9  A    between atoms: C_30  and  C_31
REMARK                            x       y       z     vdW  Elec       q    Type
REMARK                         _______ _______ _______ _____ _____    ______ ____
ROOT
ATOM      1  C   UNL     1       0.837   9.663  19.050  0.00  0.00    +0.000 A 
ATOM      2  C   UNL     1       1.638   9.726  17.920  0.00  0.00    +0.000 A 
ATOM      3  C   UNL     1       2.504   8.666  17.673  0.00  0.00    +0.000 A 
ATOM      4  C   UNL     1       2.547   7.585  18.558  0.00  0.00    +0.000 A 
ATOM      5  C   UNL     1       3.384   6.481  18.340  0.00  0.00    +0.000 A 
ATOM      6  C   UNL     1       3.414   5.416  19.246  0.00  0.00    +0.000 A 
ATOM      7  C   UNL     1       2.612   5.481  20.390  0.00  0.00    +0.000 A 
ATOM      8  C   UNL     1       1.778   6.579  20.600  0.00  0.00    +0.000 A 
ATOM      9  C   UNL     1       1.720   7.624  19.693  0.00  0.00    +0.000 A 
ATOM     10  N   UNL     1       0.878   8.636  19.928  0.00  0.00    +0.000 NA
ENDROOT
BRANCH   1  18
ATOM     11  C   UNL     1      -3.831  13.912  23.277  0.00  0.00    +0.000 A 
ATOM     12  C   UNL     1      -4.233  14.062  21.966  0.00  0.00    +0.000 A 
ATOM     13  C   UNL     1      -3.493  13.426  20.975  0.00  0.00    +0.000 A 
ATOM     14  C   UNL     1      -2.379  12.684  21.352  0.00  0.00    +0.000 A 
ATOM     15  N   UNL     1      -1.603  11.999  20.371  0.00  0.00    +0.000 N 
ATOM     16  N   UNL     1      -1.899  12.128  19.044  0.00  0.00    +0.000 NA
ATOM     17  C   UNL     1      -1.042  11.316  18.431  0.00  0.00    +0.000 A 
ATOM     18  C   UNL     1      -0.166  10.671  19.322  0.00  0.00    +0.000 A 
ATOM     19  C   UNL     1      -0.520  11.149  20.576  0.00  0.00    +0.000 A 
ATOM     20  C   UNL     1       0.043  10.845  21.926  0.00  0.00    +0.000 C 
ATOM     21  N   UNL     1      -2.017  12.578  22.650  0.00  0.00    +0.000 NA
ATOM     22  N   UNL     1      -2.742  13.198  23.619  0.00  0.00    +0.000 NA
BRANCH  11  23
ATOM     23  O   UNL     1      -4.563  14.549  24.256  0.00  0.00    +0.000 OA
BRANCH  23  25
ATOM     24  C   UNL     1      -5.577  16.708  24.355  0.00  0.00    +0.000 C 
ATOM     25  C   UNL     1      -5.613  15.343  23.697  0.00  0.00    +0.000 C 
ENDBRANCH  23  25
ENDBRANCH  11  23
ENDBRANCH   1  18
BRANCH   6  26
ATOM     26  C   UNL     1       4.334   4.246  19.010  0.00  0.00    +0.000 C 
BRANCH  26  27
ATOM     27  C   UNL     1       5.815   4.645  18.848  0.00  0.00    +0.000 C 
BRANCH  27  28
ATOM     28  N   UNL     1       6.311   4.302  17.515  0.00  0.00    +0.000 NA
ATOM     29  C   UNL     1       5.269   3.898  16.566  0.00  0.00    +0.000 C 
ATOM     30  C   UNL     1       5.437   4.787  15.354  0.00  0.00    +0.000 C 
ATOM     31  C   UNL     1       6.914   5.110  15.371  0.00  0.00    +0.000 C 
ATOM     32  C   UNL     1       7.232   5.247  16.861  0.00  0.00    +0.000 C 
ATOM     33  C   UNL     1       7.165   6.715  17.293  0.00  0.00    +0.000 C 
ENDBRANCH  27  28
ENDBRANCH  26  27
ENDBRANCH   6  26
TORSDOF 6
ENDMDL
MODEL 6
REMARK VINA RESULT:      -8.3      2.464      3.535
REMARK  Name = 
REMARK  9 active torsions:
REMARK  status: ('A' for Active; 'I' for Inactive)
REMARK    1  A    between atoms: C_1  and  C_2
REMARK    2  A    between atoms: C_2  and  O_3
REMARK    3  A    between atoms: O_3  and  C_4
REMARK    4  A    between atoms: C_11  and  C_12
REMARK    5  A    between atoms: C_17  and  C_18
REMARK    6  A    between atoms: C_18  and  C_19
REMARK    7  A    between atoms: C_19  and  N_20
REMARK    8  A    between atoms: C_24  and  C_25
REMARK    9  A    between atoms: C_30  and  C_31
REMARK                            x       y       z     vdW  Elec       q    Type
REMARK                         _______ _______ _______ _____ _____    ______ ____
ROOT
ATOM      1  C   UNL     1       0.567  10.096  19.329  0.00  0.00    +0.000 A 
ATOM      2  C   UNL     1       1.211  10.404  18.140  0.00  0.00    +0.000 A 
ATOM      3  C   UNL     1       2.155   9.503  17.656  0.00  0.00    +0.000 A 
ATOM      4  C   UNL     1       2.428   8.333  18.371  0.00  0.00    +0.000 A 
ATOM      5  C   UNL     1       3.351   7.383  17.912  0.00  0.00    +0.000 A 
ATOM      6  C   UNL     1       3.613   6.225  18.652  0.00  0.00    +0.000 A 
ATOM      7  C   UNL     1       2.955   6.042  19.873  0.00  0.00    +0.000 A 
ATOM      8  C   UNL     1       2.034   6.988  20.322  0.00  0.00    +0.000 A 
ATOM      9  C   UNL     1       1.748   8.122  19.582  0.00  0.00    +0.000 A 
ATOM     10  N   UNL     1       0.831   8.979  20.044  0.00  0.00    +0.000 NA
ENDROOT
BRANCH   1  18
ATOM     11  C   UNL     1      -6.155  13.634  19.319  0.00  0.00    +0.000 A 
ATOM     12  C   UNL     1      -5.422  14.174  20.356  0.00  0.00    +0.000 A 
ATOM     13  C   UNL     1      -4.160  13.647  20.612  0.00  0.00    +0.000 A 
ATOM     14  C   UNL     1      -3.707  12.598  19.821  0.00  0.00    +0.000 A 
ATOM     15  N   UNL     1      -2.411  12.041  20.036  0.00  0.00    +0.000 N 
ATOM     16  N   UNL     1      -1.634  12.481  21.069  0.00  0.00    +0.000 NA
ATOM     17  C   UNL     1      -0.490  11.814  20.933  0.00  0.00    +0.000 A 
ATOM     18  C   UNL     1      -0.503  10.923  19.845  0.00  0.00    +0.000 A 
ATOM     19  C   UNL     1      -1.768  11.057  19.292  0.00  0.00    +0.000 A 
ATOM     20  C   UNL     1      -2.392  10.373  18.119  0.00  0.00    +0.000 C 
ATOM     21  N   UNL     1      -4.468  12.093  18.825  0.00  0.00    +0.000 NA
ATOM     22  N   UNL     1      -5.700  12.609  18.573  0.00  0.00    +0.000 NA
BRANCH  11  23
ATOM     23  O   UNL     1      -7.408  14.153  19.072  0.00  0.00    +0.000 OA
BRANCH  23  25
ATOM     24  C   UNL     1      -7.430  15.371  17.018  0.00  0.00    +0.000 C 
ATOM     25  C   UNL     1      -7.334  15.474  18.527  0.00  0.00    +0.000 C 
ENDBRANCH  23  25
ENDBRANCH  11  23
ENDBRANCH   1  18
BRANCH   6  26
ATOM     26  C   UNL     1       4.623   5.223  18.157  0.00  0.00    +0.000 C 
BRANCH  26  27
ATOM     27  C   UNL     1       4.056   4.225  17.127  0.00  0.00    +0.000 C 
BRANCH  27  28
ATOM     28  N   UNL     1       3.644   2.978  17.772  0.00  0.00    +0.000 NA
ATOM     29  C   UNL     1       4.244   2.750  19.089  0.00  0.00    +0.000 C 
ATOM     30  C   UNL     1       3.093   2.503  20.039  0.00  0.00    +0.000 C 
ATOM     31  C   UNL     1       2.032   1.908  19.139  0.00  0.00    +0.000 C 
ATOM     32  C   UNL     1       2.203   2.678  17.828  0.00  0.00    +0.000 C 
ATOM     33  C   UNL     1       1.230   3.860  17.768  0.00  0.00    +0.000 C 
ENDBRANCH  27  28
ENDBRANCH  26  27
ENDBRANCH   6  26
TORSDOF 6
ENDMDL
MODEL 7
REMARK VINA RESULT:      -8.3      3.662     11.605
REMARK  Name = 
REMARK  9 active torsions:
REMARK  status: ('A' for Active; 'I' for Inactive)
REMARK    1  A    between atoms: C_1  and  C_2
REMARK    2  A    between atoms: C_2  and  O_3
REMARK    3  A    between atoms: O_3  and  C_4
REMARK    4  A    between atoms: C_11  and  C_12
REMARK    5  A    between atoms: C_17  and  C_18
REMARK    6  A    between atoms: C_18  and  C_19
REMARK    7  A    between atoms: C_19  and  N_20
REMARK    8  A    between atoms: C_24  and  C_25
REMARK    9  A    between atoms: C_30  and  C_31
REMARK                            x       y       z     vdW  Elec       q    Type
REMARK                         _______ _______ _______ _____ _____    ______ ____
ROOT
ATOM      1  C   UNL     1       1.544   8.267  19.660  0.00  0.00    +0.000 A 
ATOM      2  C   UNL     1       1.286   9.343  18.825  0.00  0.00    +0.000 A 
ATOM      3  C   UNL     1       0.588  10.426  19.352  0.00  0.00    +0.000 A 
ATOM      4  C   UNL     1       0.168  10.399  20.685  0.00  0.00    +0.000 A 
ATOM      5  C   UNL     1      -0.516  11.475  21.268  0.00  0.00    +0.000 A 
ATOM      6  C   UNL     1      -0.932  11.418  22.603  0.00  0.00    +0.000 A 
ATOM      7  C   UNL     1      -0.678  10.257  23.340  0.00  0.00    +0.000 A 
ATOM      8  C   UNL     1       0.007   9.192  22.756  0.00  0.00    +0.000 A 
ATOM      9  C   UNL     1       0.449   9.252  21.445  0.00  0.00    +0.000 A 
ATOM     10  N   UNL     1       1.130   8.214  20.947  0.00  0.00    +0.000 NA
ENDROOT
BRANCH   1  18
ATOM     11  C   UNL     1       6.150   4.353  15.059  0.00  0.00    +0.000 A 
ATOM     12  C   UNL     1       5.663   3.459  15.991  0.00  0.00    +0.000 A 
ATOM     13  C   UNL     1       4.834   3.945  16.997  0.00  0.00    +0.000 A 
ATOM     14  C   UNL     1       4.549   5.305  17.021  0.00  0.00    +0.000 A 
ATOM     15  N   UNL     1       3.687   5.842  18.023  0.00  0.00    +0.000 N 
ATOM     16  N   UNL     1       3.196   5.041  19.014  0.00  0.00    +0.000 NA
ATOM     17  C   UNL     1       2.390   5.833  19.715  0.00  0.00    +0.000 A 
ATOM     18  C   UNL     1       2.355   7.150  19.225  0.00  0.00    +0.000 A 
ATOM     19  C   UNL     1       3.228   7.150  18.146  0.00  0.00    +0.000 A 
ATOM     20  C   UNL     1       3.625   8.252  17.218  0.00  0.00    +0.000 C 
ATOM     21  N   UNL     1       5.061   6.144  16.093  0.00  0.00    +0.000 NA
ATOM     22  N   UNL     1       5.869   5.669  15.109  0.00  0.00    +0.000 NA
BRANCH  11  23
ATOM     23  O   UNL     1       6.976   3.870  14.067  0.00  0.00    +0.000 OA
BRANCH  23  25
ATOM     24  C   UNL     1       5.456   3.258  12.331  0.00  0.00    +0.000 C 
ATOM     25  C   UNL     1       6.517   4.249  12.766  0.00  0.00    +0.000 C 
ENDBRANCH  23  25
ENDBRANCH  11  23
ENDBRANCH   1  18
BRANCH   6  26
ATOM     26  C   UNL     1      -1.685  12.573  23.211  0.00  0.00    +0.000 C 
BRANCH  26  27
ATOM     27  C   UNL     1      -3.183  12.287  23.438  0.00  0.00    +0.000 C 
BRANCH  27  28
ATOM     28  N   UNL     1      -4.017  13.101  22.553  0.00  0.00    +0.000 NA
ATOM     29  C   UNL     1      -4.168  12.562  21.198  0.00  0.00    +0.000 C 
ATOM     30  C   UNL     1      -5.656  12.474  20.945  0.00  0.00    +0.000 C 
ATOM     31  C   UNL     1      -6.215  13.580  21.812  0.00  0.00    +0.000 C 
ATOM     32  C   UNL     1      -5.329  13.539  23.058  0.00  0.00    +0.000 C 
ATOM     33  C   UNL     1      -5.985  12.694  24.155  0.00  0.00    +0.000 C 
ENDBRANCH  27  28
ENDBRANCH  26  27
ENDBRANCH   6  26
TORSDOF 6
ENDMDL
MODEL 8
REMARK VINA RESULT:      -8.2      3.604     11.728
REMARK  Name = 
REMARK  9 active torsions:
REMARK  status: ('A' for Active; 'I' for Inactive)
REMARK    1  A    between atoms: C_1  and  C_2
REMARK    2  A    between atoms: C_2  and  O_3
REMARK    3  A    between atoms: O_3  and  C_4
REMARK    4  A    between atoms: C_11  and  C_12
REMARK    5  A    between atoms: C_17  and  C_18
REMARK    6  A    between atoms: C_18  and  C_19
REMARK    7  A    between atoms: C_19  and  N_20
REMARK    8  A    between atoms: C_24  and  C_25
REMARK    9  A    between atoms: C_30  and  C_31
REMARK                            x       y       z     vdW  Elec       q    Type
REMARK                         _______ _______ _______ _____ _____    ______ ____
ROOT
ATOM      1  C   UNL     1       1.416   8.358  20.178  0.00  0.00    +0.000 A 
ATOM      2  C   UNL     1       1.145   8.404  21.537  0.00  0.00    +0.000 A 
ATOM      3  C   UNL     1       0.257   9.373  21.994  0.00  0.00    +0.000 A 
ATOM      4  C   UNL     1      -0.325  10.264  21.087  0.00  0.00    +0.000 A 
ATOM      5  C   UNL     1      -1.244  11.241  21.494  0.00  0.00    +0.000 A 
ATOM      6  C   UNL     1      -1.805  12.125  20.566  0.00  0.00    +0.000 A 
ATOM      7  C   UNL     1      -1.414  12.035  19.227  0.00  0.00    +0.000 A 
ATOM      8  C   UNL     1      -0.503  11.057  18.826  0.00  0.00    +0.000 A 
ATOM      9  C   UNL     1       0.034  10.159  19.733  0.00  0.00    +0.000 A 
ATOM     10  N   UNL     1       0.878   9.222  19.288  0.00  0.00    +0.000 NA
ENDROOT
BRANCH   1  18
ATOM     11  C   UNL     1       5.810   4.984  14.980  0.00  0.00    +0.000 A 
ATOM     12  C   UNL     1       5.446   4.010  15.887  0.00  0.00    +0.000 A 
ATOM     13  C   UNL     1       4.680   4.389  16.985  0.00  0.00    +0.000 A 
ATOM     14  C   UNL     1       4.332   5.727  17.121  0.00  0.00    +0.000 A 
ATOM     15  N   UNL     1       3.531   6.156  18.221  0.00  0.00    +0.000 N 
ATOM     16  N   UNL     1       3.163   5.270  19.193  0.00  0.00    +0.000 NA
ATOM     17  C   UNL     1       2.380   5.974  20.006  0.00  0.00    +0.000 A 
ATOM     18  C   UNL     1       2.242   7.315  19.607  0.00  0.00    +0.000 A 
ATOM     19  C   UNL     1       3.021   7.427  18.465  0.00  0.00    +0.000 A 
ATOM     20  C   UNL     1       3.286   8.603  17.582  0.00  0.00    +0.000 C 
ATOM     21  N   UNL     1       4.725   6.648  16.212  0.00  0.00    +0.000 NA
ATOM     22  N   UNL     1       5.471   6.278  15.138  0.00  0.00    +0.000 NA
BRANCH  11  23
ATOM     23  O   UNL     1       6.574   4.608  13.897  0.00  0.00    +0.000 OA
BRANCH  23  25
ATOM     24  C   UNL     1       5.338   3.559  12.143  0.00  0.00    +0.000 C 
ATOM     25  C   UNL     1       6.175   3.331  13.387  0.00  0.00    +0.000 C 
ENDBRANCH  23  25
ENDBRANCH  11  23
ENDBRANCH   1  18
BRANCH   6  26
ATOM     26  C   UNL     1      -2.775  13.185  21.021  0.00  0.00    +0.000 C 
BRANCH  26  27
ATOM     27  C   UNL     1      -4.249  12.851  20.711  0.00  0.00    +0.000 C 
BRANCH  27  28
ATOM     28  N   UNL     1      -4.965  12.447  21.922  0.00  0.00    +0.000 NA
ATOM     29  C   UNL     1      -4.313  12.846  23.172  0.00  0.00    +0.000 C 
ATOM     30  C   UNL     1      -5.353  13.608  23.963  0.00  0.00    +0.000 C 
ATOM     31  C   UNL     1      -6.654  13.003  23.486  0.00  0.00    +0.000 C 
ATOM     32  C   UNL     1      -6.405  12.746  21.999  0.00  0.00    +0.000 C 
ATOM     33  C   UNL     1      -6.933  13.912  21.157  0.00  0.00    +0.000 C 
ENDBRANCH  27  28
ENDBRANCH  26  27
ENDBRANCH   6  26
TORSDOF 6
ENDMDL
MODEL 9
REMARK VINA RESULT:      -8.2      1.462      1.953
REMARK  Name = 
REMARK  9 active torsions:
REMARK  status: ('A' for Active; 'I' for Inactive)
REMARK    1  A    between atoms: C_1  and  C_2
REMARK    2  A    between atoms: C_2  and  O_3
REMARK    3  A    between atoms: O_3  and  C_4
REMARK    4  A    between atoms: C_11  and  C_12
REMARK    5  A    between atoms: C_17  and  C_18
REMARK    6  A    between atoms: C_18  and  C_19
REMARK    7  A    between atoms: C_19  and  N_20
REMARK    8  A    between atoms: C_24  and  C_25
REMARK    9  A    between atoms: C_30  and  C_31
REMARK                            x       y       z     vdW  Elec       q    Type
REMARK                         _______ _______ _______ _____ _____    ______ ____
ROOT
ATOM      1  C   UNL     1       0.975   8.992  20.498  0.00  0.00    +0.000 A 
ATOM      2  C   UNL     1       1.418   9.447  19.266  0.00  0.00    +0.000 A 
ATOM      3  C   UNL     1       2.099   8.553  18.446  0.00  0.00    +0.000 A 
ATOM      4  C   UNL     1       2.320   7.242  18.880  0.00  0.00    +0.000 A 
ATOM      5  C   UNL     1       2.978   6.297  18.081  0.00  0.00    +0.000 A 
ATOM      6  C   UNL     1       3.193   4.994  18.544  0.00  0.00    +0.000 A 
ATOM      7  C   UNL     1       2.762   4.657  19.831  0.00  0.00    +0.000 A 
ATOM      8  C   UNL     1       2.103   5.599  20.620  0.00  0.00    +0.000 A 
ATOM      9  C   UNL     1       1.860   6.882  20.158  0.00  0.00    +0.000 A 
ATOM     10  N   UNL     1       1.195   7.735  20.944  0.00  0.00    +0.000 NA
ENDROOT
BRANCH   1  18
ATOM     11  C   UNL     1      -3.735  14.662  22.334  0.00  0.00    +0.000 A 
ATOM     12  C   UNL     1      -3.199  14.192  23.515  0.00  0.00    +0.000 A 
ATOM     13  C   UNL     1      -2.340  13.099  23.457  0.00  0.00    +0.000 A 
ATOM     14  C   UNL     1      -2.077  12.528  22.217  0.00  0.00    +0.000 A 
ATOM     15  N   UNL     1      -1.187  11.418  22.109  0.00  0.00    +0.000 N 
ATOM     16  N   UNL     1      -0.645  10.857  23.229  0.00  0.00    +0.000 NA
ATOM     17  C   UNL     1       0.173   9.915  22.767  0.00  0.00    +0.000 A 
ATOM     18  C   UNL     1       0.167   9.824  21.364  0.00  0.00    +0.000 A 
ATOM     19  C   UNL     1      -0.746  10.784  20.951  0.00  0.00    +0.000 A 
ATOM     20  C   UNL     1      -1.197  11.169  19.580  0.00  0.00    +0.000 C 
ATOM     21  N   UNL     1      -2.639  13.017  21.088  0.00  0.00    +0.000 NA
ATOM     22  N   UNL     1      -3.475  14.086  21.145  0.00  0.00    +0.000 NA
BRANCH  11  23
ATOM     23  O   UNL     1      -4.591  15.742  22.395  0.00  0.00    +0.000 OA
BRANCH  23  25
ATOM     24  C   UNL     1      -6.680  15.872  23.544  0.00  0.00    +0.000 C 
ATOM     25  C   UNL     1      -5.961  15.334  22.323  0.00  0.00    +0.000 C 
ENDBRANCH  23  25
ENDBRANCH  11  23
ENDBRANCH   1  18
BRANCH   6  26
ATOM     26  C   UNL     1       3.921   3.995  17.682  0.00  0.00    +0.000 C 
BRANCH  26  27
ATOM     27  C   UNL     1       5.451   4.012  17.872  0.00  0.00    +0.000 C 
BRANCH  27  28
ATOM     28  N   UNL     1       6.143   3.916  16.586  0.00  0.00    +0.000 NA
ATOM     29  C   UNL     1       5.253   3.835  15.424  0.00  0.00    +0.000 C 
ATOM     30  C   UNL     1       5.682   4.943  14.488  0.00  0.00    +0.000 C 
ATOM     31  C   UNL     1       7.153   5.103  14.802  0.00  0.00    +0.000 C 
ATOM     32  C   UNL     1       7.222   4.881  16.314  0.00  0.00    +0.000 C 
ATOM     33  C   UNL     1       7.178   6.221  17.056  0.00  0.00    +0.000 C 
ENDBRANCH  27  28
ENDBRANCH  26  27
ENDBRANCH   6  26
TORSDOF 6
ENDMDL
