MODEL 1
REMARK VINA RESULT:      -8.5      0.000      0.000
REMARK  Name = 
REMARK  5 active torsions:
REMARK  status: ('A' for Active; 'I' for Inactive)
REMARK    1  A    between atoms: C_1  and  C_2
REMARK    2  A    between atoms: C_2  and  C_3
REMARK    3  A    between atoms: C_8  and  C_9
REMARK    4  A    between atoms: C_14  and  N_15
REMARK    5  A    between atoms: C_21  and  O_22
REMARK                            x       y       z     vdW  Elec       q    Type
REMARK                         _______ _______ _______ _____ _____    ______ ____
ROOT
ATOM      1  C   UNL     1       3.191   2.637  20.340  0.00  0.00    +0.000 C 
ATOM      2  C   UNL     1       2.845   3.864  19.477  0.00  0.00    +0.000 C 
ATOM      3  C   UNL     1       1.615   3.485  18.627  0.00  0.00    +0.000 C 
ATOM      4  O   UNL     1       2.536   4.924  20.411  0.00  0.00    +0.000 OA
ATOM      5  C   UNL     1       2.396   6.166  19.853  0.00  0.00    +0.000 A 
ATOM      6  C   UNL     1       1.775   7.133  20.647  0.00  0.00    +0.000 A 
ATOM      7  C   UNL     1       1.487   8.395  20.122  0.00  0.00    +0.000 A 
ATOM      8  C   UNL     1       1.723   8.636  18.769  0.00  0.00    +0.000 A 
ATOM      9  C   UNL     1       2.301   7.640  17.979  0.00  0.00    +0.000 A 
ATOM     10  C   UNL     1       2.803   6.470  18.553  0.00  0.00    +0.000 A 
ATOM     11  C   UNL     1       3.753   5.567  17.791  0.00  0.00    +0.000 C 
ATOM     12  C   UNL     1       4.067   4.276  18.630  0.00  0.00    +0.000 C 
ENDROOT
BRANCH  11  13
ATOM     13  N   UNL     1       5.017   6.192  17.313  0.00  0.00    +0.000 NA
ATOM     14  C   UNL     1       5.238   6.332  15.876  0.00  0.00    +0.000 C 
ATOM     15  C   UNL     1       5.793   5.077  15.218  0.00  0.00    +0.000 C 
ATOM     16  C   UNL     1       7.058   4.564  15.892  0.00  0.00    +0.000 C 
ATOM     17  C   UNL     1       7.172   4.805  17.398  0.00  0.00    +0.000 C 
ATOM     18  C   UNL     1       6.259   5.879  18.011  0.00  0.00    +0.000 C 
ENDBRANCH  11  13
BRANCH   8  19
ATOM     19  C   UNL     1       1.477   9.951  18.135  0.00  0.00    +0.000 C 
ATOM     20  N   UNL     1       0.172  10.280  17.878  0.00  0.00    +0.000 N 
ATOM     21  O   UNL     1       2.381  10.746  17.918  0.00  0.00    +0.000 OA
ATOM     22  H   UNL     1      -0.593   9.772  18.298  0.00  0.00    +0.000 HD
ATOM     23  H   UNL     1       0.005  11.250  17.630  0.00  0.00    +0.000 HD
ENDBRANCH   8  19
BRANCH  12  24
ATOM     24  O   UNL     1       4.510   3.180  17.816  0.00  0.00    +0.000 OA
ATOM     25  H   UNL     1       5.302   2.794  18.225  0.00  0.00    +0.000 HD
ENDBRANCH  12  24
TORSDOF 3
ENDMDL
MODEL 2
REMARK VINA RESULT:      -7.7      0.856      1.015
REMARK  Name = 
REMARK  5 active torsions:
REMARK  status: ('A' for Active; 'I' for Inactive)
REMARK    1  A    between atoms: C_1  and  C_2
REMARK    2  A    between atoms: C_2  and  C_3
REMARK    3  A    between atoms: C_8  and  C_9
REMARK    4  A    between atoms: C_14  and  N_15
REMARK    5  A    between atoms: C_21  and  O_22
REMARK                            x       y       z     vdW  Elec       q    Type
REMARK                         _______ _______ _______ _____ _____    ______ ____
ROOT
ATOM      1  C   UNL     1       2.446   2.792  21.447  0.00  0.00    +0.000 C 
ATOM      2  C   UNL     1       2.326   3.890  20.374  0.00  0.00    +0.000 C 
ATOM      3  C   UNL     1       1.188   3.470  19.422  0.00  0.00    +0.000 C 
ATOM      4  O   UNL     1       1.995   5.102  21.092  0.00  0.00    +0.000 OA
ATOM      5  C   UNL     1       2.040   6.248  20.345  0.00  0.00    +0.000 A 
ATOM      6  C   UNL     1       1.410   7.368  20.895  0.00  0.00    +0.000 A 
ATOM      7  C   UNL     1       1.306   8.549  20.156  0.00  0.00    +0.000 A 
ATOM      8  C   UNL     1       1.737   8.560  18.830  0.00  0.00    +0.000 A 
ATOM      9  C   UNL     1       2.321   7.415  18.283  0.00  0.00    +0.000 A 
ATOM     10  C   UNL     1       2.638   6.317  19.086  0.00  0.00    +0.000 A 
ATOM     11  C   UNL     1       3.594   5.244  18.605  0.00  0.00    +0.000 C 
ATOM     12  C   UNL     1       3.680   4.081  19.659  0.00  0.00    +0.000 C 
ENDROOT
BRANCH  11  13
ATOM     13  N   UNL     1       4.960   5.698  18.226  0.00  0.00    +0.000 NA
ATOM     14  C   UNL     1       5.103   6.858  17.350  0.00  0.00    +0.000 C 
ATOM     15  C   UNL     1       4.972   6.527  15.871  0.00  0.00    +0.000 C 
ATOM     16  C   UNL     1       5.917   5.419  15.425  0.00  0.00    +0.000 C 
ATOM     17  C   UNL     1       6.250   4.350  16.467  0.00  0.00    +0.000 C 
ATOM     18  C   UNL     1       5.978   4.692  17.940  0.00  0.00    +0.000 C 
ENDBRANCH  11  13
BRANCH   8  19
ATOM     19  C   UNL     1       1.693   9.774  17.985  0.00  0.00    +0.000 C 
ATOM     20  N   UNL     1       0.470  10.369  17.818  0.00  0.00    +0.000 N 
ATOM     21  O   UNL     1       2.706  10.274  17.515  0.00  0.00    +0.000 OA
ATOM     22  H   UNL     1      -0.313  10.142  18.413  0.00  0.00    +0.000 HD
ATOM     23  H   UNL     1       0.487  11.297  17.406  0.00  0.00    +0.000 HD
ENDBRANCH   8  19
BRANCH  12  24
ATOM     24  O   UNL     1       4.126   2.844  19.082  0.00  0.00    +0.000 OA
ATOM     25  H   UNL     1       5.002   2.987  18.688  0.00  0.00    +0.000 HD
ENDBRANCH  12  24
TORSDOF 3
ENDMDL
MODEL 3
REMARK VINA RESULT:      -7.6      2.095      4.060
REMARK  Name = 
REMARK  5 active torsions:
REMARK  status: ('A' for Active; 'I' for Inactive)
REMARK    1  A    between atoms: C_1  and  C_2
REMARK    2  A    between atoms: C_2  and  C_3
REMARK    3  A    between atoms: C_8  and  C_9
REMARK    4  A    between atoms: C_14  and  N_15
REMARK    5  A    between atoms: C_21  and  O_22
REMARK                            x       y       z     vdW  Elec       q    Type
REMARK                         _______ _______ _______ _____ _____    ______ ____
ROOT
ATOM      1  C   UNL     1       5.415   6.081  15.424  0.00  0.00    +0.000 C 
ATOM      2  C   UNL     1       4.855   6.332  16.836  0.00  0.00    +0.000 C 
ATOM      3  C   UNL     1       6.004   6.922  17.678  0.00  0.00    +0.000 C 
ATOM      4  O   UNL     1       3.780   7.285  16.665  0.00  0.00    +0.000 OA
ATOM      5  C   UNL     1       3.011   7.496  17.778  0.00  0.00    +0.000 A 
ATOM      6  C   UNL     1       2.198   8.632  17.760  0.00  0.00    +0.000 A 
ATOM      7  C   UNL     1       1.466   8.989  18.894  0.00  0.00    +0.000 A 
ATOM      8  C   UNL     1       1.642   8.265  20.072  0.00  0.00    +0.000 A 
ATOM      9  C   UNL     1       2.495   7.160  20.083  0.00  0.00    +0.000 A 
ATOM     10  C   UNL     1       3.043   6.664  18.897  0.00  0.00    +0.000 A 
ATOM     11  C   UNL     1       3.648   5.275  18.834  0.00  0.00    +0.000 C 
ATOM     12  C   UNL     1       4.282   5.023  17.418  0.00  0.00    +0.000 C 
ENDROOT
BRANCH  11  13
ATOM     13  N   UNL     1       2.750   4.146  19.204  0.00  0.00    +0.000 NA
ATOM     14  C   UNL     1       3.180   3.210  20.240  0.00  0.00    +0.000 C 
ATOM     15  C   UNL     1       4.095   2.109  19.726  0.00  0.00    +0.000 C 
ATOM     16  C   UNL     1       3.502   1.346  18.549  0.00  0.00    +0.000 C 
ATOM     17  C   UNL     1       2.590   2.141  17.615  0.00  0.00    +0.000 C 
ATOM     18  C   UNL     1       2.013   3.463  18.147  0.00  0.00    +0.000 C 
ENDBRANCH  11  13
BRANCH   8  19
ATOM     19  C   UNL     1       0.885   8.553  21.311  0.00  0.00    +0.000 C 
ATOM     20  N   UNL     1       1.613   8.937  22.407  0.00  0.00    +0.000 N 
ATOM     21  O   UNL     1      -0.338   8.528  21.345  0.00  0.00    +0.000 OA
ATOM     22  H   UNL     1       2.575   9.232  22.325  0.00  0.00    +0.000 HD
ATOM     23  H   UNL     1       1.074   9.317  23.179  0.00  0.00    +0.000 HD
ENDBRANCH   8  19
BRANCH  12  24
ATOM     24  O   UNL     1       5.286   3.996  17.436  0.00  0.00    +0.000 OA
ATOM     25  H   UNL     1       5.992   4.269  18.045  0.00  0.00    +0.000 HD
ENDBRANCH  12  24
TORSDOF 3
ENDMDL
MODEL 4
REMARK VINA RESULT:      -7.6      2.003      4.392
REMARK  Name = 
REMARK  5 active torsions:
REMARK  status: ('A' for Active; 'I' for Inactive)
REMARK    1  A    between atoms: C_1  and  C_2
REMARK    2  A    between atoms: C_2  and  C_3
REMARK    3  A    between atoms: C_8  and  C_9
REMARK    4  A    between atoms: C_14  and  N_15
REMARK    5  A    between atoms: C_21  and  O_22
REMARK                            x       y       z     vdW  Elec       q    Type
REMARK                         _______ _______ _______ _____ _____    ______ ____
ROOT
ATOM      1  C   UNL     1       6.507   5.686  14.717  0.00  0.00    +0.000 C 
ATOM      2  C   UNL     1       5.894   5.701  16.130  0.00  0.00    +0.000 C 
ATOM      3  C   UNL     1       7.004   6.159  17.098  0.00  0.00    +0.000 C 
ATOM      4  O   UNL     1       4.812   6.659  16.074  0.00  0.00    +0.000 OA
ATOM      5  C   UNL     1       4.001   6.681  17.177  0.00  0.00    +0.000 A 
ATOM      6  C   UNL     1       3.172   7.798  17.312  0.00  0.00    +0.000 A 
ATOM      7  C   UNL     1       2.394   7.962  18.460  0.00  0.00    +0.000 A 
ATOM      8  C   UNL     1       2.540   7.059  19.512  0.00  0.00    +0.000 A 
ATOM      9  C   UNL     1       3.409   5.974  19.377  0.00  0.00    +0.000 A 
ATOM     10  C   UNL     1       4.006   5.680  18.149  0.00  0.00    +0.000 A 
ATOM     11  C   UNL     1       4.633   4.326  17.886  0.00  0.00    +0.000 C 
ATOM     12  C   UNL     1       5.321   4.310  16.473  0.00  0.00    +0.000 C 
ENDROOT
BRANCH  11  13
ATOM     13  N   UNL     1       3.740   3.144  18.037  0.00  0.00    +0.000 NA
ATOM     14  C   UNL     1       2.487   3.102  17.287  0.00  0.00    +0.000 C 
ATOM     15  C   UNL     1       1.348   3.852  17.959  0.00  0.00    +0.000 C 
ATOM     16  C   UNL     1       1.109   3.407  19.396  0.00  0.00    +0.000 C 
ATOM     17  C   UNL     1       2.339   2.937  20.174  0.00  0.00    +0.000 C 
ATOM     18  C   UNL     1       3.584   2.550  19.361  0.00  0.00    +0.000 C 
ENDBRANCH  11  13
BRANCH   8  19
ATOM     19  C   UNL     1       1.735   7.137  20.752  0.00  0.00    +0.000 C 
ATOM     20  N   UNL     1       1.682   8.355  21.380  0.00  0.00    +0.000 N 
ATOM     21  O   UNL     1       1.083   6.187  21.164  0.00  0.00    +0.000 OA
ATOM     22  H   UNL     1       1.974   9.201  20.915  0.00  0.00    +0.000 HD
ATOM     23  H   UNL     1       0.978   8.442  22.106  0.00  0.00    +0.000 HD
ENDBRANCH   8  19
BRANCH  12  24
ATOM     24  O   UNL     1       6.338   3.303  16.363  0.00  0.00    +0.000 OA
ATOM     25  H   UNL     1       6.380   3.010  15.438  0.00  0.00    +0.000 HD
ENDBRANCH  12  24
TORSDOF 3
ENDMDL
MODEL 5
REMARK VINA RESULT:      -7.3      1.970      4.206
REMARK  Name = 
REMARK  5 active torsions:
REMARK  status: ('A' for Active; 'I' for Inactive)
REMARK    1  A    between atoms: C_1  and  C_2
REMARK    2  A    between atoms: C_2  and  C_3
REMARK    3  A    between atoms: C_8  and  C_9
REMARK    4  A    between atoms: C_14  and  N_15
REMARK    5  A    between atoms: C_21  and  O_22
REMARK                            x       y       z     vdW  Elec       q    Type
REMARK                         _______ _______ _______ _____ _____    ______ ____
ROOT
ATOM      1  C   UNL     1       5.077   5.934  15.867  0.00  0.00    +0.000 C 
ATOM      2  C   UNL     1       4.440   6.331  17.212  0.00  0.00    +0.000 C 
ATOM      3  C   UNL     1       5.592   6.740  18.153  0.00  0.00    +0.000 C 
ATOM      4  O   UNL     1       3.573   7.450  16.918  0.00  0.00    +0.000 OA
ATOM      5  C   UNL     1       2.753   7.832  17.945  0.00  0.00    +0.000 A 
ATOM      6  C   UNL     1       2.160   9.092  17.825  0.00  0.00    +0.000 A 
ATOM      7  C   UNL     1       1.399   9.613  18.874  0.00  0.00    +0.000 A 
ATOM      8  C   UNL     1       1.332   8.912  20.077  0.00  0.00    +0.000 A 
ATOM      9  C   UNL     1       1.970   7.675  20.193  0.00  0.00    +0.000 A 
ATOM     10  C   UNL     1       2.530   7.049  19.077  0.00  0.00    +0.000 A 
ATOM     11  C   UNL     1       2.882   5.574  19.100  0.00  0.00    +0.000 C 
ATOM     12  C   UNL     1       3.592   5.164  17.759  0.00  0.00    +0.000 C 
ENDROOT
BRANCH  11  13
ATOM     13  N   UNL     1       1.767   4.634  19.402  0.00  0.00    +0.000 NA
ATOM     14  C   UNL     1       1.766   3.924  20.678  0.00  0.00    +0.000 C 
ATOM     15  C   UNL     1       2.619   2.665  20.677  0.00  0.00    +0.000 C 
ATOM     16  C   UNL     1       2.263   1.707  19.548  0.00  0.00    +0.000 C 
ATOM     17  C   UNL     1       1.758   2.343  18.252  0.00  0.00    +0.000 C 
ATOM     18  C   UNL     1       1.252   3.792  18.327  0.00  0.00    +0.000 C 
ENDBRANCH  11  13
BRANCH   8  19
ATOM     19  C   UNL     1       0.525   9.373  21.229  0.00  0.00    +0.000 C 
ATOM     20  N   UNL     1      -0.473   8.539  21.659  0.00  0.00    +0.000 N 
ATOM     21  O   UNL     1       0.777  10.412  21.824  0.00  0.00    +0.000 OA
ATOM     22  H   UNL     1      -0.516   7.573  21.369  0.00  0.00    +0.000 HD
ATOM     23  H   UNL     1      -0.882   8.772  22.558  0.00  0.00    +0.000 HD
ENDBRANCH   8  19
BRANCH  12  24
ATOM     24  O   UNL     1       4.391   3.979  17.896  0.00  0.00    +0.000 OA
ATOM     25  H   UNL     1       3.810   3.206  17.804  0.00  0.00    +0.000 HD
ENDBRANCH  12  24
TORSDOF 3
ENDMDL
MODEL 6
REMARK VINA RESULT:      -7.2      1.442      2.005
REMARK  Name = 
REMARK  5 active torsions:
REMARK  status: ('A' for Active; 'I' for Inactive)
REMARK    1  A    between atoms: C_1  and  C_2
REMARK    2  A    between atoms: C_2  and  C_3
REMARK    3  A    between atoms: C_8  and  C_9
REMARK    4  A    between atoms: C_14  and  N_15
REMARK    5  A    between atoms: C_21  and  O_22
REMARK                            x       y       z     vdW  Elec       q    Type
REMARK                         _______ _______ _______ _____ _____    ______ ____
ROOT
ATOM      1  C   UNL     1       2.040   2.015  21.605  0.00  0.00    +0.000 C 
ATOM      2  C   UNL     1       1.967   3.056  20.472  0.00  0.00    +0.000 C 
ATOM      3  C   UNL     1       0.614   2.854  19.761  0.00  0.00    +0.000 C 
ATOM      4  O   UNL     1       2.035   4.346  21.123  0.00  0.00    +0.000 OA
ATOM      5  C   UNL     1       2.188   5.413  20.279  0.00  0.00    +0.000 A 
ATOM      6  C   UNL     1       1.921   6.672  20.823  0.00  0.00    +0.000 A 
ATOM      7  C   UNL     1       1.940   7.807  20.009  0.00  0.00    +0.000 A 
ATOM      8  C   UNL     1       2.118   7.653  18.635  0.00  0.00    +0.000 A 
ATOM      9  C   UNL     1       2.338   6.380  18.104  0.00  0.00    +0.000 A 
ATOM     10  C   UNL     1       2.552   5.281  18.939  0.00  0.00    +0.000 A 
ATOM     11  C   UNL     1       3.155   3.997  18.406  0.00  0.00    +0.000 C 
ATOM     12  C   UNL     1       3.180   2.900  19.531  0.00  0.00    +0.000 C 
ENDROOT
BRANCH  11  13
ATOM     13  N   UNL     1       4.496   4.112  17.770  0.00  0.00    +0.000 NA
ATOM     14  C   UNL     1       5.640   4.501  18.591  0.00  0.00    +0.000 C 
ATOM     15  C   UNL     1       5.773   6.005  18.778  0.00  0.00    +0.000 C 
ATOM     16  C   UNL     1       5.795   6.768  17.460  0.00  0.00    +0.000 C 
ATOM     17  C   UNL     1       4.985   6.164  16.312  0.00  0.00    +0.000 C 
ATOM     18  C   UNL     1       4.588   4.684  16.430  0.00  0.00    +0.000 C 
ENDBRANCH  11  13
BRANCH   8  19
ATOM     19  C   UNL     1       2.184   8.801  17.702  0.00  0.00    +0.000 C 
ATOM     20  N   UNL     1       1.170   9.720  17.779  0.00  0.00    +0.000 N 
ATOM     21  O   UNL     1       3.132   8.971  16.948  0.00  0.00    +0.000 OA
ATOM     22  H   UNL     1       0.541   9.748  18.568  0.00  0.00    +0.000 HD
ATOM     23  H   UNL     1       1.329  10.590  17.280  0.00  0.00    +0.000 HD
ENDBRANCH   8  19
BRANCH  12  24
ATOM     24  O   UNL     1       3.241   1.566  19.003  0.00  0.00    +0.000 OA
ATOM     25  H   UNL     1       2.910   0.953  19.680  0.00  0.00    +0.000 HD
ENDBRANCH  12  24
TORSDOF 3
ENDMDL
MODEL 7
REMARK VINA RESULT:      -7.0      2.161      4.209
REMARK  Name = 
REMARK  5 active torsions:
REMARK  status: ('A' for Active; 'I' for Inactive)
REMARK    1  A    between atoms: C_1  and  C_2
REMARK    2  A    between atoms: C_2  and  C_3
REMARK    3  A    between atoms: C_8  and  C_9
REMARK    4  A    between atoms: C_14  and  N_15
REMARK    5  A    between atoms: C_21  and  O_22
REMARK                            x       y       z     vdW  Elec       q    Type
REMARK                         _______ _______ _______ _____ _____    ______ ____
ROOT
ATOM      1  C   UNL     1       6.081   5.416  15.741  0.00  0.00    +0.000 C 
ATOM      2  C   UNL     1       5.448   5.848  17.077  0.00  0.00    +0.000 C 
ATOM      3  C   UNL     1       6.485   6.728  17.803  0.00  0.00    +0.000 C 
ATOM      4  O   UNL     1       4.267   6.604  16.722  0.00  0.00    +0.000 OA
ATOM      5  C   UNL     1       3.442   6.914  17.769  0.00  0.00    +0.000 A 
ATOM      6  C   UNL     1       2.492   7.912  17.533  0.00  0.00    +0.000 A 
ATOM      7  C   UNL     1       1.683   8.373  18.574  0.00  0.00    +0.000 A 
ATOM      8  C   UNL     1       1.912   7.907  19.868  0.00  0.00    +0.000 A 
ATOM      9  C   UNL     1       2.898   6.944  20.092  0.00  0.00    +0.000 A 
ATOM     10  C   UNL     1       3.542   6.314  19.025  0.00  0.00    +0.000 A 
ATOM     11  C   UNL     1       4.320   5.029  19.227  0.00  0.00    +0.000 C 
ATOM     12  C   UNL     1       5.027   4.605  17.889  0.00  0.00    +0.000 C 
ENDROOT
BRANCH  11  13
ATOM     13  N   UNL     1       3.562   3.880  19.795  0.00  0.00    +0.000 NA
ATOM     14  C   UNL     1       3.105   2.820  18.899  0.00  0.00    +0.000 C 
ATOM     15  C   UNL     1       1.793   3.137  18.197  0.00  0.00    +0.000 C 
ATOM     16  C   UNL     1       0.680   3.517  19.163  0.00  0.00    +0.000 C 
ATOM     17  C   UNL     1       1.107   4.238  20.443  0.00  0.00    +0.000 C 
ATOM     18  C   UNL     1       2.586   4.138  20.849  0.00  0.00    +0.000 C 
ENDBRANCH  11  13
BRANCH   8  19
ATOM     19  C   UNL     1       1.084   8.317  21.024  0.00  0.00    +0.000 C 
ATOM     20  N   UNL     1       1.746   8.590  22.194  0.00  0.00    +0.000 N 
ATOM     21  O   UNL     1      -0.124   8.483  20.932  0.00  0.00    +0.000 OA
ATOM     22  H   UNL     1       2.745   8.730  22.215  0.00  0.00    +0.000 HD
ATOM     23  H   UNL     1       1.196   9.054  22.910  0.00  0.00    +0.000 HD
ENDBRANCH   8  19
BRANCH  12  24
ATOM     24  O   UNL     1       6.152   3.740  18.106  0.00  0.00    +0.000 OA
ATOM     25  H   UNL     1       6.591   4.010  18.929  0.00  0.00    +0.000 HD
ENDBRANCH  12  24
TORSDOF 3
ENDMDL
MODEL 8
REMARK VINA RESULT:      -6.8      0.941      1.436
REMARK  Name = 
REMARK  5 active torsions:
REMARK  status: ('A' for Active; 'I' for Inactive)
REMARK    1  A    between atoms: C_1  and  C_2
REMARK    2  A    between atoms: C_2  and  C_3
REMARK    3  A    between atoms: C_8  and  C_9
REMARK    4  A    between atoms: C_14  and  N_15
REMARK    5  A    between atoms: C_21  and  O_22
REMARK                            x       y       z     vdW  Elec       q    Type
REMARK                         _______ _______ _______ _____ _____    ______ ____
ROOT
ATOM      1  C   UNL     1       3.851   2.006  19.728  0.00  0.00    +0.000 C 
ATOM      2  C   UNL     1       3.363   3.234  18.937  0.00  0.00    +0.000 C 
ATOM      3  C   UNL     1       2.016   2.850  18.294  0.00  0.00    +0.000 C 
ATOM      4  O   UNL     1       3.202   4.288  19.915  0.00  0.00    +0.000 OA
ATOM      5  C   UNL     1       2.966   5.531  19.393  0.00  0.00    +0.000 A 
ATOM      6  C   UNL     1       2.475   6.491  20.282  0.00  0.00    +0.000 A 
ATOM      7  C   UNL     1       2.098   7.752  19.816  0.00  0.00    +0.000 A 
ATOM      8  C   UNL     1       2.112   8.001  18.444  0.00  0.00    +0.000 A 
ATOM      9  C   UNL     1       2.562   7.012  17.567  0.00  0.00    +0.000 A 
ATOM     10  C   UNL     1       3.157   5.843  18.046  0.00  0.00    +0.000 A 
ATOM     11  C   UNL     1       3.978   4.950  17.137  0.00  0.00    +0.000 C 
ATOM     12  C   UNL     1       4.432   3.658  17.908  0.00  0.00    +0.000 C 
ENDROOT
BRANCH  11  13
ATOM     13  N   UNL     1       5.145   5.586  16.465  0.00  0.00    +0.000 NA
ATOM     14  C   UNL     1       6.396   4.839  16.362  0.00  0.00    +0.000 C 
ATOM     15  C   UNL     1       7.264   4.927  17.608  0.00  0.00    +0.000 C 
ATOM     16  C   UNL     1       7.548   6.361  18.034  0.00  0.00    +0.000 C 
ATOM     17  C   UNL     1       6.453   7.387  17.737  0.00  0.00    +0.000 C 
ATOM     18  C   UNL     1       5.394   7.006  16.691  0.00  0.00    +0.000 C 
ENDBRANCH  11  13
BRANCH   8  19
ATOM     19  C   UNL     1       1.759   9.316  17.865  0.00  0.00    +0.000 C 
ATOM     20  N   UNL     1       0.428   9.639  17.826  0.00  0.00    +0.000 N 
ATOM     21  O   UNL     1       2.612  10.117  17.505  0.00  0.00    +0.000 OA
ATOM     22  H   UNL     1      -0.256   9.126  18.363  0.00  0.00    +0.000 HD
ATOM     23  H   UNL     1       0.218  10.609  17.614  0.00  0.00    +0.000 HD
ENDBRANCH   8  19
BRANCH  12  24
ATOM     24  O   UNL     1       4.745   2.569  17.027  0.00  0.00    +0.000 OA
ATOM     25  H   UNL     1       5.270   1.917  17.520  0.00  0.00    +0.000 HD
ENDBRANCH  12  24
TORSDOF 3
ENDMDL
MODEL 9
REMARK VINA RESULT:      -6.8      1.816      4.280
REMARK  Name = 
REMARK  5 active torsions:
REMARK  status: ('A' for Active; 'I' for Inactive)
REMARK    1  A    between atoms: C_1  and  C_2
REMARK    2  A    between atoms: C_2  and  C_3
REMARK    3  A    between atoms: C_8  and  C_9
REMARK    4  A    between atoms: C_14  and  N_15
REMARK    5  A    between atoms: C_21  and  O_22
REMARK                            x       y       z     vdW  Elec       q    Type
REMARK                         _______ _______ _______ _____ _____    ______ ____
ROOT
ATOM      1  C   UNL     1       6.065   5.533  15.347  0.00  0.00    +0.000 C 
ATOM      2  C   UNL     1       5.370   5.827  16.689  0.00  0.00    +0.000 C 
ATOM      3  C   UNL     1       6.458   6.324  17.662  0.00  0.00    +0.000 C 
ATOM      4  O   UNL     1       4.400   6.863  16.407  0.00  0.00    +0.000 OA
ATOM      5  C   UNL     1       3.528   7.133  17.427  0.00  0.00    +0.000 A 
ATOM      6  C   UNL     1       2.815   8.330  17.328  0.00  0.00    +0.000 A 
ATOM      7  C   UNL     1       1.988   8.744  18.375  0.00  0.00    +0.000 A 
ATOM      8  C   UNL     1       1.971   8.008  19.558  0.00  0.00    +0.000 A 
ATOM      9  C   UNL     1       2.728   6.838  19.655  0.00  0.00    +0.000 A 
ATOM     10  C   UNL     1       3.366   6.300  18.535  0.00  0.00    +0.000 A 
ATOM     11  C   UNL     1       3.863   4.868  18.527  0.00  0.00    +0.000 C 
ATOM     12  C   UNL     1       4.633   4.567  17.190  0.00  0.00    +0.000 C 
ENDROOT
BRANCH  11  13
ATOM     13  N   UNL     1       2.843   3.814  18.783  0.00  0.00    +0.000 NA
ATOM     14  C   UNL     1       1.501   4.213  19.198  0.00  0.00    +0.000 C 
ATOM     15  C   UNL     1       1.376   4.475  20.691  0.00  0.00    +0.000 C 
ATOM     16  C   UNL     1       1.858   3.308  21.542  0.00  0.00    +0.000 C 
ATOM     17  C   UNL     1       2.997   2.469  20.960  0.00  0.00    +0.000 C 
ATOM     18  C   UNL     1       3.260   2.585  19.450  0.00  0.00    +0.000 C 
ENDBRANCH  11  13
BRANCH   8  19
ATOM     19  C   UNL     1       1.103   8.354  20.706  0.00  0.00    +0.000 C 
ATOM     20  N   UNL     1       0.261   9.424  20.544  0.00  0.00    +0.000 N 
ATOM     21  O   UNL     1       1.075   7.680  21.726  0.00  0.00    +0.000 OA
ATOM     22  H   UNL     1       0.069   9.811  19.632  0.00  0.00    +0.000 HD
ATOM     23  H   UNL     1      -0.458   9.526  21.253  0.00  0.00    +0.000 HD
ENDBRANCH   8  19
BRANCH  12  24
ATOM     24  O   UNL     1       5.544   3.464  17.312  0.00  0.00    +0.000 OA
ATOM     25  H   UNL     1       6.235   3.562  16.637  0.00  0.00    +0.000 HD
ENDBRANCH  12  24
TORSDOF 3
ENDMDL
