MODEL 1
REMARK VINA RESULT:      -7.4      0.000      0.000
REMARK  Name = 
REMARK  3 active torsions:
REMARK  status: ('A' for Active; 'I' for Inactive)
REMARK    1  A    between atoms: C_1  and  C_2
REMARK    2  A    between atoms: C_5  and  N_6
REMARK    3  A    between atoms: C_15  and  C_16
REMARK                            x       y       z     vdW  Elec       q    Type
REMARK                         _______ _______ _______ _____ _____    ______ ____
ROOT
ATOM      1  N   UNL     1       5.705   4.344  18.289  0.00  0.00    +0.000 N 
ATOM      2  N   UNL     1       6.920   4.683  18.806  0.00  0.00    +0.000 NA
ATOM      3  N   UNL     1       7.752   4.946  17.807  0.00  0.00    +0.000 NA
ATOM      4  C   UNL     1       7.076   4.763  16.638  0.00  0.00    +0.000 A 
ATOM      5  C   UNL     1       7.457   4.947  15.306  0.00  0.00    +0.000 A 
ATOM      6  C   UNL     1       6.493   4.696  14.328  0.00  0.00    +0.000 A 
ATOM      7  C   UNL     1       5.223   4.279  14.715  0.00  0.00    +0.000 A 
ATOM      8  N   UNL     1       4.810   4.084  15.989  0.00  0.00    +0.000 NA
ATOM      9  C   UNL     1       5.778   4.341  16.903  0.00  0.00    +0.000 A 
ENDROOT
BRANCH   1  14
ATOM     10  C   UNL     1       1.300   2.883  21.673  0.00  0.00    +0.000 C 
ATOM     11  C   UNL     1       2.454   3.272  20.799  0.00  0.00    +0.000 A 
ATOM     12  C   UNL     1       3.471   2.366  20.506  0.00  0.00    +0.000 A 
ATOM     13  C   UNL     1       4.525   2.736  19.669  0.00  0.00    +0.000 A 
ATOM     14  C   UNL     1       4.591   4.028  19.115  0.00  0.00    +0.000 A 
ATOM     15  C   UNL     1       3.563   4.955  19.387  0.00  0.00    +0.000 A 
ATOM     16  C   UNL     1       3.427   6.326  18.776  0.00  0.00    +0.000 C 
ATOM     17  C   UNL     1       2.509   4.554  20.237  0.00  0.00    +0.000 A 
ENDBRANCH   1  14
TORSDOF 1
ENDMDL
MODEL 2
REMARK VINA RESULT:      -7.2      2.248      5.493
REMARK  Name = 
REMARK  3 active torsions:
REMARK  status: ('A' for Active; 'I' for Inactive)
REMARK    1  A    between atoms: C_1  and  C_2
REMARK    2  A    between atoms: C_5  and  N_6
REMARK    3  A    between atoms: C_15  and  C_16
REMARK                            x       y       z     vdW  Elec       q    Type
REMARK                         _______ _______ _______ _____ _____    ______ ____
ROOT
ATOM      1  N   UNL     1       4.164   3.983  18.291  0.00  0.00    +0.000 N 
ATOM      2  N   UNL     1       4.055   2.944  17.416  0.00  0.00    +0.000 NA
ATOM      3  N   UNL     1       3.093   2.131  17.835  0.00  0.00    +0.000 NA
ATOM      4  C   UNL     1       2.588   2.640  18.994  0.00  0.00    +0.000 A 
ATOM      5  C   UNL     1       1.543   2.214  19.817  0.00  0.00    +0.000 A 
ATOM      6  C   UNL     1       1.253   2.998  20.935  0.00  0.00    +0.000 A 
ATOM      7  C   UNL     1       2.007   4.143  21.177  0.00  0.00    +0.000 A 
ATOM      8  N   UNL     1       3.028   4.592  20.412  0.00  0.00    +0.000 NA
ATOM      9  C   UNL     1       3.271   3.801  19.338  0.00  0.00    +0.000 A 
ENDROOT
BRANCH   1  14
ATOM     10  C   UNL     1       8.091   8.110  17.557  0.00  0.00    +0.000 C 
ATOM     11  C   UNL     1       7.064   7.033  17.735  0.00  0.00    +0.000 A 
ATOM     12  C   UNL     1       7.427   5.760  18.174  0.00  0.00    +0.000 A 
ATOM     13  C   UNL     1       6.455   4.776  18.360  0.00  0.00    +0.000 A 
ATOM     14  C   UNL     1       5.097   5.040  18.101  0.00  0.00    +0.000 A 
ATOM     15  C   UNL     1       4.708   6.326  17.671  0.00  0.00    +0.000 A 
ATOM     16  C   UNL     1       3.291   6.797  17.470  0.00  0.00    +0.000 C 
ATOM     17  C   UNL     1       5.712   7.303  17.490  0.00  0.00    +0.000 A 
ENDBRANCH   1  14
TORSDOF 1
ENDMDL
MODEL 3
REMARK VINA RESULT:      -7.2      2.337      3.104
REMARK  Name = 
REMARK  3 active torsions:
REMARK  status: ('A' for Active; 'I' for Inactive)
REMARK    1  A    between atoms: C_1  and  C_2
REMARK    2  A    between atoms: C_5  and  N_6
REMARK    3  A    between atoms: C_15  and  C_16
REMARK                            x       y       z     vdW  Elec       q    Type
REMARK                         _______ _______ _______ _____ _____    ______ ____
ROOT
ATOM      1  N   UNL     1       4.652   5.629  17.533  0.00  0.00    +0.000 N 
ATOM      2  N   UNL     1       4.622   6.393  16.404  0.00  0.00    +0.000 NA
ATOM      3  N   UNL     1       5.760   7.069  16.315  0.00  0.00    +0.000 NA
ATOM      4  C   UNL     1       6.523   6.752  17.399  0.00  0.00    +0.000 A 
ATOM      5  C   UNL     1       7.814   7.136  17.769  0.00  0.00    +0.000 A 
ATOM      6  C   UNL     1       8.327   6.592  18.949  0.00  0.00    +0.000 A 
ATOM      7  C   UNL     1       7.543   5.712  19.688  0.00  0.00    +0.000 A 
ATOM      8  N   UNL     1       6.289   5.313  19.371  0.00  0.00    +0.000 NA
ATOM      9  C   UNL     1       5.835   5.866  18.219  0.00  0.00    +0.000 A 
ENDROOT
BRANCH   1  14
ATOM     10  C   UNL     1       0.409   2.001  18.881  0.00  0.00    +0.000 C 
ATOM     11  C   UNL     1       1.521   2.946  18.541  0.00  0.00    +0.000 A 
ATOM     12  C   UNL     1       2.490   2.606  17.599  0.00  0.00    +0.000 A 
ATOM     13  C   UNL     1       3.504   3.508  17.274  0.00  0.00    +0.000 A 
ATOM     14  C   UNL     1       3.578   4.769  17.895  0.00  0.00    +0.000 A 
ATOM     15  C   UNL     1       2.598   5.138  18.840  0.00  0.00    +0.000 A 
ATOM     16  C   UNL     1       2.471   6.488  19.498  0.00  0.00    +0.000 C 
ATOM     17  C   UNL     1       1.584   4.206  19.150  0.00  0.00    +0.000 A 
ENDBRANCH   1  14
TORSDOF 1
ENDMDL
MODEL 4
REMARK VINA RESULT:      -7.0      1.675      5.656
REMARK  Name = 
REMARK  3 active torsions:
REMARK  status: ('A' for Active; 'I' for Inactive)
REMARK    1  A    between atoms: C_1  and  C_2
REMARK    2  A    between atoms: C_5  and  N_6
REMARK    3  A    between atoms: C_15  and  C_16
REMARK                            x       y       z     vdW  Elec       q    Type
REMARK                         _______ _______ _______ _____ _____    ______ ____
ROOT
ATOM      1  N   UNL     1       4.486   4.183  18.414  0.00  0.00    +0.000 N 
ATOM      2  N   UNL     1       4.489   2.986  19.066  0.00  0.00    +0.000 NA
ATOM      3  N   UNL     1       3.632   3.048  20.077  0.00  0.00    +0.000 NA
ATOM      4  C   UNL     1       3.083   4.295  20.087  0.00  0.00    +0.000 A 
ATOM      5  C   UNL     1       2.102   4.871  20.898  0.00  0.00    +0.000 A 
ATOM      6  C   UNL     1       1.735   6.189  20.615  0.00  0.00    +0.000 A 
ATOM      7  C   UNL     1       2.354   6.856  19.562  0.00  0.00    +0.000 A 
ATOM      8  N   UNL     1       3.309   6.341  18.754  0.00  0.00    +0.000 NA
ATOM      9  C   UNL     1       3.631   5.062  19.065  0.00  0.00    +0.000 A 
ENDROOT
BRANCH   1  14
ATOM     10  C   UNL     1       7.566   5.087  13.651  0.00  0.00    +0.000 C 
ATOM     11  C   UNL     1       6.761   4.864  14.895  0.00  0.00    +0.000 A 
ATOM     12  C   UNL     1       5.512   4.248  14.841  0.00  0.00    +0.000 A 
ATOM     13  C   UNL     1       4.786   4.023  16.012  0.00  0.00    +0.000 A 
ATOM     14  C   UNL     1       5.289   4.422  17.265  0.00  0.00    +0.000 A 
ATOM     15  C   UNL     1       6.559   5.033  17.341  0.00  0.00    +0.000 A 
ATOM     16  C   UNL     1       7.284   5.403  18.609  0.00  0.00    +0.000 C 
ATOM     17  C   UNL     1       7.271   5.248  16.141  0.00  0.00    +0.000 A 
ENDBRANCH   1  14
TORSDOF 1
ENDMDL
MODEL 5
REMARK VINA RESULT:      -6.8      2.132      5.871
REMARK  Name = 
REMARK  3 active torsions:
REMARK  status: ('A' for Active; 'I' for Inactive)
REMARK    1  A    between atoms: C_1  and  C_2
REMARK    2  A    between atoms: C_5  and  N_6
REMARK    3  A    between atoms: C_15  and  C_16
REMARK                            x       y       z     vdW  Elec       q    Type
REMARK                         _______ _______ _______ _____ _____    ______ ____
ROOT
ATOM      1  N   UNL     1       2.801   3.933  17.777  0.00  0.00    +0.000 N 
ATOM      2  N   UNL     1       1.545   3.981  17.251  0.00  0.00    +0.000 NA
ATOM      3  N   UNL     1       0.679   3.575  18.171  0.00  0.00    +0.000 NA
ATOM      4  C   UNL     1       1.382   3.249  19.293  0.00  0.00    +0.000 A 
ATOM      5  C   UNL     1       0.966   2.818  20.555  0.00  0.00    +0.000 A 
ATOM      6  C   UNL     1       1.959   2.599  21.512  0.00  0.00    +0.000 A 
ATOM      7  C   UNL     1       3.292   2.814  21.171  0.00  0.00    +0.000 A 
ATOM      8  N   UNL     1       3.740   3.227  19.963  0.00  0.00    +0.000 NA
ATOM      9  C   UNL     1       2.742   3.427  19.068  0.00  0.00    +0.000 A 
ENDROOT
BRANCH   1  14
ATOM     10  C   UNL     1       7.451   5.343  14.714  0.00  0.00    +0.000 C 
ATOM     11  C   UNL     1       6.230   4.981  15.505  0.00  0.00    +0.000 A 
ATOM     12  C   UNL     1       5.808   3.657  15.609  0.00  0.00    +0.000 A 
ATOM     13  C   UNL     1       4.685   3.334  16.371  0.00  0.00    +0.000 A 
ATOM     14  C   UNL     1       3.949   4.331  17.037  0.00  0.00    +0.000 A 
ATOM     15  C   UNL     1       4.369   5.676  16.957  0.00  0.00    +0.000 A 
ATOM     16  C   UNL     1       3.764   6.835  17.706  0.00  0.00    +0.000 C 
ATOM     17  C   UNL     1       5.509   5.975  16.179  0.00  0.00    +0.000 A 
ENDBRANCH   1  14
TORSDOF 1
ENDMDL
MODEL 6
REMARK VINA RESULT:      -6.8      2.265      5.523
REMARK  Name = 
REMARK  3 active torsions:
REMARK  status: ('A' for Active; 'I' for Inactive)
REMARK    1  A    between atoms: C_1  and  C_2
REMARK    2  A    between atoms: C_5  and  N_6
REMARK    3  A    between atoms: C_15  and  C_16
REMARK                            x       y       z     vdW  Elec       q    Type
REMARK                         _______ _______ _______ _____ _____    ______ ____
ROOT
ATOM      1  N   UNL     1       4.814   4.153  19.228  0.00  0.00    +0.000 N 
ATOM      2  N   UNL     1       5.190   2.846  19.134  0.00  0.00    +0.000 NA
ATOM      3  N   UNL     1       4.215   2.084  19.613  0.00  0.00    +0.000 NA
ATOM      4  C   UNL     1       3.209   2.904  20.031  0.00  0.00    +0.000 A 
ATOM      5  C   UNL     1       1.947   2.628  20.564  0.00  0.00    +0.000 A 
ATOM      6  C   UNL     1       1.129   3.719  20.862  0.00  0.00    +0.000 A 
ATOM      7  C   UNL     1       1.599   5.007  20.623  0.00  0.00    +0.000 A 
ATOM      8  N   UNL     1       2.811   5.323  20.112  0.00  0.00    +0.000 NA
ATOM      9  C   UNL     1       3.569   4.233  19.838  0.00  0.00    +0.000 A 
ENDROOT
BRANCH   1  14
ATOM     10  C   UNL     1       8.316   8.369  17.511  0.00  0.00    +0.000 C 
ATOM     11  C   UNL     1       7.403   7.262  17.947  0.00  0.00    +0.000 A 
ATOM     12  C   UNL     1       7.760   6.406  18.987  0.00  0.00    +0.000 A 
ATOM     13  C   UNL     1       6.888   5.398  19.400  0.00  0.00    +0.000 A 
ATOM     14  C   UNL     1       5.642   5.215  18.771  0.00  0.00    +0.000 A 
ATOM     15  C   UNL     1       5.256   6.081  17.727  0.00  0.00    +0.000 A 
ATOM     16  C   UNL     1       3.915   6.093  17.041  0.00  0.00    +0.000 C 
ATOM     17  C   UNL     1       6.158   7.093  17.330  0.00  0.00    +0.000 A 
ENDBRANCH   1  14
TORSDOF 1
ENDMDL
MODEL 7
REMARK VINA RESULT:      -6.7      2.034      3.065
REMARK  Name = 
REMARK  3 active torsions:
REMARK  status: ('A' for Active; 'I' for Inactive)
REMARK    1  A    between atoms: C_1  and  C_2
REMARK    2  A    between atoms: C_5  and  N_6
REMARK    3  A    between atoms: C_15  and  C_16
REMARK                            x       y       z     vdW  Elec       q    Type
REMARK                         _______ _______ _______ _____ _____    ______ ____
ROOT
ATOM      1  N   UNL     1       4.232   5.332  18.434  0.00  0.00    +0.000 N 
ATOM      2  N   UNL     1       3.733   5.882  17.291  0.00  0.00    +0.000 NA
ATOM      3  N   UNL     1       4.698   6.563  16.686  0.00  0.00    +0.000 NA
ATOM      4  C   UNL     1       5.823   6.464  17.450  0.00  0.00    +0.000 A 
ATOM      5  C   UNL     1       7.121   6.945  17.258  0.00  0.00    +0.000 A 
ATOM      6  C   UNL     1       8.067   6.633  18.236  0.00  0.00    +0.000 A 
ATOM      7  C   UNL     1       7.681   5.877  19.339  0.00  0.00    +0.000 A 
ATOM      8  N   UNL     1       6.439   5.394  19.569  0.00  0.00    +0.000 NA
ATOM      9  C   UNL     1       5.556   5.720  18.593  0.00  0.00    +0.000 A 
ENDROOT
BRANCH   1  14
ATOM     10  C   UNL     1       0.988   2.229  22.016  0.00  0.00    +0.000 C 
ATOM     11  C   UNL     1       1.825   3.038  21.072  0.00  0.00    +0.000 A 
ATOM     12  C   UNL     1       2.102   4.380  21.327  0.00  0.00    +0.000 A 
ATOM     13  C   UNL     1       2.905   5.112  20.452  0.00  0.00    +0.000 A 
ATOM     14  C   UNL     1       3.441   4.520  19.293  0.00  0.00    +0.000 A 
ATOM     15  C   UNL     1       3.185   3.159  19.025  0.00  0.00    +0.000 A 
ATOM     16  C   UNL     1       3.781   2.355  17.899  0.00  0.00    +0.000 C 
ATOM     17  C   UNL     1       2.369   2.442  19.927  0.00  0.00    +0.000 A 
ENDBRANCH   1  14
TORSDOF 1
ENDMDL
MODEL 8
REMARK VINA RESULT:      -6.7      1.991      2.752
REMARK  Name = 
REMARK  3 active torsions:
REMARK  status: ('A' for Active; 'I' for Inactive)
REMARK    1  A    between atoms: C_1  and  C_2
REMARK    2  A    between atoms: C_5  and  N_6
REMARK    3  A    between atoms: C_15  and  C_16
REMARK                            x       y       z     vdW  Elec       q    Type
REMARK                         _______ _______ _______ _____ _____    ______ ____
ROOT
ATOM      1  N   UNL     1       4.335   5.432  18.511  0.00  0.00    +0.000 N 
ATOM      2  N   UNL     1       3.855   5.954  17.347  0.00  0.00    +0.000 NA
ATOM      3  N   UNL     1       4.843   6.579  16.719  0.00  0.00    +0.000 NA
ATOM      4  C   UNL     1       5.963   6.473  17.489  0.00  0.00    +0.000 A 
ATOM      5  C   UNL     1       7.276   6.902  17.280  0.00  0.00    +0.000 A 
ATOM      6  C   UNL     1       8.211   6.596  18.272  0.00  0.00    +0.000 A 
ATOM      7  C   UNL     1       7.799   5.895  19.402  0.00  0.00    +0.000 A 
ATOM      8  N   UNL     1       6.541   5.463  19.648  0.00  0.00    +0.000 NA
ATOM      9  C   UNL     1       5.670   5.781  18.658  0.00  0.00    +0.000 A 
ENDROOT
BRANCH   1  14
ATOM     10  C   UNL     1       1.152   2.226  22.058  0.00  0.00    +0.000 C 
ATOM     11  C   UNL     1       1.988   3.068  21.142  0.00  0.00    +0.000 A 
ATOM     12  C   UNL     1       2.975   2.496  20.341  0.00  0.00    +0.000 A 
ATOM     13  C   UNL     1       3.727   3.291  19.475  0.00  0.00    +0.000 A 
ATOM     14  C   UNL     1       3.516   4.680  19.399  0.00  0.00    +0.000 A 
ATOM     15  C   UNL     1       2.512   5.276  20.191  0.00  0.00    +0.000 A 
ATOM     16  C   UNL     1       2.085   6.720  20.135  0.00  0.00    +0.000 C 
ATOM     17  C   UNL     1       1.766   4.448  21.059  0.00  0.00    +0.000 A 
ENDBRANCH   1  14
TORSDOF 1
ENDMDL
MODEL 9
REMARK VINA RESULT:      -6.7      1.732      5.560
REMARK  Name = 
REMARK  3 active torsions:
REMARK  status: ('A' for Active; 'I' for Inactive)
REMARK    1  A    between atoms: C_1  and  C_2
REMARK    2  A    between atoms: C_5  and  N_6
REMARK    3  A    between atoms: C_15  and  C_16
REMARK                            x       y       z     vdW  Elec       q    Type
REMARK                         _______ _______ _______ _____ _____    ______ ____
ROOT
ATOM      1  N   UNL     1       4.605   3.542  18.884  0.00  0.00    +0.000 N 
ATOM      2  N   UNL     1       5.091   2.570  19.707  0.00  0.00    +0.000 NA
ATOM      3  N   UNL     1       4.196   2.323  20.654  0.00  0.00    +0.000 NA
ATOM      4  C   UNL     1       3.130   3.148  20.450  0.00  0.00    +0.000 A 
ATOM      5  C   UNL     1       1.908   3.267  21.116  0.00  0.00    +0.000 A 
ATOM      6  C   UNL     1       1.003   4.209  20.623  0.00  0.00    +0.000 A 
ATOM      7  C   UNL     1       1.354   4.974  19.514  0.00  0.00    +0.000 A 
ATOM      8  N   UNL     1       2.525   4.896  18.840  0.00  0.00    +0.000 NA
ATOM      9  C   UNL     1       3.370   3.969  19.354  0.00  0.00    +0.000 A 
ENDROOT
BRANCH   1  14
ATOM     10  C   UNL     1       7.391   5.335  14.193  0.00  0.00    +0.000 C 
ATOM     11  C   UNL     1       6.659   4.878  15.419  0.00  0.00    +0.000 A 
ATOM     12  C   UNL     1       5.633   3.939  15.335  0.00  0.00    +0.000 A 
ATOM     13  C   UNL     1       4.979   3.505  16.488  0.00  0.00    +0.000 A 
ATOM     14  C   UNL     1       5.329   4.011  17.754  0.00  0.00    +0.000 A 
ATOM     15  C   UNL     1       6.375   4.952  17.862  0.00  0.00    +0.000 A 
ATOM     16  C   UNL     1       6.945   5.493  19.147  0.00  0.00    +0.000 C 
ATOM     17  C   UNL     1       7.019   5.374  16.678  0.00  0.00    +0.000 A 
ENDBRANCH   1  14
TORSDOF 1
ENDMDL
