MODEL 1
REMARK VINA RESULT:      -7.7      0.000      0.000
REMARK  Name = 
REMARK  7 active torsions:
REMARK  status: ('A' for Active; 'I' for Inactive)
REMARK    1  A    between atoms: C_1  and  N_2
REMARK    2  A    between atoms: N_2  and  C_3
REMARK    3  A    between atoms: N_2  and  C_4
REMARK    4  A    between atoms: C_7  and  C_8
REMARK    5  A    between atoms: C_8  and  N_9
REMARK    6  A    between atoms: C_10  and  C_12
REMARK    7  A    between atoms: C_16  and  C_17
REMARK                            x       y       z     vdW  Elec       q    Type
REMARK                         _______ _______ _______ _____ _____    ______ ____
ROOT
ATOM      1  N   UNL     1       2.143   6.287  19.887  0.00  0.00    +0.000 N 
ATOM      2  C   UNL     1       1.681   4.991  19.816  0.00  0.00    +0.000 C 
ATOM      3  O   UNL     1       0.884   4.524  20.621  0.00  0.00    +0.000 OA
ATOM      4  H   UNL     1       2.863   6.605  19.253  0.00  0.00    +0.000 HD
ENDROOT
BRANCH   2   5
ATOM      5  C   UNL     1       2.194   4.215  18.613  0.00  0.00    +0.000 C 
ATOM      6  C   UNL     1       1.399   2.930  18.436  0.00  0.00    +0.000 C 
ATOM      7  N   UNL     1       2.241   2.084  17.581  0.00  0.00    +0.000 NA
ATOM      8  C   UNL     1       3.629   2.362  17.993  0.00  0.00    +0.000 C 
ATOM      9  C   UNL     1       3.618   3.678  18.792  0.00  0.00    +0.000 C 
ATOM     10  H   UNL     1       2.130   2.372  16.609  0.00  0.00    +0.000 HD
BRANCH   9  11
ATOM     11  C   UNL     1       4.714   4.638  18.378  0.00  0.00    +0.000 A 
ATOM     12  C   UNL     1       5.873   4.821  19.150  0.00  0.00    +0.000 A 
ATOM     13  C   UNL     1       6.837   5.759  18.776  0.00  0.00    +0.000 A 
ATOM     14  C   UNL     1       6.653   6.522  17.624  0.00  0.00    +0.000 A 
ATOM     15 CL   UNL     1       7.824   7.703  17.185  0.00  0.00    +0.000 Cl
ATOM     16  C   UNL     1       5.521   6.341  16.836  0.00  0.00    +0.000 A 
ATOM     17  C   UNL     1       4.559   5.399  17.209  0.00  0.00    +0.000 A 
ENDBRANCH   9  11
ENDBRANCH   2   5
BRANCH   1  18
ATOM     18  C   UNL     1       1.727   7.195  20.937  0.00  0.00    +0.000 C 
BRANCH  18  22
ATOM     19  C   UNL     1      -0.051  10.857  19.329  0.00  0.00    +0.000 A 
ATOM     20  C   UNL     1      -0.394  10.354  20.596  0.00  0.00    +0.000 A 
ATOM     21  C   UNL     1       0.160   9.170  21.110  0.00  0.00    +0.000 A 
ATOM     22  C   UNL     1       1.111   8.451  20.381  0.00  0.00    +0.000 A 
ATOM     23  C   UNL     1       1.477   8.935  19.123  0.00  0.00    +0.000 A 
ATOM     24  C   UNL     1       0.914  10.119  18.617  0.00  0.00    +0.000 A 
BRANCH  19  26
ATOM     25  C   UNL     1      -1.764  11.969  17.930  0.00  0.00    +0.000 C 
ATOM     26  N   UNL     1      -0.605  12.031  18.816  0.00  0.00    +0.000 N 
ATOM     27  C   UNL     1       0.234  13.222  18.712  0.00  0.00    +0.000 C 
ENDBRANCH  19  26
ENDBRANCH  18  22
ENDBRANCH   1  18
TORSDOF 5
ENDMDL
MODEL 2
REMARK VINA RESULT:      -7.7      0.740      1.201
REMARK  Name = 
REMARK  7 active torsions:
REMARK  status: ('A' for Active; 'I' for Inactive)
REMARK    1  A    between atoms: C_1  and  N_2
REMARK    2  A    between atoms: N_2  and  C_3
REMARK    3  A    between atoms: N_2  and  C_4
REMARK    4  A    between atoms: C_7  and  C_8
REMARK    5  A    between atoms: C_8  and  N_9
REMARK    6  A    between atoms: C_10  and  C_12
REMARK    7  A    between atoms: C_16  and  C_17
REMARK                            x       y       z     vdW  Elec       q    Type
REMARK                         _______ _______ _______ _____ _____    ______ ____
ROOT
ATOM      1  N   UNL     1       2.133   6.772  19.956  0.00  0.00    +0.000 N 
ATOM      2  C   UNL     1       1.925   5.411  19.897  0.00  0.00    +0.000 C 
ATOM      3  O   UNL     1       1.383   4.782  20.798  0.00  0.00    +0.000 OA
ATOM      4  H   UNL     1       2.658   7.239  19.229  0.00  0.00    +0.000 HD
ENDROOT
BRANCH   2   5
ATOM      5  C   UNL     1       2.364   4.774  18.588  0.00  0.00    +0.000 C 
ATOM      6  C   UNL     1       1.493   3.568  18.270  0.00  0.00    +0.000 C 
ATOM      7  N   UNL     1       2.265   2.797  17.288  0.00  0.00    +0.000 NA
ATOM      8  C   UNL     1       3.676   2.945  17.688  0.00  0.00    +0.000 C 
ATOM      9  C   UNL     1       3.759   4.144  18.651  0.00  0.00    +0.000 C 
ATOM     10  H   UNL     1       2.147   3.215  16.364  0.00  0.00    +0.000 HD
BRANCH   9  11
ATOM     11  C   UNL     1       4.898   5.090  18.331  0.00  0.00    +0.000 A 
ATOM     12  C   UNL     1       6.122   5.040  19.017  0.00  0.00    +0.000 A 
ATOM     13  C   UNL     1       7.130   5.966  18.743  0.00  0.00    +0.000 A 
ATOM     14  C   UNL     1       6.925   6.950  17.779  0.00  0.00    +0.000 A 
ATOM     15 CL   UNL     1       8.155   8.113  17.468  0.00  0.00    +0.000 Cl
ATOM     16  C   UNL     1       5.727   7.004  17.074  0.00  0.00    +0.000 A 
ATOM     17  C   UNL     1       4.720   6.074  17.345  0.00  0.00    +0.000 A 
ENDBRANCH   9  11
ENDBRANCH   2   5
BRANCH   1  18
ATOM     18  C   UNL     1       1.736   7.561  21.105  0.00  0.00    +0.000 C 
BRANCH  18  22
ATOM     19  C   UNL     1      -0.385  11.202  19.920  0.00  0.00    +0.000 A 
ATOM     20  C   UNL     1       0.398  10.465  19.014  0.00  0.00    +0.000 A 
ATOM     21  C   UNL     1       1.094   9.306  19.392  0.00  0.00    +0.000 A 
ATOM     22  C   UNL     1       1.012   8.817  20.699  0.00  0.00    +0.000 A 
ATOM     23  C   UNL     1       0.232   9.525  21.616  0.00  0.00    +0.000 A 
ATOM     24  C   UNL     1      -0.458  10.686  21.227  0.00  0.00    +0.000 A 
BRANCH  19  26
ATOM     25  C   UNL     1      -2.502  12.481  19.818  0.00  0.00    +0.000 C 
ATOM     26  N   UNL     1      -1.074  12.358  19.545  0.00  0.00    +0.000 N 
ATOM     27  C   UNL     1      -0.543  13.173  18.455  0.00  0.00    +0.000 C 
ENDBRANCH  19  26
ENDBRANCH  18  22
ENDBRANCH   1  18
TORSDOF 5
ENDMDL
MODEL 3
REMARK VINA RESULT:      -7.5      2.625      3.936
REMARK  Name = 
REMARK  7 active torsions:
REMARK  status: ('A' for Active; 'I' for Inactive)
REMARK    1  A    between atoms: C_1  and  N_2
REMARK    2  A    between atoms: N_2  and  C_3
REMARK    3  A    between atoms: N_2  and  C_4
REMARK    4  A    between atoms: C_7  and  C_8
REMARK    5  A    between atoms: C_8  and  N_9
REMARK    6  A    between atoms: C_10  and  C_12
REMARK    7  A    between atoms: C_16  and  C_17
REMARK                            x       y       z     vdW  Elec       q    Type
REMARK                         _______ _______ _______ _____ _____    ______ ____
ROOT
ATOM      1  N   UNL     1       4.144   5.886  19.492  0.00  0.00    +0.000 N 
ATOM      2  C   UNL     1       4.816   4.716  19.215  0.00  0.00    +0.000 C 
ATOM      3  O   UNL     1       4.289   3.612  19.294  0.00  0.00    +0.000 OA
ATOM      4  H   UNL     1       4.640   6.768  19.496  0.00  0.00    +0.000 HD
ENDROOT
BRANCH   2   5
ATOM      5  C   UNL     1       6.245   4.919  18.737  0.00  0.00    +0.000 C 
ATOM      6  C   UNL     1       7.067   5.617  19.810  0.00  0.00    +0.000 C 
ATOM      7  N   UNL     1       8.233   6.154  19.099  0.00  0.00    +0.000 NA
ATOM      8  C   UNL     1       7.731   6.577  17.778  0.00  0.00    +0.000 C 
ATOM      9  C   UNL     1       6.365   5.899  17.566  0.00  0.00    +0.000 C 
ATOM     10  H   UNL     1       8.915   5.409  18.960  0.00  0.00    +0.000 HD
BRANCH   9  11
ATOM     11  C   UNL     1       6.217   5.271  16.195  0.00  0.00    +0.000 A 
ATOM     12  C   UNL     1       5.065   4.558  15.825  0.00  0.00    +0.000 A 
ATOM     13  C   UNL     1       4.983   3.936  14.577  0.00  0.00    +0.000 A 
ATOM     14  C   UNL     1       6.051   4.025  13.686  0.00  0.00    +0.000 A 
ATOM     15 CL   UNL     1       5.962   3.229  12.164  0.00  0.00    +0.000 Cl
ATOM     16  C   UNL     1       7.192   4.745  14.027  0.00  0.00    +0.000 A 
ATOM     17  C   UNL     1       7.271   5.370  15.274  0.00  0.00    +0.000 A 
ENDBRANCH   9  11
ENDBRANCH   2   5
BRANCH   1  18
ATOM     18  C   UNL     1       2.759   5.896  19.915  0.00  0.00    +0.000 C 
BRANCH  18  22
ATOM     19  C   UNL     1       0.887   9.809  19.327  0.00  0.00    +0.000 A 
ATOM     20  C   UNL     1       1.567   9.143  18.293  0.00  0.00    +0.000 A 
ATOM     21  C   UNL     1       2.185   7.896  18.480  0.00  0.00    +0.000 A 
ATOM     22  C   UNL     1       2.121   7.245  19.715  0.00  0.00    +0.000 A 
ATOM     23  C   UNL     1       1.442   7.881  20.757  0.00  0.00    +0.000 A 
ATOM     24  C   UNL     1       0.831   9.131  20.559  0.00  0.00    +0.000 A 
BRANCH  19  26
ATOM     25  C   UNL     1       0.539  12.143  20.076  0.00  0.00    +0.000 C 
ATOM     26  N   UNL     1       0.278  11.052  19.142  0.00  0.00    +0.000 N 
ATOM     27  C   UNL     1      -0.972  11.120  18.389  0.00  0.00    +0.000 C 
ENDBRANCH  19  26
ENDBRANCH  18  22
ENDBRANCH   1  18
TORSDOF 5
ENDMDL
MODEL 4
REMARK VINA RESULT:      -7.5      3.310      7.094
REMARK  Name = 
REMARK  7 active torsions:
REMARK  status: ('A' for Active; 'I' for Inactive)
REMARK    1  A    between atoms: C_1  and  N_2
REMARK    2  A    between atoms: N_2  and  C_3
REMARK    3  A    between atoms: N_2  and  C_4
REMARK    4  A    between atoms: C_7  and  C_8
REMARK    5  A    between atoms: C_8  and  N_9
REMARK    6  A    between atoms: C_10  and  C_12
REMARK    7  A    between atoms: C_16  and  C_17
REMARK                            x       y       z     vdW  Elec       q    Type
REMARK                         _______ _______ _______ _____ _____    ______ ____
ROOT
ATOM      1  N   UNL     1       5.036   4.933  19.225  0.00  0.00    +0.000 N 
ATOM      2  C   UNL     1       4.514   3.813  19.834  0.00  0.00    +0.000 C 
ATOM      3  O   UNL     1       5.124   2.753  19.910  0.00  0.00    +0.000 OA
ATOM      4  H   UNL     1       4.467   5.761  19.110  0.00  0.00    +0.000 HD
ENDROOT
BRANCH   2   5
ATOM      5  C   UNL     1       3.146   4.029  20.461  0.00  0.00    +0.000 C 
ATOM      6  C   UNL     1       2.553   2.700  20.905  0.00  0.00    +0.000 C 
ATOM      7  N   UNL     1       1.116   2.963  21.055  0.00  0.00    +0.000 NA
ATOM      8  C   UNL     1       0.772   3.911  19.979  0.00  0.00    +0.000 C 
ATOM      9  C   UNL     1       2.089   4.525  19.469  0.00  0.00    +0.000 C 
ATOM     10  H   UNL     1       0.949   3.419  21.952  0.00  0.00    +0.000 HD
BRANCH   9  11
ATOM     11  C   UNL     1       2.024   6.031  19.311  0.00  0.00    +0.000 A 
ATOM     12  C   UNL     1       1.684   6.876  20.380  0.00  0.00    +0.000 A 
ATOM     13  C   UNL     1       1.571   8.255  20.189  0.00  0.00    +0.000 A 
ATOM     14  C   UNL     1       1.799   8.801  18.928  0.00  0.00    +0.000 A 
ATOM     15 CL   UNL     1       1.624  10.496  18.686  0.00  0.00    +0.000 Cl
ATOM     16  C   UNL     1       2.157   7.983  17.862  0.00  0.00    +0.000 A 
ATOM     17  C   UNL     1       2.274   6.604  18.055  0.00  0.00    +0.000 A 
ENDBRANCH   9  11
ENDBRANCH   2   5
BRANCH   1  18
ATOM     18  C   UNL     1       6.350   4.934  18.613  0.00  0.00    +0.000 C 
BRANCH  18  22
ATOM     19  C   UNL     1       6.161   4.050  14.330  0.00  0.00    +0.000 A 
ATOM     20  C   UNL     1       7.252   4.723  14.907  0.00  0.00    +0.000 A 
ATOM     21  C   UNL     1       7.311   5.025  16.277  0.00  0.00    +0.000 A 
ATOM     22  C   UNL     1       6.281   4.636  17.139  0.00  0.00    +0.000 A 
ATOM     23  C   UNL     1       5.190   3.957  16.593  0.00  0.00    +0.000 A 
ATOM     24  C   UNL     1       5.141   3.664  15.220  0.00  0.00    +0.000 A 
BRANCH  19  26
ATOM     25  C   UNL     1       7.169   4.194  12.074  0.00  0.00    +0.000 C 
ATOM     26  N   UNL     1       6.101   3.755  12.967  0.00  0.00    +0.000 N 
ATOM     27  C   UNL     1       4.799   3.503  12.355  0.00  0.00    +0.000 C 
ENDBRANCH  19  26
ENDBRANCH  18  22
ENDBRANCH   1  18
TORSDOF 5
ENDMDL
MODEL 5
REMARK VINA RESULT:      -7.5      0.610      1.158
REMARK  Name = 
REMARK  7 active torsions:
REMARK  status: ('A' for Active; 'I' for Inactive)
REMARK    1  A    between atoms: C_1  and  N_2
REMARK    2  A    between atoms: N_2  and  C_3
REMARK    3  A    between atoms: N_2  and  C_4
REMARK    4  A    between atoms: C_7  and  C_8
REMARK    5  A    between atoms: C_8  and  N_9
REMARK    6  A    between atoms: C_10  and  C_12
REMARK    7  A    between atoms: C_16  and  C_17
REMARK                            x       y       z     vdW  Elec       q    Type
REMARK                         _______ _______ _______ _____ _____    ______ ____
ROOT
ATOM      1  N   UNL     1       1.915   6.191  19.904  0.00  0.00    +0.000 N 
ATOM      2  C   UNL     1       1.580   4.857  19.828  0.00  0.00    +0.000 C 
ATOM      3  O   UNL     1       0.853   4.306  20.646  0.00  0.00    +0.000 OA
ATOM      4  H   UNL     1       2.584   6.585  19.257  0.00  0.00    +0.000 HD
ENDROOT
BRANCH   2   5
ATOM      5  C   UNL     1       2.135   4.147  18.603  0.00  0.00    +0.000 C 
ATOM      6  C   UNL     1       1.426   2.818  18.396  0.00  0.00    +0.000 C 
ATOM      7  N   UNL     1       2.317   2.051  17.516  0.00  0.00    +0.000 NA
ATOM      8  C   UNL     1       3.686   2.410  17.929  0.00  0.00    +0.000 C 
ATOM      9  C   UNL     1       3.593   3.702  18.761  0.00  0.00    +0.000 C 
ATOM     10  H   UNL     1       2.181   2.355  16.552  0.00  0.00    +0.000 HD
BRANCH   9  11
ATOM     11  C   UNL     1       4.621   4.743  18.367  0.00  0.00    +0.000 A 
ATOM     12  C   UNL     1       4.447   5.573  17.248  0.00  0.00    +0.000 A 
ATOM     13  C   UNL     1       5.441   6.479  16.873  0.00  0.00    +0.000 A 
ATOM     14  C   UNL     1       6.617   6.566  17.615  0.00  0.00    +0.000 A 
ATOM     15 CL   UNL     1       7.855   7.658  17.130  0.00  0.00    +0.000 Cl
ATOM     16  C   UNL     1       6.798   5.766  18.739  0.00  0.00    +0.000 A 
ATOM     17  C   UNL     1       5.802   4.863  19.116  0.00  0.00    +0.000 A 
ENDBRANCH   9  11
ENDBRANCH   2   5
BRANCH   1  18
ATOM     18  C   UNL     1       1.440   7.043  20.976  0.00  0.00    +0.000 C 
BRANCH  18  22
ATOM     19  C   UNL     1       0.794  11.156  19.625  0.00  0.00    +0.000 A 
ATOM     20  C   UNL     1       0.496  10.744  20.935  0.00  0.00    +0.000 A 
ATOM     21  C   UNL     1       0.684   9.423  21.370  0.00  0.00    +0.000 A 
ATOM     22  C   UNL     1       1.211   8.456  20.509  0.00  0.00    +0.000 A 
ATOM     23  C   UNL     1       1.526   8.841  19.204  0.00  0.00    +0.000 A 
ATOM     24  C   UNL     1       1.330  10.166  18.780  0.00  0.00    +0.000 A 
BRANCH  19  26
ATOM     25  C   UNL     1      -0.749  13.007  19.056  0.00  0.00    +0.000 C 
ATOM     26  N   UNL     1       0.602  12.470  19.192  0.00  0.00    +0.000 N 
ATOM     27  C   UNL     1       1.644  13.109  18.393  0.00  0.00    +0.000 C 
ENDBRANCH  19  26
ENDBRANCH  18  22
ENDBRANCH   1  18
TORSDOF 5
ENDMDL
MODEL 6
REMARK VINA RESULT:      -7.5      1.222      1.576
REMARK  Name = 
REMARK  7 active torsions:
REMARK  status: ('A' for Active; 'I' for Inactive)
REMARK    1  A    between atoms: C_1  and  N_2
REMARK    2  A    between atoms: N_2  and  C_3
REMARK    3  A    between atoms: N_2  and  C_4
REMARK    4  A    between atoms: C_7  and  C_8
REMARK    5  A    between atoms: C_8  and  N_9
REMARK    6  A    between atoms: C_10  and  C_12
REMARK    7  A    between atoms: C_16  and  C_17
REMARK                            x       y       z     vdW  Elec       q    Type
REMARK                         _______ _______ _______ _____ _____    ______ ____
ROOT
ATOM      1  N   UNL     1       2.125   6.350  19.656  0.00  0.00    +0.000 N 
ATOM      2  C   UNL     1       2.123   5.076  20.180  0.00  0.00    +0.000 C 
ATOM      3  O   UNL     1       2.125   4.854  21.386  0.00  0.00    +0.000 OA
ATOM      4  H   UNL     1       2.208   6.489  18.658  0.00  0.00    +0.000 HD
ENDROOT
BRANCH   2   5
ATOM      5  C   UNL     1       2.050   3.975  19.135  0.00  0.00    +0.000 C 
ATOM      6  C   UNL     1       1.061   2.903  19.566  0.00  0.00    +0.000 C 
ATOM      7  N   UNL     1       1.405   1.728  18.755  0.00  0.00    +0.000 NA
ATOM      8  C   UNL     1       2.873   1.752  18.626  0.00  0.00    +0.000 C 
ATOM      9  C   UNL     1       3.346   3.168  19.002  0.00  0.00    +0.000 C 
ATOM     10  H   UNL     1       0.998   1.831  17.825  0.00  0.00    +0.000 HD
BRANCH   9  11
ATOM     11  C   UNL     1       4.353   3.742  18.027  0.00  0.00    +0.000 A 
ATOM     12  C   UNL     1       4.120   3.760  16.642  0.00  0.00    +0.000 A 
ATOM     13  C   UNL     1       5.094   4.237  15.762  0.00  0.00    +0.000 A 
ATOM     14  C   UNL     1       6.309   4.702  16.259  0.00  0.00    +0.000 A 
ATOM     15 CL   UNL     1       7.522   5.256  15.171  0.00  0.00    +0.000 Cl
ATOM     16  C   UNL     1       6.551   4.711  17.629  0.00  0.00    +0.000 A 
ATOM     17  C   UNL     1       5.574   4.238  18.509  0.00  0.00    +0.000 A 
ENDBRANCH   9  11
ENDBRANCH   2   5
BRANCH   1  18
ATOM     18  C   UNL     1       2.144   7.529  20.498  0.00  0.00    +0.000 C 
BRANCH  18  22
ATOM     19  C   UNL     1      -0.319  10.758  18.866  0.00  0.00    +0.000 A 
ATOM     20  C   UNL     1      -0.439  10.328  20.199  0.00  0.00    +0.000 A 
ATOM     21  C   UNL     1       0.336   9.281  20.723  0.00  0.00    +0.000 A 
ATOM     22  C   UNL     1       1.292   8.635  19.935  0.00  0.00    +0.000 A 
ATOM     23  C   UNL     1       1.438   9.050  18.610  0.00  0.00    +0.000 A 
ATOM     24  C   UNL     1       0.655  10.097  18.094  0.00  0.00    +0.000 A 
BRANCH  19  26
ATOM     25  C   UNL     1      -2.204  11.501  17.443  0.00  0.00    +0.000 C 
ATOM     26  N   UNL     1      -1.093  11.796  18.343  0.00  0.00    +0.000 N 
ATOM     27  C   UNL     1      -0.510  13.132  18.246  0.00  0.00    +0.000 C 
ENDBRANCH  19  26
ENDBRANCH  18  22
ENDBRANCH   1  18
TORSDOF 5
ENDMDL
MODEL 7
REMARK VINA RESULT:      -7.5      4.596      9.518
REMARK  Name = 
REMARK  7 active torsions:
REMARK  status: ('A' for Active; 'I' for Inactive)
REMARK    1  A    between atoms: C_1  and  N_2
REMARK    2  A    between atoms: N_2  and  C_3
REMARK    3  A    between atoms: N_2  and  C_4
REMARK    4  A    between atoms: C_7  and  C_8
REMARK    5  A    between atoms: C_8  and  N_9
REMARK    6  A    between atoms: C_10  and  C_12
REMARK    7  A    between atoms: C_16  and  C_17
REMARK                            x       y       z     vdW  Elec       q    Type
REMARK                         _______ _______ _______ _____ _____    ______ ____
ROOT
ATOM      1  N   UNL     1      -0.372  10.126  17.803  0.00  0.00    +0.000 N 
ATOM      2  C   UNL     1      -1.561  10.388  18.446  0.00  0.00    +0.000 C 
ATOM      3  O   UNL     1      -1.617  10.803  19.598  0.00  0.00    +0.000 OA
ATOM      4  H   UNL     1      -0.373   9.705  16.884  0.00  0.00    +0.000 HD
ENDROOT
BRANCH   2   5
ATOM      5  C   UNL     1      -2.793  10.182  17.580  0.00  0.00    +0.000 C 
ATOM      6  C   UNL     1      -2.388   9.966  16.129  0.00  0.00    +0.000 C 
ATOM      7  N   UNL     1      -3.607  10.236  15.356  0.00  0.00    +0.000 NA
ATOM      8  C   UNL     1      -4.286  11.339  16.059  0.00  0.00    +0.000 C 
ATOM      9  C   UNL     1      -3.682  11.426  17.473  0.00  0.00    +0.000 C 
ATOM     10  H   UNL     1      -4.212   9.415  15.384  0.00  0.00    +0.000 HD
BRANCH   9  11
ATOM     11  C   UNL     1      -4.726  11.554  18.563  0.00  0.00    +0.000 A 
ATOM     12  C   UNL     1      -4.566  12.434  19.646  0.00  0.00    +0.000 A 
ATOM     13  C   UNL     1      -5.516  12.484  20.668  0.00  0.00    +0.000 A 
ATOM     14  C   UNL     1      -6.637  11.658  20.615  0.00  0.00    +0.000 A 
ATOM     15 CL   UNL     1      -7.788  11.696  21.893  0.00  0.00    +0.000 Cl
ATOM     16  C   UNL     1      -6.824  10.795  19.540  0.00  0.00    +0.000 A 
ATOM     17  C   UNL     1      -5.874  10.748  18.515  0.00  0.00    +0.000 A 
ENDBRANCH   9  11
ENDBRANCH   2   5
BRANCH   1  18
ATOM     18  C   UNL     1       0.911  10.310  18.453  0.00  0.00    +0.000 C 
BRANCH  18  22
ATOM     19  C   UNL     1       2.928   6.488  19.146  0.00  0.00    +0.000 A 
ATOM     20  C   UNL     1       2.121   7.094  20.123  0.00  0.00    +0.000 A 
ATOM     21  C   UNL     1       1.485   8.329  19.914  0.00  0.00    +0.000 A 
ATOM     22  C   UNL     1       1.610   8.999  18.693  0.00  0.00    +0.000 A 
ATOM     23  C   UNL     1       2.399   8.412  17.701  0.00  0.00    +0.000 A 
ATOM     24  C   UNL     1       3.033   7.178  17.924  0.00  0.00    +0.000 A 
BRANCH  19  26
ATOM     25  C   UNL     1       5.022   5.188  19.381  0.00  0.00    +0.000 C 
ATOM     26  N   UNL     1       3.565   5.262  19.357  0.00  0.00    +0.000 N 
ATOM     27  C   UNL     1       2.851   4.031  19.027  0.00  0.00    +0.000 C 
ENDBRANCH  19  26
ENDBRANCH  18  22
ENDBRANCH   1  18
TORSDOF 5
ENDMDL
MODEL 8
REMARK VINA RESULT:      -7.5      0.697      1.599
REMARK  Name = 
REMARK  7 active torsions:
REMARK  status: ('A' for Active; 'I' for Inactive)
REMARK    1  A    between atoms: C_1  and  N_2
REMARK    2  A    between atoms: N_2  and  C_3
REMARK    3  A    between atoms: N_2  and  C_4
REMARK    4  A    between atoms: C_7  and  C_8
REMARK    5  A    between atoms: C_8  and  N_9
REMARK    6  A    between atoms: C_10  and  C_12
REMARK    7  A    between atoms: C_16  and  C_17
REMARK                            x       y       z     vdW  Elec       q    Type
REMARK                         _______ _______ _______ _____ _____    ______ ____
ROOT
ATOM      1  N   UNL     1       1.937   6.221  19.884  0.00  0.00    +0.000 N 
ATOM      2  C   UNL     1       1.573   4.894  19.808  0.00  0.00    +0.000 C 
ATOM      3  O   UNL     1       0.822   4.363  20.618  0.00  0.00    +0.000 OA
ATOM      4  H   UNL     1       2.624   6.597  19.245  0.00  0.00    +0.000 HD
ENDROOT
BRANCH   2   5
ATOM      5  C   UNL     1       2.128   4.169  18.593  0.00  0.00    +0.000 C 
ATOM      6  C   UNL     1       1.414   2.839  18.400  0.00  0.00    +0.000 C 
ATOM      7  N   UNL     1       2.304   2.058  17.532  0.00  0.00    +0.000 NA
ATOM      8  C   UNL     1       3.674   2.417  17.942  0.00  0.00    +0.000 C 
ATOM      9  C   UNL     1       3.584   3.720  18.759  0.00  0.00    +0.000 C 
ATOM     10  H   UNL     1       2.171   2.351  16.564  0.00  0.00    +0.000 HD
BRANCH   9  11
ATOM     11  C   UNL     1       4.616   4.752  18.355  0.00  0.00    +0.000 A 
ATOM     12  C   UNL     1       4.462   5.548  17.209  0.00  0.00    +0.000 A 
ATOM     13  C   UNL     1       5.460   6.446  16.826  0.00  0.00    +0.000 A 
ATOM     14  C   UNL     1       6.621   6.559  17.588  0.00  0.00    +0.000 A 
ATOM     15 CL   UNL     1       7.866   7.640  17.095  0.00  0.00    +0.000 Cl
ATOM     16  C   UNL     1       6.783   5.793  18.738  0.00  0.00    +0.000 A 
ATOM     17  C   UNL     1       5.782   4.897  19.122  0.00  0.00    +0.000 A 
ENDBRANCH   9  11
ENDBRANCH   2   5
BRANCH   1  18
ATOM     18  C   UNL     1       1.467   7.088  20.946  0.00  0.00    +0.000 C 
BRANCH  18  22
ATOM     19  C   UNL     1       0.754  11.166  19.525  0.00  0.00    +0.000 A 
ATOM     20  C   UNL     1       1.309  10.173  18.699  0.00  0.00    +0.000 A 
ATOM     21  C   UNL     1       1.557   8.868  19.154  0.00  0.00    +0.000 A 
ATOM     22  C   UNL     1       1.229   8.492  20.460  0.00  0.00    +0.000 A 
ATOM     23  C   UNL     1       0.666   9.457  21.298  0.00  0.00    +0.000 A 
ATOM     24  C   UNL     1       0.426  10.761  20.832  0.00  0.00    +0.000 A 
BRANCH  19  26
ATOM     25  C   UNL     1       1.558  13.203  18.371  0.00  0.00    +0.000 C 
ATOM     26  N   UNL     1       0.513  12.465  19.073  0.00  0.00    +0.000 N 
ATOM     27  C   UNL     1      -0.521  13.260  19.731  0.00  0.00    +0.000 C 
ENDBRANCH  19  26
ENDBRANCH  18  22
ENDBRANCH   1  18
TORSDOF 5
ENDMDL
MODEL 9
REMARK VINA RESULT:      -7.4      1.161      1.698
REMARK  Name = 
REMARK  7 active torsions:
REMARK  status: ('A' for Active; 'I' for Inactive)
REMARK    1  A    between atoms: C_1  and  N_2
REMARK    2  A    between atoms: N_2  and  C_3
REMARK    3  A    between atoms: N_2  and  C_4
REMARK    4  A    between atoms: C_7  and  C_8
REMARK    5  A    between atoms: C_8  and  N_9
REMARK    6  A    between atoms: C_10  and  C_12
REMARK    7  A    between atoms: C_16  and  C_17
REMARK                            x       y       z     vdW  Elec       q    Type
REMARK                         _______ _______ _______ _____ _____    ______ ____
ROOT
ATOM      1  N   UNL     1       2.099   6.319  19.705  0.00  0.00    +0.000 N 
ATOM      2  C   UNL     1       2.069   5.035  20.203  0.00  0.00    +0.000 C 
ATOM      3  O   UNL     1       2.038   4.788  21.403  0.00  0.00    +0.000 OA
ATOM      4  H   UNL     1       2.208   6.477  18.712  0.00  0.00    +0.000 HD
ENDROOT
BRANCH   2   5
ATOM      5  C   UNL     1       2.007   3.957  19.133  0.00  0.00    +0.000 C 
ATOM      6  C   UNL     1       0.961   2.913  19.496  0.00  0.00    +0.000 C 
ATOM      7  N   UNL     1       1.303   1.741  18.679  0.00  0.00    +0.000 NA
ATOM      8  C   UNL     1       2.776   1.715  18.620  0.00  0.00    +0.000 C 
ATOM      9  C   UNL     1       3.279   3.107  19.046  0.00  0.00    +0.000 C 
ATOM     10  H   UNL     1       0.945   1.875  17.733  0.00  0.00    +0.000 HD
BRANCH   9  11
ATOM     11  C   UNL     1       4.351   3.661  18.130  0.00  0.00    +0.000 A 
ATOM     12  C   UNL     1       5.559   4.175  18.626  0.00  0.00    +0.000 A 
ATOM     13  C   UNL     1       6.502   4.738  17.763  0.00  0.00    +0.000 A 
ATOM     14  C   UNL     1       6.245   4.788  16.395  0.00  0.00    +0.000 A 
ATOM     15 CL   UNL     1       7.392   5.514  15.336  0.00  0.00    +0.000 Cl
ATOM     16  C   UNL     1       5.063   4.265  15.882  0.00  0.00    +0.000 A 
ATOM     17  C   UNL     1       4.122   3.699  16.746  0.00  0.00    +0.000 A 
ENDBRANCH   9  11
ENDBRANCH   2   5
BRANCH   1  18
ATOM     18  C   UNL     1       2.112   7.480  20.572  0.00  0.00    +0.000 C 
BRANCH  18  22
ATOM     19  C   UNL     1      -0.243  10.770  18.900  0.00  0.00    +0.000 A 
ATOM     20  C   UNL     1       0.723  10.084  18.145  0.00  0.00    +0.000 A 
ATOM     21  C   UNL     1       1.494   9.039  18.680  0.00  0.00    +0.000 A 
ATOM     22  C   UNL     1       1.307   8.617  19.999  0.00  0.00    +0.000 A 
ATOM     23  C   UNL     1       0.346   9.276  20.768  0.00  0.00    +0.000 A 
ATOM     24  C   UNL     1      -0.417  10.322  20.223  0.00  0.00    +0.000 A 
BRANCH  19  26
ATOM     25  C   UNL     1      -0.481  13.174  18.360  0.00  0.00    +0.000 C 
ATOM     26  N   UNL     1      -1.005  11.812  18.369  0.00  0.00    +0.000 N 
ATOM     27  C   UNL     1      -2.458  11.670  18.321  0.00  0.00    +0.000 C 
ENDBRANCH  19  26
ENDBRANCH  18  22
ENDBRANCH   1  18
TORSDOF 5
ENDMDL
