MODEL 1
REMARK VINA RESULT:      -6.7      0.000      0.000
REMARK  Name = 
REMARK  6 active torsions:
REMARK  status: ('A' for Active; 'I' for Inactive)
REMARK    1  A    between atoms: C_1  and  N_2
REMARK    2  A    between atoms: N_5  and  C_6
REMARK    3  A    between atoms: C_6  and  C_7
REMARK    4  A    between atoms: C_13  and  C_14
REMARK    5  A    between atoms: C_14  and  C_15
REMARK    6  A    between atoms: C_15  and  O_16
REMARK                            x       y       z     vdW  Elec       q    Type
REMARK                         _______ _______ _______ _____ _____    ______ ____
ROOT
ATOM      1  C   UNL     1       6.360   4.213  14.185  0.00  0.00    +0.000 C 
ATOM      2  N   UNL     1       6.344   4.634  15.583  0.00  0.00    +0.000 NA
ATOM      3  C   UNL     1       5.509   3.743  16.408  0.00  0.00    +0.000 C 
ATOM      4  C   UNL     1       5.377   4.232  17.876  0.00  0.00    +0.000 C 
ATOM      5  N   UNL     1       4.982   5.657  18.048  0.00  0.00    +0.000 NA
ATOM      6  C   UNL     1       5.833   6.514  17.174  0.00  0.00    +0.000 C 
ATOM      7  C   UNL     1       5.866   6.021  15.701  0.00  0.00    +0.000 C 
ENDROOT
BRANCH   5   8
ATOM      8  C   UNL     1       3.537   5.800  17.762  0.00  0.00    +0.000 C 
BRANCH   8   9
ATOM      9  C   UNL     1       2.611   4.937  18.596  0.00  0.00    +0.000 A 
ATOM     10  C   UNL     1       2.459   5.183  19.971  0.00  0.00    +0.000 A 
ATOM     11  C   UNL     1       1.558   4.444  20.736  0.00  0.00    +0.000 A 
ATOM     12  C   UNL     1       0.782   3.453  20.136  0.00  0.00    +0.000 A 
ATOM     13  C   UNL     1       0.931   3.191  18.775  0.00  0.00    +0.000 A 
ATOM     14  C   UNL     1       1.847   3.918  18.010  0.00  0.00    +0.000 A 
ENDBRANCH   8   9
ENDBRANCH   5   8
BRANCH   6  15
ATOM     15  C   UNL     1       7.271   6.650  17.735  0.00  0.00    +0.000 C 
BRANCH  15  16
ATOM     16  C   UNL     1       7.791   8.080  17.654  0.00  0.00    +0.000 C 
BRANCH  16  17
ATOM     17  O   UNL     1       8.661   8.343  18.753  0.00  0.00    +0.000 OA
ATOM     18  H   UNL     1       9.178   7.534  18.905  0.00  0.00    +0.000 HD
ENDBRANCH  16  17
ENDBRANCH  15  16
ENDBRANCH   6  15
TORSDOF 5
ENDMDL
MODEL 2
REMARK VINA RESULT:      -6.6      2.292      3.474
REMARK  Name = 
REMARK  6 active torsions:
REMARK  status: ('A' for Active; 'I' for Inactive)
REMARK    1  A    between atoms: C_1  and  N_2
REMARK    2  A    between atoms: N_5  and  C_6
REMARK    3  A    between atoms: C_6  and  C_7
REMARK    4  A    between atoms: C_13  and  C_14
REMARK    5  A    between atoms: C_14  and  C_15
REMARK    6  A    between atoms: C_15  and  O_16
REMARK                            x       y       z     vdW  Elec       q    Type
REMARK                         _______ _______ _______ _____ _____    ______ ____
ROOT
ATOM      1  C   UNL     1       7.650   7.312  17.428  0.00  0.00    +0.000 C 
ATOM      2  N   UNL     1       6.554   6.558  16.825  0.00  0.00    +0.000 NA
ATOM      3  C   UNL     1       5.306   6.710  17.592  0.00  0.00    +0.000 C 
ATOM      4  C   UNL     1       4.151   5.827  17.042  0.00  0.00    +0.000 C 
ATOM      5  N   UNL     1       4.485   4.392  16.827  0.00  0.00    +0.000 NA
ATOM      6  C   UNL     1       5.768   4.291  16.074  0.00  0.00    +0.000 C 
ATOM      7  C   UNL     1       6.905   5.134  16.714  0.00  0.00    +0.000 C 
ENDROOT
BRANCH   5   8
ATOM      8  C   UNL     1       4.528   3.701  18.134  0.00  0.00    +0.000 C 
BRANCH   8   9
ATOM      9  C   UNL     1       3.201   3.563  18.853  0.00  0.00    +0.000 A 
ATOM     10  C   UNL     1       2.166   2.798  18.290  0.00  0.00    +0.000 A 
ATOM     11  C   UNL     1       0.965   2.605  18.972  0.00  0.00    +0.000 A 
ATOM     12  C   UNL     1       0.783   3.163  20.236  0.00  0.00    +0.000 A 
ATOM     13  C   UNL     1       1.798   3.934  20.803  0.00  0.00    +0.000 A 
ATOM     14  C   UNL     1       2.995   4.145  20.113  0.00  0.00    +0.000 A 
ENDBRANCH   8   9
ENDBRANCH   5   8
BRANCH   6  15
ATOM     15  C   UNL     1       5.585   4.666  14.582  0.00  0.00    +0.000 C 
BRANCH  15  16
ATOM     16  C   UNL     1       6.734   4.166  13.715  0.00  0.00    +0.000 C 
BRANCH  16  17
ATOM     17  O   UNL     1       6.297   3.070  12.914  0.00  0.00    +0.000 OA
ATOM     18  H   UNL     1       5.968   2.388  13.524  0.00  0.00    +0.000 HD
ENDBRANCH  16  17
ENDBRANCH  15  16
ENDBRANCH   6  15
TORSDOF 5
ENDMDL
MODEL 3
REMARK VINA RESULT:      -6.6      2.273      3.259
REMARK  Name = 
REMARK  6 active torsions:
REMARK  status: ('A' for Active; 'I' for Inactive)
REMARK    1  A    between atoms: C_1  and  N_2
REMARK    2  A    between atoms: N_5  and  C_6
REMARK    3  A    between atoms: C_6  and  C_7
REMARK    4  A    between atoms: C_13  and  C_14
REMARK    5  A    between atoms: C_14  and  C_15
REMARK    6  A    between atoms: C_15  and  O_16
REMARK                            x       y       z     vdW  Elec       q    Type
REMARK                         _______ _______ _______ _____ _____    ______ ____
ROOT
ATOM      1  C   UNL     1       7.597   7.510  17.405  0.00  0.00    +0.000 C 
ATOM      2  N   UNL     1       6.518   6.708  16.834  0.00  0.00    +0.000 NA
ATOM      3  C   UNL     1       5.270   6.852  17.603  0.00  0.00    +0.000 C 
ATOM      4  C   UNL     1       4.137   5.922  17.090  0.00  0.00    +0.000 C 
ATOM      5  N   UNL     1       4.507   4.490  16.920  0.00  0.00    +0.000 NA
ATOM      6  C   UNL     1       5.788   4.397  16.164  0.00  0.00    +0.000 C 
ATOM      7  C   UNL     1       6.906   5.290  16.768  0.00  0.00    +0.000 C 
ENDROOT
BRANCH   5   8
ATOM      8  C   UNL     1       4.576   3.844  18.250  0.00  0.00    +0.000 C 
BRANCH   8   9
ATOM      9  C   UNL     1       3.244   3.553  18.912  0.00  0.00    +0.000 A 
ATOM     10  C   UNL     1       2.919   4.147  20.143  0.00  0.00    +0.000 A 
ATOM     11  C   UNL     1       1.670   3.945  20.729  0.00  0.00    +0.000 A 
ATOM     12  C   UNL     1       0.718   3.156  20.087  0.00  0.00    +0.000 A 
ATOM     13  C   UNL     1       1.031   2.551  18.870  0.00  0.00    +0.000 A 
ATOM     14  C   UNL     1       2.288   2.736  18.290  0.00  0.00    +0.000 A 
ENDBRANCH   8   9
ENDBRANCH   5   8
BRANCH   6  15
ATOM     15  C   UNL     1       5.588   4.717  14.661  0.00  0.00    +0.000 C 
BRANCH  15  16
ATOM     16  C   UNL     1       6.734   4.199  13.801  0.00  0.00    +0.000 C 
BRANCH  16  17
ATOM     17  O   UNL     1       6.279   3.127  12.980  0.00  0.00    +0.000 OA
ATOM     18  H   UNL     1       6.488   3.365  12.061  0.00  0.00    +0.000 HD
ENDBRANCH  16  17
ENDBRANCH  15  16
ENDBRANCH   6  15
TORSDOF 5
ENDMDL
MODEL 4
REMARK VINA RESULT:      -6.6      2.029      3.039
REMARK  Name = 
REMARK  6 active torsions:
REMARK  status: ('A' for Active; 'I' for Inactive)
REMARK    1  A    between atoms: C_1  and  N_2
REMARK    2  A    between atoms: N_5  and  C_6
REMARK    3  A    between atoms: C_6  and  C_7
REMARK    4  A    between atoms: C_13  and  C_14
REMARK    5  A    between atoms: C_14  and  C_15
REMARK    6  A    between atoms: C_15  and  O_16
REMARK                            x       y       z     vdW  Elec       q    Type
REMARK                         _______ _______ _______ _____ _____    ______ ____
ROOT
ATOM      1  C   UNL     1       7.718   5.839  19.118  0.00  0.00    +0.000 C 
ATOM      2  N   UNL     1       6.600   5.600  18.208  0.00  0.00    +0.000 NA
ATOM      3  C   UNL     1       5.317   5.544  18.930  0.00  0.00    +0.000 C 
ATOM      4  C   UNL     1       4.123   5.175  18.006  0.00  0.00    +0.000 C 
ATOM      5  N   UNL     1       4.319   3.972  17.152  0.00  0.00    +0.000 NA
ATOM      6  C   UNL     1       5.640   4.061  16.467  0.00  0.00    +0.000 C 
ATOM      7  C   UNL     1       6.805   4.355  17.451  0.00  0.00    +0.000 C 
ENDROOT
BRANCH   5   8
ATOM      8  C   UNL     1       4.183   2.756  17.985  0.00  0.00    +0.000 C 
BRANCH   8   9
ATOM      9  C   UNL     1       3.082   2.789  19.026  0.00  0.00    +0.000 A 
ATOM     10  C   UNL     1       3.399   2.759  20.394  0.00  0.00    +0.000 A 
ATOM     11  C   UNL     1       2.402   2.860  21.363  0.00  0.00    +0.000 A 
ATOM     12  C   UNL     1       1.070   3.006  20.981  0.00  0.00    +0.000 A 
ATOM     13  C   UNL     1       0.739   3.025  19.626  0.00  0.00    +0.000 A 
ATOM     14  C   UNL     1       1.735   2.906  18.653  0.00  0.00    +0.000 A 
ENDBRANCH   8   9
ENDBRANCH   5   8
BRANCH   6  15
ATOM     15  C   UNL     1       5.618   5.102  15.321  0.00  0.00    +0.000 C 
BRANCH  15  16
ATOM     16  C   UNL     1       6.630   4.780  14.227  0.00  0.00    +0.000 C 
BRANCH  16  17
ATOM     17  O   UNL     1       7.795   5.587  14.391  0.00  0.00    +0.000 OA
ATOM     18  H   UNL     1       7.918   5.717  15.347  0.00  0.00    +0.000 HD
ENDBRANCH  16  17
ENDBRANCH  15  16
ENDBRANCH   6  15
TORSDOF 5
ENDMDL
MODEL 5
REMARK VINA RESULT:      -6.5      1.050      1.050
REMARK  Name = 
REMARK  6 active torsions:
REMARK  status: ('A' for Active; 'I' for Inactive)
REMARK    1  A    between atoms: C_1  and  N_2
REMARK    2  A    between atoms: N_5  and  C_6
REMARK    3  A    between atoms: C_6  and  C_7
REMARK    4  A    between atoms: C_13  and  C_14
REMARK    5  A    between atoms: C_14  and  C_15
REMARK    6  A    between atoms: C_15  and  O_16
REMARK                            x       y       z     vdW  Elec       q    Type
REMARK                         _______ _______ _______ _____ _____    ______ ____
ROOT
ATOM      1  C   UNL     1       5.665   4.234  14.094  0.00  0.00    +0.000 C 
ATOM      2  N   UNL     1       5.927   4.440  15.516  0.00  0.00    +0.000 NA
ATOM      3  C   UNL     1       5.052   3.605  16.356  0.00  0.00    +0.000 C 
ATOM      4  C   UNL     1       5.226   3.888  17.873  0.00  0.00    +0.000 C 
ATOM      5  N   UNL     1       5.156   5.320  18.273  0.00  0.00    +0.000 NA
ATOM      6  C   UNL     1       6.033   6.127  17.378  0.00  0.00    +0.000 C 
ATOM      7  C   UNL     1       5.761   5.858  15.873  0.00  0.00    +0.000 C 
ENDROOT
BRANCH   5   8
ATOM      8  C   UNL     1       3.744   5.764  18.248  0.00  0.00    +0.000 C 
BRANCH   8   9
ATOM      9  C   UNL     1       2.757   4.865  18.966  0.00  0.00    +0.000 A 
ATOM     10  C   UNL     1       2.731   4.820  20.370  0.00  0.00    +0.000 A 
ATOM     11  C   UNL     1       1.782   4.052  21.044  0.00  0.00    +0.000 A 
ATOM     12  C   UNL     1       0.833   3.327  20.326  0.00  0.00    +0.000 A 
ATOM     13  C   UNL     1       0.854   3.354  18.932  0.00  0.00    +0.000 A 
ATOM     14  C   UNL     1       1.816   4.108  18.253  0.00  0.00    +0.000 A 
ENDBRANCH   8   9
ENDBRANCH   5   8
BRANCH   6  15
ATOM     15  C   UNL     1       7.532   5.915  17.707  0.00  0.00    +0.000 C 
BRANCH  15  16
ATOM     16  C   UNL     1       7.913   6.490  19.066  0.00  0.00    +0.000 C 
BRANCH  16  17
ATOM     17  O   UNL     1       7.703   5.512  20.083  0.00  0.00    +0.000 OA
ATOM     18  H   UNL     1       8.157   4.702  19.795  0.00  0.00    +0.000 HD
ENDBRANCH  16  17
ENDBRANCH  15  16
ENDBRANCH   6  15
TORSDOF 5
ENDMDL
MODEL 6
REMARK VINA RESULT:      -6.5      2.079      2.452
REMARK  Name = 
REMARK  6 active torsions:
REMARK  status: ('A' for Active; 'I' for Inactive)
REMARK    1  A    between atoms: C_1  and  N_2
REMARK    2  A    between atoms: N_5  and  C_6
REMARK    3  A    between atoms: C_6  and  C_7
REMARK    4  A    between atoms: C_13  and  C_14
REMARK    5  A    between atoms: C_14  and  C_15
REMARK    6  A    between atoms: C_15  and  O_16
REMARK                            x       y       z     vdW  Elec       q    Type
REMARK                         _______ _______ _______ _____ _____    ______ ____
ROOT
ATOM      1  C   UNL     1       6.602   4.359  14.751  0.00  0.00    +0.000 C 
ATOM      2  N   UNL     1       6.201   5.037  15.980  0.00  0.00    +0.000 NA
ATOM      3  C   UNL     1       7.015   4.605  17.129  0.00  0.00    +0.000 C 
ATOM      4  C   UNL     1       6.535   5.221  18.472  0.00  0.00    +0.000 C 
ATOM      5  N   UNL     1       5.081   5.087  18.758  0.00  0.00    +0.000 NA
ATOM      6  C   UNL     1       4.301   5.507  17.559  0.00  0.00    +0.000 C 
ATOM      7  C   UNL     1       4.775   4.801  16.260  0.00  0.00    +0.000 C 
ENDROOT
BRANCH   5   8
ATOM      8  C   UNL     1       4.793   3.697  19.175  0.00  0.00    +0.000 C 
BRANCH   8   9
ATOM      9  C   UNL     1       3.336   3.375  19.437  0.00  0.00    +0.000 A 
ATOM     10  C   UNL     1       2.651   3.996  20.494  0.00  0.00    +0.000 A 
ATOM     11  C   UNL     1       1.292   3.763  20.704  0.00  0.00    +0.000 A 
ATOM     12  C   UNL     1       0.591   2.913  19.851  0.00  0.00    +0.000 A 
ATOM     13  C   UNL     1       1.260   2.281  18.804  0.00  0.00    +0.000 A 
ATOM     14  C   UNL     1       2.626   2.498  18.603  0.00  0.00    +0.000 A 
ENDBRANCH   8   9
ENDBRANCH   5   8
BRANCH   6  15
ATOM     15  C   UNL     1       4.314   7.046  17.380  0.00  0.00    +0.000 C 
BRANCH  15  16
ATOM     16  C   UNL     1       3.026   7.697  17.868  0.00  0.00    +0.000 C 
BRANCH  16  17
ATOM     17  O   UNL     1       2.646   7.139  19.125  0.00  0.00    +0.000 OA
ATOM     18  H   UNL     1       3.276   7.474  19.785  0.00  0.00    +0.000 HD
ENDBRANCH  16  17
ENDBRANCH  15  16
ENDBRANCH   6  15
TORSDOF 5
ENDMDL
MODEL 7
REMARK VINA RESULT:      -6.4      2.060      2.725
REMARK  Name = 
REMARK  6 active torsions:
REMARK  status: ('A' for Active; 'I' for Inactive)
REMARK    1  A    between atoms: C_1  and  N_2
REMARK    2  A    between atoms: N_5  and  C_6
REMARK    3  A    between atoms: C_6  and  C_7
REMARK    4  A    between atoms: C_13  and  C_14
REMARK    5  A    between atoms: C_14  and  C_15
REMARK    6  A    between atoms: C_15  and  O_16
REMARK                            x       y       z     vdW  Elec       q    Type
REMARK                         _______ _______ _______ _____ _____    ______ ____
ROOT
ATOM      1  C   UNL     1       7.007   4.740  14.978  0.00  0.00    +0.000 C 
ATOM      2  N   UNL     1       6.420   5.384  16.150  0.00  0.00    +0.000 NA
ATOM      3  C   UNL     1       7.113   4.989  17.389  0.00  0.00    +0.000 C 
ATOM      4  C   UNL     1       6.439   5.565  18.664  0.00  0.00    +0.000 C 
ATOM      5  N   UNL     1       4.971   5.347  18.771  0.00  0.00    +0.000 NA
ATOM      6  C   UNL     1       4.319   5.732  17.487  0.00  0.00    +0.000 C 
ATOM      7  C   UNL     1       4.987   5.065  16.254  0.00  0.00    +0.000 C 
ENDROOT
BRANCH   5   8
ATOM      8  C   UNL     1       4.714   3.939  19.148  0.00  0.00    +0.000 C 
BRANCH   8   9
ATOM      9  C   UNL     1       3.264   3.577  19.398  0.00  0.00    +0.000 A 
ATOM     10  C   UNL     1       2.610   2.654  18.565  0.00  0.00    +0.000 A 
ATOM     11  C   UNL     1       1.298   2.258  18.826  0.00  0.00    +0.000 A 
ATOM     12  C   UNL     1       0.623   2.767  19.933  0.00  0.00    +0.000 A 
ATOM     13  C   UNL     1       1.256   3.692  20.763  0.00  0.00    +0.000 A 
ATOM     14  C   UNL     1       2.563   4.105  20.493  0.00  0.00    +0.000 A 
ENDBRANCH   8   9
ENDBRANCH   5   8
BRANCH   6  15
ATOM     15  C   UNL     1       4.267   7.271  17.313  0.00  0.00    +0.000 C 
BRANCH  15  16
ATOM     16  C   UNL     1       2.939   7.861  17.775  0.00  0.00    +0.000 C 
BRANCH  16  17
ATOM     17  O   UNL     1       2.555   7.277  19.018  0.00  0.00    +0.000 OA
ATOM     18  H   UNL     1       3.233   6.618  19.243  0.00  0.00    +0.000 HD
ENDBRANCH  16  17
ENDBRANCH  15  16
ENDBRANCH   6  15
TORSDOF 5
ENDMDL
MODEL 8
REMARK VINA RESULT:      -6.4      1.015      1.543
REMARK  Name = 
REMARK  6 active torsions:
REMARK  status: ('A' for Active; 'I' for Inactive)
REMARK    1  A    between atoms: C_1  and  N_2
REMARK    2  A    between atoms: N_5  and  C_6
REMARK    3  A    between atoms: C_6  and  C_7
REMARK    4  A    between atoms: C_13  and  C_14
REMARK    5  A    between atoms: C_14  and  C_15
REMARK    6  A    between atoms: C_15  and  O_16
REMARK                            x       y       z     vdW  Elec       q    Type
REMARK                         _______ _______ _______ _____ _____    ______ ____
ROOT
ATOM      1  C   UNL     1       5.861   4.002  13.763  0.00  0.00    +0.000 C 
ATOM      2  N   UNL     1       6.041   4.367  15.165  0.00  0.00    +0.000 NA
ATOM      3  C   UNL     1       5.182   3.562  16.050  0.00  0.00    +0.000 C 
ATOM      4  C   UNL     1       5.263   4.007  17.536  0.00  0.00    +0.000 C 
ATOM      5  N   UNL     1       5.081   5.463  17.783  0.00  0.00    +0.000 NA
ATOM      6  C   UNL     1       5.946   6.235  16.847  0.00  0.00    +0.000 C 
ATOM      7  C   UNL     1       5.765   5.799  15.367  0.00  0.00    +0.000 C 
ENDROOT
BRANCH   5   8
ATOM      8  C   UNL     1       3.646   5.802  17.654  0.00  0.00    +0.000 C 
BRANCH   8   9
ATOM      9  C   UNL     1       2.712   5.098  18.616  0.00  0.00    +0.000 A 
ATOM     10  C   UNL     1       1.792   4.147  18.143  0.00  0.00    +0.000 A 
ATOM     11  C   UNL     1       0.976   3.439  19.025  0.00  0.00    +0.000 A 
ATOM     12  C   UNL     1       1.074   3.662  20.397  0.00  0.00    +0.000 A 
ATOM     13  C   UNL     1       1.974   4.611  20.880  0.00  0.00    +0.000 A 
ATOM     14  C   UNL     1       2.780   5.334  19.997  0.00  0.00    +0.000 A 
ENDBRANCH   8   9
ENDBRANCH   5   8
BRANCH   6  15
ATOM     15  C   UNL     1       7.438   6.162  17.258  0.00  0.00    +0.000 C 
BRANCH  15  16
ATOM     16  C   UNL     1       7.648   6.480  18.733  0.00  0.00    +0.000 C 
BRANCH  16  17
ATOM     17  O   UNL     1       7.786   5.270  19.476  0.00  0.00    +0.000 OA
ATOM     18  H   UNL     1       7.121   4.650  19.133  0.00  0.00    +0.000 HD
ENDBRANCH  16  17
ENDBRANCH  15  16
ENDBRANCH   6  15
TORSDOF 5
ENDMDL
MODEL 9
REMARK VINA RESULT:      -6.4      2.353      3.408
REMARK  Name = 
REMARK  6 active torsions:
REMARK  status: ('A' for Active; 'I' for Inactive)
REMARK    1  A    between atoms: C_1  and  N_2
REMARK    2  A    between atoms: N_5  and  C_6
REMARK    3  A    between atoms: C_6  and  C_7
REMARK    4  A    between atoms: C_13  and  C_14
REMARK    5  A    between atoms: C_14  and  C_15
REMARK    6  A    between atoms: C_15  and  O_16
REMARK                            x       y       z     vdW  Elec       q    Type
REMARK                         _______ _______ _______ _____ _____    ______ ____
ROOT
ATOM      1  C   UNL     1       7.816   5.898  19.031  0.00  0.00    +0.000 C 
ATOM      2  N   UNL     1       6.667   5.686  18.156  0.00  0.00    +0.000 NA
ATOM      3  C   UNL     1       5.406   5.652  18.916  0.00  0.00    +0.000 C 
ATOM      4  C   UNL     1       4.177   5.311  18.028  0.00  0.00    +0.000 C 
ATOM      5  N   UNL     1       4.321   4.108  17.164  0.00  0.00    +0.000 NA
ATOM      6  C   UNL     1       5.622   4.173  16.440  0.00  0.00    +0.000 C 
ATOM      7  C   UNL     1       6.823   4.440  17.388  0.00  0.00    +0.000 C 
ENDROOT
BRANCH   5   8
ATOM      8  C   UNL     1       4.186   2.892  17.997  0.00  0.00    +0.000 C 
BRANCH   8   9
ATOM      9  C   UNL     1       3.124   2.945  19.076  0.00  0.00    +0.000 A 
ATOM     10  C   UNL     1       1.766   3.051  18.731  0.00  0.00    +0.000 A 
ATOM     11  C   UNL     1       0.774   3.030  19.710  0.00  0.00    +0.000 A 
ATOM     12  C   UNL     1       1.121   2.890  21.052  0.00  0.00    +0.000 A 
ATOM     13  C   UNL     1       2.465   2.795  21.411  0.00  0.00    +0.000 A 
ATOM     14  C   UNL     1       3.463   2.835  20.433  0.00  0.00    +0.000 A 
ENDBRANCH   8   9
ENDBRANCH   5   8
BRANCH   6  15
ATOM     15  C   UNL     1       5.587   5.219  15.298  0.00  0.00    +0.000 C 
BRANCH  15  16
ATOM     16  C   UNL     1       6.443   4.805  14.107  0.00  0.00    +0.000 C 
BRANCH  16  17
ATOM     17  O   UNL     1       6.400   3.389  13.947  0.00  0.00    +0.000 OA
ATOM     18  H   UNL     1       6.433   3.002  14.838  0.00  0.00    +0.000 HD
ENDBRANCH  16  17
ENDBRANCH  15  16
ENDBRANCH   6  15
TORSDOF 5
ENDMDL
