MODEL 1
REMARK VINA RESULT:      -7.0      0.000      0.000
REMARK  Name = 
REMARK  12 active torsions:
REMARK  status: ('A' for Active; 'I' for Inactive)
REMARK    1  A    between atoms: C_2  and  C_3
REMARK    2  A    between atoms: C_3  and  N_4
REMARK    3  A    between atoms: N_4  and  C_5
REMARK    4  A    between atoms: N_4  and  C_6
REMARK    5  A    between atoms: C_6  and  C_7
REMARK    6  A    between atoms: C_7  and  C_8
REMARK    7  A    between atoms: C_11  and  O_12
REMARK    8  A    between atoms: C_13  and  C_14
REMARK    9  A    between atoms: N_16  and  C_17
REMARK   10  A    between atoms: C_17  and  C_18
REMARK   11  A    between atoms: C_21  and  O_22
REMARK   12  A    between atoms: O_22  and  C_23
REMARK                            x       y       z     vdW  Elec       q    Type
REMARK                         _______ _______ _______ _____ _____    ______ ____
ROOT
ATOM      1  C   UNL     1       4.896   3.733  18.478  0.00  0.00    +0.000 C 
ATOM      2  C   UNL     1       4.124   2.600  17.797  0.00  0.00    +0.000 C 
ATOM      3  C   UNL     1       2.847   3.116  17.147  0.00  0.00    +0.000 C 
ATOM      4  C   UNL     1       2.026   3.980  18.112  0.00  0.00    +0.000 C 
ATOM      5  C   UNL     1       2.903   5.018  18.839  0.00  0.00    +0.000 C 
ATOM      6  O   UNL     1       4.062   4.398  19.423  0.00  0.00    +0.000 OA
ENDROOT
BRANCH   5   7
ATOM      7  C   UNL     1       2.112   5.718  19.950  0.00  0.00    +0.000 C 
ATOM      8  O   UNL     1       1.426   5.092  20.760  0.00  0.00    +0.000 OA
ATOM      9  N   UNL     1       2.214   7.099  19.963  0.00  0.00    +0.000 N 
ATOM     10  H   UNL     1       2.557   7.541  19.125  0.00  0.00    +0.000 HD
BRANCH   9  11
ATOM     11  C   UNL     1       1.572   7.865  21.001  0.00  0.00    +0.000 C 
BRANCH  11  12
ATOM     12  C   UNL     1       0.882   9.085  20.455  0.00  0.00    +0.000 A 
ATOM     13  C   UNL     1      -0.016   9.814  21.246  0.00  0.00    +0.000 A 
ATOM     14  C   UNL     1      -0.674  10.930  20.724  0.00  0.00    +0.000 A 
ATOM     15  C   UNL     1      -0.411  11.364  19.425  0.00  0.00    +0.000 A 
ATOM     16  C   UNL     1       0.478  10.641  18.629  0.00  0.00    +0.000 A 
ATOM     17  C   UNL     1       1.113   9.503  19.138  0.00  0.00    +0.000 A 
BRANCH  15  18
ATOM     18  O   UNL     1      -1.099  12.479  19.030  0.00  0.00    +0.000 OA
ATOM     19  C   UNL     1      -1.574  13.316  20.078  0.00  0.00    +0.000 C 
ENDBRANCH  15  18
ENDBRANCH  11  12
ENDBRANCH   9  11
ENDBRANCH   5   7
BRANCH   4  20
ATOM     20  O   UNL     1       0.976   4.577  17.353  0.00  0.00    +0.000 OA
ATOM     21  H   UNL     1       1.363   5.052  16.598  0.00  0.00    +0.000 HD
ENDBRANCH   4  20
BRANCH   1  22
ATOM     22  C   UNL     1       5.471   4.715  17.464  0.00  0.00    +0.000 C 
BRANCH  22  23
ATOM     23  C   UNL     1       6.979   4.552  17.287  0.00  0.00    +0.000 C 
BRANCH  23  24
ATOM     24  N   UNL     1       7.678   5.756  17.753  0.00  0.00    +0.000 NA
ATOM     25  C   UNL     1       7.857   5.776  19.212  0.00  0.00    +0.000 C 
BRANCH  24  26
ATOM     26  C   UNL     1       6.931   6.932  17.303  0.00  0.00    +0.000 C 
BRANCH  26  28
ATOM     27  C   UNL     1       8.352   9.262  18.031  0.00  0.00    +0.000 C 
ATOM     28  C   UNL     1       7.696   8.186  17.695  0.00  0.00    +0.000 C 
ENDBRANCH  26  28
ENDBRANCH  24  26
ENDBRANCH  23  24
ENDBRANCH  22  23
ENDBRANCH   1  22
TORSDOF 10
ENDMDL
MODEL 2
REMARK VINA RESULT:      -6.9      0.878      1.093
REMARK  Name = 
REMARK  12 active torsions:
REMARK  status: ('A' for Active; 'I' for Inactive)
REMARK    1  A    between atoms: C_2  and  C_3
REMARK    2  A    between atoms: C_3  and  N_4
REMARK    3  A    between atoms: N_4  and  C_5
REMARK    4  A    between atoms: N_4  and  C_6
REMARK    5  A    between atoms: C_6  and  C_7
REMARK    6  A    between atoms: C_7  and  C_8
REMARK    7  A    between atoms: C_11  and  O_12
REMARK    8  A    between atoms: C_13  and  C_14
REMARK    9  A    between atoms: N_16  and  C_17
REMARK   10  A    between atoms: C_17  and  C_18
REMARK   11  A    between atoms: C_21  and  O_22
REMARK   12  A    between atoms: O_22  and  C_23
REMARK                            x       y       z     vdW  Elec       q    Type
REMARK                         _______ _______ _______ _____ _____    ______ ____
ROOT
ATOM      1  C   UNL     1       4.676   3.265  19.257  0.00  0.00    +0.000 C 
ATOM      2  C   UNL     1       3.963   2.040  18.679  0.00  0.00    +0.000 C 
ATOM      3  C   UNL     1       2.783   2.449  17.808  0.00  0.00    +0.000 C 
ATOM      4  C   UNL     1       1.876   3.461  18.517  0.00  0.00    +0.000 C 
ATOM      5  C   UNL     1       2.685   4.599  19.168  0.00  0.00    +0.000 C 
ATOM      6  O   UNL     1       3.754   4.077  19.977  0.00  0.00    +0.000 OA
ENDROOT
BRANCH   5   7
ATOM      7  C   UNL     1       1.787   5.473  20.050  0.00  0.00    +0.000 C 
ATOM      8  O   UNL     1       0.748   5.044  20.556  0.00  0.00    +0.000 OA
ATOM      9  N   UNL     1       2.220   6.778  20.220  0.00  0.00    +0.000 N 
ATOM     10  H   UNL     1       2.907   7.121  19.569  0.00  0.00    +0.000 HD
BRANCH   9  11
ATOM     11  C   UNL     1       1.496   7.676  21.084  0.00  0.00    +0.000 C 
BRANCH  11  12
ATOM     12  C   UNL     1       1.047   8.914  20.358  0.00  0.00    +0.000 A 
ATOM     13  C   UNL     1       0.266   9.881  21.005  0.00  0.00    +0.000 A 
ATOM     14  C   UNL     1      -0.171  11.015  20.317  0.00  0.00    +0.000 A 
ATOM     15  C   UNL     1       0.205  11.227  18.991  0.00  0.00    +0.000 A 
ATOM     16  C   UNL     1       0.980  10.268  18.337  0.00  0.00    +0.000 A 
ATOM     17  C   UNL     1       1.390   9.114  19.014  0.00  0.00    +0.000 A 
BRANCH  15  18
ATOM     18  O   UNL     1      -0.264  12.382  18.428  0.00  0.00    +0.000 OA
ATOM     19  C   UNL     1      -0.951  13.265  19.307  0.00  0.00    +0.000 C 
ENDBRANCH  15  18
ENDBRANCH  11  12
ENDBRANCH   9  11
ENDBRANCH   5   7
BRANCH   4  20
ATOM     20  O   UNL     1       0.936   3.933  17.552  0.00  0.00    +0.000 OA
ATOM     21  H   UNL     1       0.054   3.964  17.961  0.00  0.00    +0.000 HD
ENDBRANCH   4  20
BRANCH   1  22
ATOM     22  C   UNL     1       5.389   4.067  18.175  0.00  0.00    +0.000 C 
BRANCH  22  23
ATOM     23  C   UNL     1       6.172   5.247  18.746  0.00  0.00    +0.000 C 
BRANCH  23  24
ATOM     24  N   UNL     1       6.049   6.413  17.863  0.00  0.00    +0.000 NA
ATOM     25  C   UNL     1       5.009   6.240  16.840  0.00  0.00    +0.000 C 
BRANCH  24  26
ATOM     26  C   UNL     1       7.352   6.669  17.246  0.00  0.00    +0.000 C 
BRANCH  26  28
ATOM     27  C   UNL     1       8.296   9.192  18.095  0.00  0.00    +0.000 C 
ATOM     28  C   UNL     1       7.860   8.027  17.703  0.00  0.00    +0.000 C 
ENDBRANCH  26  28
ENDBRANCH  24  26
ENDBRANCH  23  24
ENDBRANCH  22  23
ENDBRANCH   1  22
TORSDOF 10
ENDMDL
MODEL 3
REMARK VINA RESULT:      -6.6      1.242      1.578
REMARK  Name = 
REMARK  12 active torsions:
REMARK  status: ('A' for Active; 'I' for Inactive)
REMARK    1  A    between atoms: C_2  and  C_3
REMARK    2  A    between atoms: C_3  and  N_4
REMARK    3  A    between atoms: N_4  and  C_5
REMARK    4  A    between atoms: N_4  and  C_6
REMARK    5  A    between atoms: C_6  and  C_7
REMARK    6  A    between atoms: C_7  and  C_8
REMARK    7  A    between atoms: C_11  and  O_12
REMARK    8  A    between atoms: C_13  and  C_14
REMARK    9  A    between atoms: N_16  and  C_17
REMARK   10  A    between atoms: C_17  and  C_18
REMARK   11  A    between atoms: C_21  and  O_22
REMARK   12  A    between atoms: O_22  and  C_23
REMARK                            x       y       z     vdW  Elec       q    Type
REMARK                         _______ _______ _______ _____ _____    ______ ____
ROOT
ATOM      1  C   UNL     1       4.557   3.401  18.500  0.00  0.00    +0.000 C 
ATOM      2  C   UNL     1       4.138   1.953  18.766  0.00  0.00    +0.000 C 
ATOM      3  C   UNL     1       2.636   1.773  18.593  0.00  0.00    +0.000 C 
ATOM      4  C   UNL     1       1.843   2.836  19.363  0.00  0.00    +0.000 C 
ATOM      5  C   UNL     1       2.404   4.251  19.128  0.00  0.00    +0.000 C 
ATOM      6  O   UNL     1       3.826   4.287  19.343  0.00  0.00    +0.000 OA
ENDROOT
BRANCH   5   7
ATOM      7  C   UNL     1       1.743   5.265  20.070  0.00  0.00    +0.000 C 
ATOM      8  O   UNL     1       0.739   4.988  20.730  0.00  0.00    +0.000 OA
ATOM      9  N   UNL     1       2.345   6.511  20.108  0.00  0.00    +0.000 N 
ATOM     10  H   UNL     1       2.972   6.740  19.354  0.00  0.00    +0.000 HD
BRANCH   9  11
ATOM     11  C   UNL     1       1.855   7.526  21.007  0.00  0.00    +0.000 C 
BRANCH  11  12
ATOM     12  C   UNL     1       1.158   8.639  20.272  0.00  0.00    +0.000 A 
ATOM     13  C   UNL     1       0.132   9.368  20.885  0.00  0.00    +0.000 A 
ATOM     14  C   UNL     1      -0.531  10.382  20.189  0.00  0.00    +0.000 A 
ATOM     15  C   UNL     1      -0.147  10.715  18.890  0.00  0.00    +0.000 A 
ATOM     16  C   UNL     1       0.872   9.991  18.270  0.00  0.00    +0.000 A 
ATOM     17  C   UNL     1       1.513   8.952  18.954  0.00  0.00    +0.000 A 
BRANCH  15  18
ATOM     18  O   UNL     1      -0.852  11.737  18.316  0.00  0.00    +0.000 OA
ATOM     19  C   UNL     1      -1.371  12.711  19.214  0.00  0.00    +0.000 C 
ENDBRANCH  15  18
ENDBRANCH  11  12
ENDBRANCH   9  11
ENDBRANCH   5   7
BRANCH   4  20
ATOM     20  O   UNL     1       0.477   2.710  18.971  0.00  0.00    +0.000 OA
ATOM     21  H   UNL     1      -0.050   3.372  19.448  0.00  0.00    +0.000 HD
ENDBRANCH   4  20
BRANCH   1  22
ATOM     22  C   UNL     1       4.394   3.777  17.032  0.00  0.00    +0.000 C 
BRANCH  22  23
ATOM     23  C   UNL     1       5.683   3.586  16.236  0.00  0.00    +0.000 C 
BRANCH  23  24
ATOM     24  N   UNL     1       6.352   4.877  16.035  0.00  0.00    +0.000 NA
ATOM     25  C   UNL     1       7.016   4.972  14.727  0.00  0.00    +0.000 C 
BRANCH  24  26
ATOM     26  C   UNL     1       7.311   5.078  17.123  0.00  0.00    +0.000 C 
BRANCH  26  28
ATOM     27  C   UNL     1       7.647   7.849  17.556  0.00  0.00    +0.000 C 
ATOM     28  C   UNL     1       7.492   6.569  17.356  0.00  0.00    +0.000 C 
ENDBRANCH  26  28
ENDBRANCH  24  26
ENDBRANCH  23  24
ENDBRANCH  22  23
ENDBRANCH   1  22
TORSDOF 10
ENDMDL
MODEL 4
REMARK VINA RESULT:      -6.6      1.070      1.619
REMARK  Name = 
REMARK  12 active torsions:
REMARK  status: ('A' for Active; 'I' for Inactive)
REMARK    1  A    between atoms: C_2  and  C_3
REMARK    2  A    between atoms: C_3  and  N_4
REMARK    3  A    between atoms: N_4  and  C_5
REMARK    4  A    between atoms: N_4  and  C_6
REMARK    5  A    between atoms: C_6  and  C_7
REMARK    6  A    between atoms: C_7  and  C_8
REMARK    7  A    between atoms: C_11  and  O_12
REMARK    8  A    between atoms: C_13  and  C_14
REMARK    9  A    between atoms: N_16  and  C_17
REMARK   10  A    between atoms: C_17  and  C_18
REMARK   11  A    between atoms: C_21  and  O_22
REMARK   12  A    between atoms: O_22  and  C_23
REMARK                            x       y       z     vdW  Elec       q    Type
REMARK                         _______ _______ _______ _____ _____    ______ ____
ROOT
ATOM      1  C   UNL     1       4.902   4.158  18.657  0.00  0.00    +0.000 C 
ATOM      2  C   UNL     1       4.677   2.654  18.831  0.00  0.00    +0.000 C 
ATOM      3  C   UNL     1       3.231   2.276  18.537  0.00  0.00    +0.000 C 
ATOM      4  C   UNL     1       2.244   3.178  19.286  0.00  0.00    +0.000 C 
ATOM      5  C   UNL     1       2.612   4.668  19.152  0.00  0.00    +0.000 C 
ATOM      6  O   UNL     1       3.996   4.890  19.476  0.00  0.00    +0.000 OA
ENDROOT
BRANCH   5   7
ATOM      7  C   UNL     1       1.749   5.530  20.081  0.00  0.00    +0.000 C 
ATOM      8  O   UNL     1       0.767   5.076  20.672  0.00  0.00    +0.000 OA
ATOM      9  N   UNL     1       2.144   6.853  20.190  0.00  0.00    +0.000 N 
ATOM     10  H   UNL     1       2.768   7.205  19.482  0.00  0.00    +0.000 HD
BRANCH   9  11
ATOM     11  C   UNL     1       1.453   7.745  21.087  0.00  0.00    +0.000 C 
BRANCH  11  12
ATOM     12  C   UNL     1       1.015   9.008  20.396  0.00  0.00    +0.000 A 
ATOM     13  C   UNL     1       1.416   9.280  19.081  0.00  0.00    +0.000 A 
ATOM     14  C   UNL     1       1.029  10.467  18.455  0.00  0.00    +0.000 A 
ATOM     15  C   UNL     1       0.199  11.375  19.111  0.00  0.00    +0.000 A 
ATOM     16  C   UNL     1      -0.202  11.114  20.422  0.00  0.00    +0.000 A 
ATOM     17  C   UNL     1       0.213   9.942  21.063  0.00  0.00    +0.000 A 
BRANCH  15  18
ATOM     18  O   UNL     1      -0.131  12.491  18.391  0.00  0.00    +0.000 OA
ATOM     19  C   UNL     1      -0.631  13.589  19.145  0.00  0.00    +0.000 C 
ENDBRANCH  15  18
ENDBRANCH  11  12
ENDBRANCH   9  11
ENDBRANCH   5   7
BRANCH   4  20
ATOM     20  O   UNL     1       0.940   2.883  18.786  0.00  0.00    +0.000 OA
ATOM     21  H   UNL     1       0.961   2.911  17.814  0.00  0.00    +0.000 HD
ENDBRANCH   4  20
BRANCH   1  22
ATOM     22  C   UNL     1       4.791   4.582  17.196  0.00  0.00    +0.000 C 
BRANCH  22  23
ATOM     23  C   UNL     1       5.055   6.073  17.001  0.00  0.00    +0.000 C 
BRANCH  23  24
ATOM     24  N   UNL     1       6.358   6.279  16.359  0.00  0.00    +0.000 NA
ATOM     25  C   UNL     1       6.676   5.232  15.377  0.00  0.00    +0.000 C 
BRANCH  24  26
ATOM     26  C   UNL     1       7.385   6.347  17.401  0.00  0.00    +0.000 C 
BRANCH  26  28
ATOM     27  C   UNL     1       8.053   9.052  17.862  0.00  0.00    +0.000 C 
ATOM     28  C   UNL     1       7.744   7.802  17.649  0.00  0.00    +0.000 C 
ENDBRANCH  26  28
ENDBRANCH  24  26
ENDBRANCH  23  24
ENDBRANCH  22  23
ENDBRANCH   1  22
TORSDOF 10
ENDMDL
MODEL 5
REMARK VINA RESULT:      -6.6      2.816      4.224
REMARK  Name = 
REMARK  12 active torsions:
REMARK  status: ('A' for Active; 'I' for Inactive)
REMARK    1  A    between atoms: C_2  and  C_3
REMARK    2  A    between atoms: C_3  and  N_4
REMARK    3  A    between atoms: N_4  and  C_5
REMARK    4  A    between atoms: N_4  and  C_6
REMARK    5  A    between atoms: C_6  and  C_7
REMARK    6  A    between atoms: C_7  and  C_8
REMARK    7  A    between atoms: C_11  and  O_12
REMARK    8  A    between atoms: C_13  and  C_14
REMARK    9  A    between atoms: N_16  and  C_17
REMARK   10  A    between atoms: C_17  and  C_18
REMARK   11  A    between atoms: C_21  and  O_22
REMARK   12  A    between atoms: O_22  and  C_23
REMARK                            x       y       z     vdW  Elec       q    Type
REMARK                         _______ _______ _______ _____ _____    ______ ____
ROOT
ATOM      1  C   UNL     1       5.543   5.501  15.858  0.00  0.00    +0.000 C 
ATOM      2  C   UNL     1       6.842   5.621  16.659  0.00  0.00    +0.000 C 
ATOM      3  C   UNL     1       6.820   4.716  17.883  0.00  0.00    +0.000 C 
ATOM      4  C   UNL     1       5.531   4.887  18.695  0.00  0.00    +0.000 C 
ATOM      5  C   UNL     1       4.280   4.868  17.796  0.00  0.00    +0.000 C 
ATOM      6  O   UNL     1       4.422   5.779  16.692  0.00  0.00    +0.000 OA
ENDROOT
BRANCH   5   7
ATOM      7  C   UNL     1       3.029   5.257  18.591  0.00  0.00    +0.000 C 
ATOM      8  O   UNL     1       1.928   4.745  18.373  0.00  0.00    +0.000 OA
ATOM      9  N   UNL     1       3.224   6.233  19.554  0.00  0.00    +0.000 N 
ATOM     10  H   UNL     1       4.064   6.785  19.483  0.00  0.00    +0.000 HD
BRANCH   9  11
ATOM     11  C   UNL     1       2.138   6.633  20.413  0.00  0.00    +0.000 C 
BRANCH  11  12
ATOM     12  C   UNL     1       1.626   8.006  20.069  0.00  0.00    +0.000 A 
ATOM     13  C   UNL     1       1.818   8.541  18.789  0.00  0.00    +0.000 A 
ATOM     14  C   UNL     1       1.366   9.827  18.483  0.00  0.00    +0.000 A 
ATOM     15  C   UNL     1       0.672  10.577  19.433  0.00  0.00    +0.000 A 
ATOM     16  C   UNL     1       0.480  10.053  20.712  0.00  0.00    +0.000 A 
ATOM     17  C   UNL     1       0.963   8.779  21.030  0.00  0.00    +0.000 A 
BRANCH  15  18
ATOM     18  O   UNL     1       0.259  11.812  19.015  0.00  0.00    +0.000 OA
ATOM     19  C   UNL     1      -1.130  11.939  18.735  0.00  0.00    +0.000 C 
ENDBRANCH  15  18
ENDBRANCH  11  12
ENDBRANCH   9  11
ENDBRANCH   5   7
BRANCH   4  20
ATOM     20  O   UNL     1       5.516   3.859  19.685  0.00  0.00    +0.000 OA
ATOM     21  H   UNL     1       6.429   3.569  19.852  0.00  0.00    +0.000 HD
ENDBRANCH   4  20
BRANCH   1  22
ATOM     22  C   UNL     1       5.412   4.134  15.196  0.00  0.00    +0.000 C 
BRANCH  22  23
ATOM     23  C   UNL     1       5.390   4.225  13.672  0.00  0.00    +0.000 C 
BRANCH  23  24
ATOM     24  N   UNL     1       6.695   3.842  13.120  0.00  0.00    +0.000 NA
ATOM     25  C   UNL     1       7.503   5.003  12.723  0.00  0.00    +0.000 C 
BRANCH  24  26
ATOM     26  C   UNL     1       6.475   2.945  11.984  0.00  0.00    +0.000 C 
BRANCH  26  28
ATOM     27  C   UNL     1       3.805   3.209  11.102  0.00  0.00    +0.000 C 
ATOM     28  C   UNL     1       5.038   3.087  11.510  0.00  0.00    +0.000 C 
ENDBRANCH  26  28
ENDBRANCH  24  26
ENDBRANCH  23  24
ENDBRANCH  22  23
ENDBRANCH   1  22
TORSDOF 10
ENDMDL
MODEL 6
REMARK VINA RESULT:      -6.5      2.821      4.191
REMARK  Name = 
REMARK  12 active torsions:
REMARK  status: ('A' for Active; 'I' for Inactive)
REMARK    1  A    between atoms: C_2  and  C_3
REMARK    2  A    between atoms: C_3  and  N_4
REMARK    3  A    between atoms: N_4  and  C_5
REMARK    4  A    between atoms: N_4  and  C_6
REMARK    5  A    between atoms: C_6  and  C_7
REMARK    6  A    between atoms: C_7  and  C_8
REMARK    7  A    between atoms: C_11  and  O_12
REMARK    8  A    between atoms: C_13  and  C_14
REMARK    9  A    between atoms: N_16  and  C_17
REMARK   10  A    between atoms: C_17  and  C_18
REMARK   11  A    between atoms: C_21  and  O_22
REMARK   12  A    between atoms: O_22  and  C_23
REMARK                            x       y       z     vdW  Elec       q    Type
REMARK                         _______ _______ _______ _____ _____    ______ ____
ROOT
ATOM      1  C   UNL     1       5.858   5.941  16.041  0.00  0.00    +0.000 C 
ATOM      2  C   UNL     1       7.088   5.856  16.948  0.00  0.00    +0.000 C 
ATOM      3  C   UNL     1       6.948   4.729  17.961  0.00  0.00    +0.000 C 
ATOM      4  C   UNL     1       5.600   4.781  18.689  0.00  0.00    +0.000 C 
ATOM      5  C   UNL     1       4.427   4.983  17.710  0.00  0.00    +0.000 C 
ATOM      6  O   UNL     1       4.677   6.088  16.824  0.00  0.00    +0.000 OA
ENDROOT
BRANCH   5   7
ATOM      7  C   UNL     1       3.122   5.251  18.468  0.00  0.00    +0.000 C 
ATOM      8  O   UNL     1       2.035   4.823  18.073  0.00  0.00    +0.000 OA
ATOM      9  N   UNL     1       3.254   6.018  19.613  0.00  0.00    +0.000 N 
ATOM     10  H   UNL     1       4.104   6.548  19.714  0.00  0.00    +0.000 HD
BRANCH   9  11
ATOM     11  C   UNL     1       2.108   6.280  20.447  0.00  0.00    +0.000 C 
BRANCH  11  12
ATOM     12  C   UNL     1       1.633   7.702  20.320  0.00  0.00    +0.000 A 
ATOM     13  C   UNL     1       1.102   8.381  21.424  0.00  0.00    +0.000 A 
ATOM     14  C   UNL     1       0.637   9.691  21.293  0.00  0.00    +0.000 A 
ATOM     15  C   UNL     1       0.740  10.360  20.073  0.00  0.00    +0.000 A 
ATOM     16  C   UNL     1       1.263   9.690  18.967  0.00  0.00    +0.000 A 
ATOM     17  C   UNL     1       1.698   8.365  19.088  0.00  0.00    +0.000 A 
BRANCH  15  18
ATOM     18  O   UNL     1       0.272  11.645  20.070  0.00  0.00    +0.000 OA
ATOM     19  C   UNL     1      -0.056  12.182  18.794  0.00  0.00    +0.000 C 
ENDBRANCH  15  18
ENDBRANCH  11  12
ENDBRANCH   9  11
ENDBRANCH   5   7
BRANCH   4  20
ATOM     20  O   UNL     1       5.484   3.579  19.450  0.00  0.00    +0.000 OA
ATOM     21  H   UNL     1       5.219   3.806  20.358  0.00  0.00    +0.000 HD
ENDBRANCH   4  20
BRANCH   1  22
ATOM     22  C   UNL     1       5.756   4.737  15.111  0.00  0.00    +0.000 C 
BRANCH  22  23
ATOM     23  C   UNL     1       6.911   4.671  14.115  0.00  0.00    +0.000 C 
BRANCH  23  24
ATOM     24  N   UNL     1       6.597   3.731  13.033  0.00  0.00    +0.000 NA
ATOM     25  C   UNL     1       6.884   4.285  11.702  0.00  0.00    +0.000 C 
BRANCH  24  26
ATOM     26  C   UNL     1       5.188   3.346  13.145  0.00  0.00    +0.000 C 
BRANCH  26  28
ATOM     27  C   UNL     1       3.977   3.524  10.600  0.00  0.00    +0.000 C 
ATOM     28  C   UNL     1       4.537   3.441  11.776  0.00  0.00    +0.000 C 
ENDBRANCH  26  28
ENDBRANCH  24  26
ENDBRANCH  23  24
ENDBRANCH  22  23
ENDBRANCH   1  22
TORSDOF 10
ENDMDL
MODEL 7
REMARK VINA RESULT:      -6.5      1.110      1.954
REMARK  Name = 
REMARK  12 active torsions:
REMARK  status: ('A' for Active; 'I' for Inactive)
REMARK    1  A    between atoms: C_2  and  C_3
REMARK    2  A    between atoms: C_3  and  N_4
REMARK    3  A    between atoms: N_4  and  C_5
REMARK    4  A    between atoms: N_4  and  C_6
REMARK    5  A    between atoms: C_6  and  C_7
REMARK    6  A    between atoms: C_7  and  C_8
REMARK    7  A    between atoms: C_11  and  O_12
REMARK    8  A    between atoms: C_13  and  C_14
REMARK    9  A    between atoms: N_16  and  C_17
REMARK   10  A    between atoms: C_17  and  C_18
REMARK   11  A    between atoms: C_21  and  O_22
REMARK   12  A    between atoms: O_22  and  C_23
REMARK                            x       y       z     vdW  Elec       q    Type
REMARK                         _______ _______ _______ _____ _____    ______ ____
ROOT
ATOM      1  C   UNL     1       4.532   3.132  19.056  0.00  0.00    +0.000 C 
ATOM      2  C   UNL     1       3.708   2.006  18.426  0.00  0.00    +0.000 C 
ATOM      3  C   UNL     1       2.556   2.563  17.600  0.00  0.00    +0.000 C 
ATOM      4  C   UNL     1       1.750   3.609  18.379  0.00  0.00    +0.000 C 
ATOM      5  C   UNL     1       2.663   4.635  19.076  0.00  0.00    +0.000 C 
ATOM      6  O   UNL     1       3.693   3.979  19.836  0.00  0.00    +0.000 OA
ENDROOT
BRANCH   5   7
ATOM      7  C   UNL     1       1.856   5.533  20.021  0.00  0.00    +0.000 C 
ATOM      8  O   UNL     1       0.850   5.129  20.607  0.00  0.00    +0.000 OA
ATOM      9  N   UNL     1       2.332   6.827  20.152  0.00  0.00    +0.000 N 
ATOM     10  H   UNL     1       2.975   7.152  19.448  0.00  0.00    +0.000 HD
BRANCH   9  11
ATOM     11  C   UNL     1       1.698   7.744  21.065  0.00  0.00    +0.000 C 
BRANCH  11  12
ATOM     12  C   UNL     1       0.982   8.852  20.342  0.00  0.00    +0.000 A 
ATOM     13  C   UNL     1       1.349   9.211  19.038  0.00  0.00    +0.000 A 
ATOM     14  C   UNL     1       0.699  10.258  18.382  0.00  0.00    +0.000 A 
ATOM     15  C   UNL     1      -0.359  10.929  18.996  0.00  0.00    +0.000 A 
ATOM     16  C   UNL     1      -0.729  10.581  20.295  0.00  0.00    +0.000 A 
ATOM     17  C   UNL     1      -0.056   9.555  20.967  0.00  0.00    +0.000 A 
BRANCH  15  18
ATOM     18  O   UNL     1      -0.932  11.922  18.249  0.00  0.00    +0.000 OA
ATOM     19  C   UNL     1      -0.273  13.182  18.283  0.00  0.00    +0.000 C 
ENDBRANCH  15  18
ENDBRANCH  11  12
ENDBRANCH   9  11
ENDBRANCH   5   7
BRANCH   4  20
ATOM     20  O   UNL     1       0.840   4.212  17.460  0.00  0.00    +0.000 OA
ATOM     21  H   UNL     1       1.306   4.911  16.970  0.00  0.00    +0.000 HD
ENDBRANCH   4  20
BRANCH   1  22
ATOM     22  C   UNL     1       5.297   3.929  18.006  0.00  0.00    +0.000 C 
BRANCH  22  23
ATOM     23  C   UNL     1       6.167   5.021  18.624  0.00  0.00    +0.000 C 
BRANCH  23  24
ATOM     24  N   UNL     1       6.942   5.705  17.582  0.00  0.00    +0.000 NA
ATOM     25  C   UNL     1       7.702   6.849  18.102  0.00  0.00    +0.000 C 
BRANCH  24  26
ATOM     26  C   UNL     1       6.025   6.126  16.521  0.00  0.00    +0.000 C 
BRANCH  26  28
ATOM     27  C   UNL     1       6.502   4.565  14.215  0.00  0.00    +0.000 C 
ATOM     28  C   UNL     1       6.282   5.285  15.280  0.00  0.00    +0.000 C 
ENDBRANCH  26  28
ENDBRANCH  24  26
ENDBRANCH  23  24
ENDBRANCH  22  23
ENDBRANCH   1  22
TORSDOF 10
ENDMDL
MODEL 8
REMARK VINA RESULT:      -6.5      3.126      5.109
REMARK  Name = 
REMARK  12 active torsions:
REMARK  status: ('A' for Active; 'I' for Inactive)
REMARK    1  A    between atoms: C_2  and  C_3
REMARK    2  A    between atoms: C_3  and  N_4
REMARK    3  A    between atoms: N_4  and  C_5
REMARK    4  A    between atoms: N_4  and  C_6
REMARK    5  A    between atoms: C_6  and  C_7
REMARK    6  A    between atoms: C_7  and  C_8
REMARK    7  A    between atoms: C_11  and  O_12
REMARK    8  A    between atoms: C_13  and  C_14
REMARK    9  A    between atoms: N_16  and  C_17
REMARK   10  A    between atoms: C_17  and  C_18
REMARK   11  A    between atoms: C_21  and  O_22
REMARK   12  A    between atoms: O_22  and  C_23
REMARK                            x       y       z     vdW  Elec       q    Type
REMARK                         _______ _______ _______ _____ _____    ______ ____
ROOT
ATOM      1  C   UNL     1       3.347   5.725  18.004  0.00  0.00    +0.000 C 
ATOM      2  C   UNL     1       3.812   5.530  19.449  0.00  0.00    +0.000 C 
ATOM      3  C   UNL     1       2.747   5.987  20.437  0.00  0.00    +0.000 C 
ATOM      4  C   UNL     1       2.221   7.387  20.101  0.00  0.00    +0.000 C 
ATOM      5  C   UNL     1       1.885   7.529  18.604  0.00  0.00    +0.000 C 
ATOM      6  O   UNL     1       2.979   7.083  17.784  0.00  0.00    +0.000 OA
ENDROOT
BRANCH   5   7
ATOM      7  C   UNL     1       1.572   8.987  18.250  0.00  0.00    +0.000 C 
ATOM      8  O   UNL     1       2.218   9.609  17.403  0.00  0.00    +0.000 OA
ATOM      9  N   UNL     1       0.528   9.554  18.961  0.00  0.00    +0.000 N 
ATOM     10  H   UNL     1       0.243   9.086  19.806  0.00  0.00    +0.000 HD
BRANCH   9  11
ATOM     11  C   UNL     1       0.096  10.898  18.669  0.00  0.00    +0.000 C 
BRANCH  11  12
ATOM     12  C   UNL     1      -1.378  10.963  18.375  0.00  0.00    +0.000 A 
ATOM     13  C   UNL     1      -1.950  10.140  17.396  0.00  0.00    +0.000 A 
ATOM     14  C   UNL     1      -3.314  10.224  17.109  0.00  0.00    +0.000 A 
ATOM     15  C   UNL     1      -4.136  11.094  17.826  0.00  0.00    +0.000 A 
ATOM     16  C   UNL     1      -3.574  11.920  18.800  0.00  0.00    +0.000 A 
ATOM     17  C   UNL     1      -2.201  11.861  19.065  0.00  0.00    +0.000 A 
BRANCH  15  18
ATOM     18  O   UNL     1      -5.457  11.075  17.472  0.00  0.00    +0.000 OA
ATOM     19  C   UNL     1      -6.375  10.781  18.518  0.00  0.00    +0.000 C 
ENDBRANCH  15  18
ENDBRANCH  11  12
ENDBRANCH   9  11
ENDBRANCH   5   7
BRANCH   4  20
ATOM     20  O   UNL     1       1.096   7.629  20.946  0.00  0.00    +0.000 OA
ATOM     21  H   UNL     1       1.082   8.571  21.188  0.00  0.00    +0.000 HD
ENDBRANCH   4  20
BRANCH   1  22
ATOM     22  C   UNL     1       2.205   4.780  17.646  0.00  0.00    +0.000 C 
BRANCH  22  23
ATOM     23  C   UNL     1       2.697   3.373  17.312  0.00  0.00    +0.000 C 
BRANCH  23  24
ATOM     24  N   UNL     1       1.974   2.378  18.113  0.00  0.00    +0.000 NA
ATOM     25  C   UNL     1       0.685   2.881  18.608  0.00  0.00    +0.000 C 
BRANCH  24  26
ATOM     26  C   UNL     1       2.833   1.960  19.222  0.00  0.00    +0.000 C 
BRANCH  26  28
ATOM     27  C   UNL     1       1.618   2.702  21.661  0.00  0.00    +0.000 C 
ATOM     28  C   UNL     1       2.179   2.359  20.534  0.00  0.00    +0.000 C 
ENDBRANCH  26  28
ENDBRANCH  24  26
ENDBRANCH  23  24
ENDBRANCH  22  23
ENDBRANCH   1  22
TORSDOF 10
ENDMDL
MODEL 9
REMARK VINA RESULT:      -6.4      3.143      8.387
REMARK  Name = 
REMARK  12 active torsions:
REMARK  status: ('A' for Active; 'I' for Inactive)
REMARK    1  A    between atoms: C_2  and  C_3
REMARK    2  A    between atoms: C_3  and  N_4
REMARK    3  A    between atoms: N_4  and  C_5
REMARK    4  A    between atoms: N_4  and  C_6
REMARK    5  A    between atoms: C_6  and  C_7
REMARK    6  A    between atoms: C_7  and  C_8
REMARK    7  A    between atoms: C_11  and  O_12
REMARK    8  A    between atoms: C_13  and  C_14
REMARK    9  A    between atoms: N_16  and  C_17
REMARK   10  A    between atoms: C_17  and  C_18
REMARK   11  A    between atoms: C_21  and  O_22
REMARK   12  A    between atoms: O_22  and  C_23
REMARK                            x       y       z     vdW  Elec       q    Type
REMARK                         _______ _______ _______ _____ _____    ______ ____
ROOT
ATOM      1  C   UNL     1       2.031   5.230  18.808  0.00  0.00    +0.000 C 
ATOM      2  C   UNL     1       1.589   3.771  18.941  0.00  0.00    +0.000 C 
ATOM      3  C   UNL     1       2.634   2.945  19.678  0.00  0.00    +0.000 C 
ATOM      4  C   UNL     1       4.038   3.154  19.098  0.00  0.00    +0.000 C 
ATOM      5  C   UNL     1       4.355   4.647  18.890  0.00  0.00    +0.000 C 
ATOM      6  O   UNL     1       3.300   5.304  18.166  0.00  0.00    +0.000 OA
ENDROOT
BRANCH   5   7
ATOM      7  C   UNL     1       5.665   4.824  18.112  0.00  0.00    +0.000 C 
ATOM      8  O   UNL     1       6.741   4.397  18.534  0.00  0.00    +0.000 OA
ATOM      9  N   UNL     1       5.549   5.512  16.915  0.00  0.00    +0.000 N 
ATOM     10  H   UNL     1       4.712   6.056  16.779  0.00  0.00    +0.000 HD
BRANCH   9  11
ATOM     11  C   UNL     1       6.698   5.682  16.062  0.00  0.00    +0.000 C 
BRANCH  11  12
ATOM     12  C   UNL     1       6.559   4.918  14.773  0.00  0.00    +0.000 A 
ATOM     13  C   UNL     1       7.525   5.033  13.765  0.00  0.00    +0.000 A 
ATOM     14  C   UNL     1       7.377   4.344  12.560  0.00  0.00    +0.000 A 
ATOM     15  C   UNL     1       6.291   3.492  12.362  0.00  0.00    +0.000 A 
ATOM     16  C   UNL     1       5.322   3.374  13.358  0.00  0.00    +0.000 A 
ATOM     17  C   UNL     1       5.451   4.091  14.553  0.00  0.00    +0.000 A 
BRANCH  15  18
ATOM     18  O   UNL     1       6.262   2.853  11.152  0.00  0.00    +0.000 OA
ATOM     19  C   UNL     1       6.850   1.558  11.121  0.00  0.00    +0.000 C 
ENDBRANCH  15  18
ENDBRANCH  11  12
ENDBRANCH   9  11
ENDBRANCH   5   7
BRANCH   4  20
ATOM     20  O   UNL     1       4.959   2.510  19.979  0.00  0.00    +0.000 OA
ATOM     21  H   UNL     1       4.467   2.133  20.728  0.00  0.00    +0.000 HD
ENDBRANCH   4  20
BRANCH   1  22
ATOM     22  C   UNL     1       2.053   5.941  20.157  0.00  0.00    +0.000 C 
BRANCH  22  23
ATOM     23  C   UNL     1       2.332   7.436  20.023  0.00  0.00    +0.000 C 
BRANCH  23  24
ATOM     24  N   UNL     1       1.212   8.212  20.568  0.00  0.00    +0.000 NA
ATOM     25  C   UNL     1       0.841   9.347  19.710  0.00  0.00    +0.000 C 
BRANCH  24  26
ATOM     26  C   UNL     1       1.572   8.669  21.911  0.00  0.00    +0.000 C 
BRANCH  26  28
ATOM     27  C   UNL     1      -0.679   9.888  23.106  0.00  0.00    +0.000 C 
ATOM     28  C   UNL     1       0.360   9.325  22.554  0.00  0.00    +0.000 C 
ENDBRANCH  26  28
ENDBRANCH  24  26
ENDBRANCH  23  24
ENDBRANCH  22  23
ENDBRANCH   1  22
TORSDOF 10
ENDMDL
