MODEL 1
REMARK VINA RESULT:      -8.6      0.000      0.000
REMARK  Name = 
REMARK  4 active torsions:
REMARK  status: ('A' for Active; 'I' for Inactive)
REMARK    1  A    between atoms: N_3  and  C_4
REMARK    2  A    between atoms: N_8  and  C_9
REMARK    3  A    between atoms: C_9  and  C_10
REMARK    4  A    between atoms: N_18  and  C_19
REMARK                            x       y       z     vdW  Elec       q    Type
REMARK                         _______ _______ _______ _____ _____    ______ ____
ROOT
ATOM      1  C   UNL     1       7.630   6.603  18.008  0.00  0.00    +0.000 A 
ATOM      2  C   UNL     1       7.396   6.430  16.699  0.00  0.00    +0.000 A 
ATOM      3  C   UNL     1       6.599   5.333  16.215  0.00  0.00    +0.000 A 
ATOM      4  C   UNL     1       6.006   4.504  17.076  0.00  0.00    +0.000 A 
ATOM      5  N   UNL     1       6.200   4.623  18.443  0.00  0.00    +0.000 N 
ATOM      6  C   UNL     1       7.065   5.583  18.983  0.00  0.00    +0.000 A 
ATOM      7  O   UNL     1       7.355   5.668  20.177  0.00  0.00    +0.000 OA
ENDROOT
BRANCH   1  10
ATOM      8  O   UNL     1       7.589   9.408  17.222  0.00  0.00    +0.000 OA
ATOM      9  C   UNL     1       8.287   8.974  18.130  0.00  0.00    +0.000 C 
ATOM     10  N   UNL     1       8.336   7.661  18.555  0.00  0.00    +0.000 N 
ATOM     11  N   UNL     1       9.096   9.779  18.899  0.00  0.00    +0.000 N 
ATOM     12  H   UNL     1       8.621   7.516  19.519  0.00  0.00    +0.000 HD
ATOM     13  H   UNL     1       9.917   9.321  19.265  0.00  0.00    +0.000 HD
BRANCH  11  14
ATOM     14  C   UNL     1       9.165  11.230  18.710  0.00  0.00    +0.000 C 
ATOM     15  C   UNL     1       9.228  11.941  20.067  0.00  0.00    +0.000 C 
ATOM     16  C   UNL     1      10.537  11.648  20.800  0.00  0.00    +0.000 C 
ATOM     17  C   UNL     1      11.749  12.023  19.952  0.00  0.00    +0.000 C 
ATOM     18  C   UNL     1      11.701  11.423  18.546  0.00  0.00    +0.000 C 
ATOM     19  C   UNL     1      10.362  11.655  17.847  0.00  0.00    +0.000 C 
ENDBRANCH  11  14
ENDBRANCH   1  10
BRANCH   5  20
ATOM     20  C   UNL     1       5.387   3.805  19.342  0.00  0.00    +0.000 C 
BRANCH  20  21
ATOM     21  C   UNL     1       3.935   3.788  18.913  0.00  0.00    +0.000 A 
ATOM     22  C   UNL     1       3.291   2.584  18.584  0.00  0.00    +0.000 A 
ATOM     23  C   UNL     1       1.995   2.592  18.061  0.00  0.00    +0.000 A 
ATOM     24  C   UNL     1       1.327   3.799  17.873  0.00  0.00    +0.000 A 
ATOM     25  C   UNL     1       1.941   4.997  18.228  0.00  0.00    +0.000 A 
ATOM     26  C   UNL     1       3.238   4.993  18.744  0.00  0.00    +0.000 A 
ENDBRANCH  20  21
ENDBRANCH   5  20
TORSDOF 4
ENDMDL
MODEL 2
REMARK VINA RESULT:      -8.6      0.247      1.007
REMARK  Name = 
REMARK  4 active torsions:
REMARK  status: ('A' for Active; 'I' for Inactive)
REMARK    1  A    between atoms: N_3  and  C_4
REMARK    2  A    between atoms: N_8  and  C_9
REMARK    3  A    between atoms: C_9  and  C_10
REMARK    4  A    between atoms: N_18  and  C_19
REMARK                            x       y       z     vdW  Elec       q    Type
REMARK                         _______ _______ _______ _____ _____    ______ ____
ROOT
ATOM      1  C   UNL     1       7.595   6.581  17.985  0.00  0.00    +0.000 A 
ATOM      2  C   UNL     1       7.314   6.413  16.685  0.00  0.00    +0.000 A 
ATOM      3  C   UNL     1       6.487   5.328  16.227  0.00  0.00    +0.000 A 
ATOM      4  C   UNL     1       5.912   4.505  17.107  0.00  0.00    +0.000 A 
ATOM      5  N   UNL     1       6.155   4.619  18.467  0.00  0.00    +0.000 N 
ATOM      6  C   UNL     1       7.050   5.567  18.978  0.00  0.00    +0.000 A 
ATOM      7  O   UNL     1       7.382   5.647  20.161  0.00  0.00    +0.000 OA
ENDROOT
BRANCH   1  10
ATOM      8  O   UNL     1       7.517   9.399  17.249  0.00  0.00    +0.000 OA
ATOM      9  C   UNL     1       8.264   8.949  18.109  0.00  0.00    +0.000 C 
ATOM     10  N   UNL     1       8.333   7.629  18.510  0.00  0.00    +0.000 N 
ATOM     11  N   UNL     1       9.116   9.740  18.845  0.00  0.00    +0.000 N 
ATOM     12  H   UNL     1       8.670   7.467  19.453  0.00  0.00    +0.000 HD
ATOM     13  H   UNL     1       9.956   9.274  19.157  0.00  0.00    +0.000 HD
BRANCH  11  14
ATOM     14  C   UNL     1       9.178  11.194  18.676  0.00  0.00    +0.000 C 
ATOM     15  C   UNL     1       9.173  11.889  20.043  0.00  0.00    +0.000 C 
ATOM     16  C   UNL     1      10.450  11.600  20.830  0.00  0.00    +0.000 C 
ATOM     17  C   UNL     1      11.695  11.998  20.043  0.00  0.00    +0.000 C 
ATOM     18  C   UNL     1      11.716  11.415  18.629  0.00  0.00    +0.000 C 
ATOM     19  C   UNL     1      10.408  11.642  17.872  0.00  0.00    +0.000 C 
ENDBRANCH  11  14
ENDBRANCH   1  10
BRANCH   5  20
ATOM     20  C   UNL     1       5.362   3.810  19.392  0.00  0.00    +0.000 C 
BRANCH  20  21
ATOM     21  C   UNL     1       3.944   3.629  18.893  0.00  0.00    +0.000 A 
ATOM     22  C   UNL     1       3.035   4.701  18.891  0.00  0.00    +0.000 A 
ATOM     23  C   UNL     1       1.695   4.494  18.556  0.00  0.00    +0.000 A 
ATOM     24  C   UNL     1       1.252   3.220  18.209  0.00  0.00    +0.000 A 
ATOM     25  C   UNL     1       2.150   2.156  18.173  0.00  0.00    +0.000 A 
ATOM     26  C   UNL     1       3.488   2.359  18.513  0.00  0.00    +0.000 A 
ENDBRANCH  20  21
ENDBRANCH   5  20
TORSDOF 4
ENDMDL
MODEL 3
REMARK VINA RESULT:      -8.3      0.907      1.369
REMARK  Name = 
REMARK  4 active torsions:
REMARK  status: ('A' for Active; 'I' for Inactive)
REMARK    1  A    between atoms: N_3  and  C_4
REMARK    2  A    between atoms: N_8  and  C_9
REMARK    3  A    between atoms: C_9  and  C_10
REMARK    4  A    between atoms: N_18  and  C_19
REMARK                            x       y       z     vdW  Elec       q    Type
REMARK                         _______ _______ _______ _____ _____    ______ ____
ROOT
ATOM      1  C   UNL     1       7.410   6.534  17.918  0.00  0.00    +0.000 A 
ATOM      2  C   UNL     1       7.015   6.410  16.643  0.00  0.00    +0.000 A 
ATOM      3  C   UNL     1       6.147   5.341  16.224  0.00  0.00    +0.000 A 
ATOM      4  C   UNL     1       5.651   4.488  17.122  0.00  0.00    +0.000 A 
ATOM      5  N   UNL     1       6.014   4.556  18.459  0.00  0.00    +0.000 N 
ATOM      6  C   UNL     1       6.953   5.486  18.920  0.00  0.00    +0.000 A 
ATOM      7  O   UNL     1       7.389   5.526  20.071  0.00  0.00    +0.000 OA
ENDROOT
BRANCH   1  10
ATOM      8  O   UNL     1       7.346   9.359  17.208  0.00  0.00    +0.000 OA
ATOM      9  C   UNL     1       8.128   8.889  18.023  0.00  0.00    +0.000 C 
ATOM     10  N   UNL     1       8.195   7.565  18.410  0.00  0.00    +0.000 N 
ATOM     11  N   UNL     1       9.034   9.658  18.719  0.00  0.00    +0.000 N 
ATOM     12  H   UNL     1       8.579   7.388  19.333  0.00  0.00    +0.000 HD
ATOM     13  H   UNL     1       9.879   9.174  18.982  0.00  0.00    +0.000 HD
BRANCH  11  14
ATOM     14  C   UNL     1       9.113  11.111  18.557  0.00  0.00    +0.000 C 
ATOM     15  C   UNL     1       9.066  11.802  19.926  0.00  0.00    +0.000 C 
ATOM     16  C   UNL     1      10.312  11.500  20.756  0.00  0.00    +0.000 C 
ATOM     17  C   UNL     1      11.587  11.890  20.013  0.00  0.00    +0.000 C 
ATOM     18  C   UNL     1      11.653  11.312  18.599  0.00  0.00    +0.000 C 
ATOM     19  C   UNL     1      10.373  11.552  17.799  0.00  0.00    +0.000 C 
ENDBRANCH  11  14
ENDBRANCH   1  10
BRANCH   5  20
ATOM     20  C   UNL     1       5.305   3.716  19.423  0.00  0.00    +0.000 C 
BRANCH  20  21
ATOM     21  C   UNL     1       3.883   4.194  19.632  0.00  0.00    +0.000 A 
ATOM     22  C   UNL     1       3.581   5.565  19.682  0.00  0.00    +0.000 A 
ATOM     23  C   UNL     1       2.293   5.997  20.009  0.00  0.00    +0.000 A 
ATOM     24  C   UNL     1       1.293   5.065  20.278  0.00  0.00    +0.000 A 
ATOM     25  C   UNL     1       1.571   3.703  20.198  0.00  0.00    +0.000 A 
ATOM     26  C   UNL     1       2.859   3.269  19.878  0.00  0.00    +0.000 A 
ENDBRANCH  20  21
ENDBRANCH   5  20
TORSDOF 4
ENDMDL
MODEL 4
REMARK VINA RESULT:      -8.1      1.157      1.230
REMARK  Name = 
REMARK  4 active torsions:
REMARK  status: ('A' for Active; 'I' for Inactive)
REMARK    1  A    between atoms: N_3  and  C_4
REMARK    2  A    between atoms: N_8  and  C_9
REMARK    3  A    between atoms: C_9  and  C_10
REMARK    4  A    between atoms: N_18  and  C_19
REMARK                            x       y       z     vdW  Elec       q    Type
REMARK                         _______ _______ _______ _____ _____    ______ ____
ROOT
ATOM      1  C   UNL     1       7.441   6.492  17.837  0.00  0.00    +0.000 A 
ATOM      2  C   UNL     1       7.154   6.340  16.536  0.00  0.00    +0.000 A 
ATOM      3  C   UNL     1       6.308   5.272  16.071  0.00  0.00    +0.000 A 
ATOM      4  C   UNL     1       5.722   4.451  16.945  0.00  0.00    +0.000 A 
ATOM      5  N   UNL     1       5.970   4.550  18.306  0.00  0.00    +0.000 N 
ATOM      6  C   UNL     1       6.882   5.479  18.822  0.00  0.00    +0.000 A 
ATOM      7  O   UNL     1       7.218   5.543  20.005  0.00  0.00    +0.000 OA
ENDROOT
BRANCH   1  10
ATOM      8  O   UNL     1       7.352   9.329  17.179  0.00  0.00    +0.000 OA
ATOM      9  C   UNL     1       8.121   8.854  18.005  0.00  0.00    +0.000 C 
ATOM     10  N   UNL     1       8.197   7.524  18.368  0.00  0.00    +0.000 N 
ATOM     11  N   UNL     1       8.997   9.623  18.738  0.00  0.00    +0.000 N 
ATOM     12  H   UNL     1       8.561   7.336  19.296  0.00  0.00    +0.000 HD
ATOM     13  H   UNL     1       9.843   9.146  19.013  0.00  0.00    +0.000 HD
BRANCH  11  14
ATOM     14  C   UNL     1       9.059  11.080  18.606  0.00  0.00    +0.000 C 
ATOM     15  C   UNL     1       9.098  11.738  19.990  0.00  0.00    +0.000 C 
ATOM     16  C   UNL     1      10.398  11.424  20.730  0.00  0.00    +0.000 C 
ATOM     17  C   UNL     1      11.620  11.840  19.915  0.00  0.00    +0.000 C 
ATOM     18  C   UNL     1      11.595  11.295  18.486  0.00  0.00    +0.000 C 
ATOM     19  C   UNL     1      10.264  11.546  17.777  0.00  0.00    +0.000 C 
ENDBRANCH  11  14
ENDBRANCH   1  10
BRANCH   5  20
ATOM     20  C   UNL     1       5.167   3.746  19.226  0.00  0.00    +0.000 C 
BRANCH  20  21
ATOM     21  C   UNL     1       3.955   4.512  19.715  0.00  0.00    +0.000 A 
ATOM     22  C   UNL     1       3.002   3.903  20.548  0.00  0.00    +0.000 A 
ATOM     23  C   UNL     1       1.822   4.572  20.884  0.00  0.00    +0.000 A 
ATOM     24  C   UNL     1       1.587   5.857  20.401  0.00  0.00    +0.000 A 
ATOM     25  C   UNL     1       2.540   6.485  19.602  0.00  0.00    +0.000 A 
ATOM     26  C   UNL     1       3.716   5.816  19.260  0.00  0.00    +0.000 A 
ENDBRANCH  20  21
ENDBRANCH   5  20
TORSDOF 4
ENDMDL
MODEL 5
REMARK VINA RESULT:      -8.0      5.136      8.119
REMARK  Name = 
REMARK  4 active torsions:
REMARK  status: ('A' for Active; 'I' for Inactive)
REMARK    1  A    between atoms: N_3  and  C_4
REMARK    2  A    between atoms: N_8  and  C_9
REMARK    3  A    between atoms: C_9  and  C_10
REMARK    4  A    between atoms: N_18  and  C_19
REMARK                            x       y       z     vdW  Elec       q    Type
REMARK                         _______ _______ _______ _____ _____    ______ ____
ROOT
ATOM      1  C   UNL     1       1.984   8.090  19.121  0.00  0.00    +0.000 A 
ATOM      2  C   UNL     1       1.603   7.749  20.360  0.00  0.00    +0.000 A 
ATOM      3  C   UNL     1       0.790   8.622  21.166  0.00  0.00    +0.000 A 
ATOM      4  C   UNL     1       0.328   9.766  20.658  0.00  0.00    +0.000 A 
ATOM      5  N   UNL     1       0.678  10.183  19.383  0.00  0.00    +0.000 N 
ATOM      6  C   UNL     1       1.570   9.451  18.589  0.00  0.00    +0.000 A 
ATOM      7  O   UNL     1       1.996   9.823  17.494  0.00  0.00    +0.000 OA
ENDROOT
BRANCH   1  10
ATOM      8  O   UNL     1       3.686   5.819  19.782  0.00  0.00    +0.000 OA
ATOM      9  C   UNL     1       3.520   6.224  18.639  0.00  0.00    +0.000 C 
ATOM     10  N   UNL     1       2.716   7.283  18.265  0.00  0.00    +0.000 N 
ATOM     11  N   UNL     1       4.093   5.621  17.543  0.00  0.00    +0.000 N 
ATOM     12  H   UNL     1       2.362   7.259  17.314  0.00  0.00    +0.000 HD
ATOM     13  H   UNL     1       4.279   6.244  16.771  0.00  0.00    +0.000 HD
BRANCH  11  14
ATOM     14  C   UNL     1       4.927   4.422  17.656  0.00  0.00    +0.000 C 
ATOM     15  C   UNL     1       4.876   3.614  16.353  0.00  0.00    +0.000 C 
ATOM     16  C   UNL     1       5.537   4.361  15.196  0.00  0.00    +0.000 C 
ATOM     17  C   UNL     1       6.979   4.739  15.525  0.00  0.00    +0.000 C 
ATOM     18  C   UNL     1       7.114   5.464  16.864  0.00  0.00    +0.000 C 
ATOM     19  C   UNL     1       6.386   4.750  18.004  0.00  0.00    +0.000 C 
ENDBRANCH  11  14
ENDBRANCH   1  10
BRANCH   5  20
ATOM     20  C   UNL     1       0.003  11.349  18.814  0.00  0.00    +0.000 C 
BRANCH  20  21
ATOM     21  C   UNL     1      -1.426  11.027  18.430  0.00  0.00    +0.000 A 
ATOM     22  C   UNL     1      -1.713  10.038  17.475  0.00  0.00    +0.000 A 
ATOM     23  C   UNL     1      -3.023   9.841  17.029  0.00  0.00    +0.000 A 
ATOM     24  C   UNL     1      -4.058  10.620  17.540  0.00  0.00    +0.000 A 
ATOM     25  C   UNL     1      -3.791  11.580  18.513  0.00  0.00    +0.000 A 
ATOM     26  C   UNL     1      -2.483  11.783  18.955  0.00  0.00    +0.000 A 
ENDBRANCH  20  21
ENDBRANCH   5  20
TORSDOF 4
ENDMDL
MODEL 6
REMARK VINA RESULT:      -7.8      4.357      7.441
REMARK  Name = 
REMARK  4 active torsions:
REMARK  status: ('A' for Active; 'I' for Inactive)
REMARK    1  A    between atoms: N_3  and  C_4
REMARK    2  A    between atoms: N_8  and  C_9
REMARK    3  A    between atoms: C_9  and  C_10
REMARK    4  A    between atoms: N_18  and  C_19
REMARK                            x       y       z     vdW  Elec       q    Type
REMARK                         _______ _______ _______ _____ _____    ______ ____
ROOT
ATOM      1  C   UNL     1       6.432   4.421  16.955  0.00  0.00    +0.000 A 
ATOM      2  C   UNL     1       7.544   4.556  17.691  0.00  0.00    +0.000 A 
ATOM      3  C   UNL     1       7.535   5.256  18.949  0.00  0.00    +0.000 A 
ATOM      4  C   UNL     1       6.388   5.720  19.450  0.00  0.00    +0.000 A 
ATOM      5  N   UNL     1       5.198   5.615  18.746  0.00  0.00    +0.000 N 
ATOM      6  C   UNL     1       5.151   5.064  17.459  0.00  0.00    +0.000 A 
ATOM      7  O   UNL     1       4.145   5.039  16.748  0.00  0.00    +0.000 OA
ENDROOT
BRANCH   1  10
ATOM      8  O   UNL     1       6.782   5.404  14.234  0.00  0.00    +0.000 OA
ATOM      9  C   UNL     1       6.509   4.241  14.498  0.00  0.00    +0.000 C 
ATOM     10  N   UNL     1       6.347   3.715  15.765  0.00  0.00    +0.000 N 
ATOM     11  N   UNL     1       6.380   3.267  13.534  0.00  0.00    +0.000 N 
ATOM     12  H   UNL     1       6.522   2.720  15.861  0.00  0.00    +0.000 HD
ATOM     13  H   UNL     1       5.743   2.522  13.774  0.00  0.00    +0.000 HD
BRANCH  11  14
ATOM     14  C   UNL     1       6.586   3.543  12.111  0.00  0.00    +0.000 C 
ATOM     15  C   UNL     1       7.082   2.282  11.391  0.00  0.00    +0.000 C 
ATOM     16  C   UNL     1       6.013   1.191  11.358  0.00  0.00    +0.000 C 
ATOM     17  C   UNL     1       4.723   1.691  10.714  0.00  0.00    +0.000 C 
ATOM     18  C   UNL     1       4.224   3.002  11.322  0.00  0.00    +0.000 C 
ATOM     19  C   UNL     1       5.318   4.066  11.422  0.00  0.00    +0.000 C 
ENDBRANCH  11  14
ENDBRANCH   1  10
BRANCH   5  20
ATOM     20  C   UNL     1       3.951   5.977  19.417  0.00  0.00    +0.000 C 
BRANCH  20  21
ATOM     21  C   UNL     1       3.156   4.748  19.807  0.00  0.00    +0.000 A 
ATOM     22  C   UNL     1       1.770   4.820  20.020  0.00  0.00    +0.000 A 
ATOM     23  C   UNL     1       1.068   3.715  20.509  0.00  0.00    +0.000 A 
ATOM     24  C   UNL     1       1.740   2.526  20.778  0.00  0.00    +0.000 A 
ATOM     25  C   UNL     1       3.109   2.430  20.538  0.00  0.00    +0.000 A 
ATOM     26  C   UNL     1       3.813   3.535  20.056  0.00  0.00    +0.000 A 
ENDBRANCH  20  21
ENDBRANCH   5  20
TORSDOF 4
ENDMDL
MODEL 7
REMARK VINA RESULT:      -7.7      4.290      7.363
REMARK  Name = 
REMARK  4 active torsions:
REMARK  status: ('A' for Active; 'I' for Inactive)
REMARK    1  A    between atoms: N_3  and  C_4
REMARK    2  A    between atoms: N_8  and  C_9
REMARK    3  A    between atoms: C_9  and  C_10
REMARK    4  A    between atoms: N_18  and  C_19
REMARK                            x       y       z     vdW  Elec       q    Type
REMARK                         _______ _______ _______ _____ _____    ______ ____
ROOT
ATOM      1  C   UNL     1       6.507   4.403  16.952  0.00  0.00    +0.000 A 
ATOM      2  C   UNL     1       7.638   4.567  17.653  0.00  0.00    +0.000 A 
ATOM      3  C   UNL     1       7.647   5.251  18.920  0.00  0.00    +0.000 A 
ATOM      4  C   UNL     1       6.503   5.669  19.464  0.00  0.00    +0.000 A 
ATOM      5  N   UNL     1       5.294   5.530  18.799  0.00  0.00    +0.000 N 
ATOM      6  C   UNL     1       5.222   4.994  17.507  0.00  0.00    +0.000 A 
ATOM      7  O   UNL     1       4.195   4.942  16.829  0.00  0.00    +0.000 OA
ENDROOT
BRANCH   1  10
ATOM      8  O   UNL     1       6.796   5.419  14.236  0.00  0.00    +0.000 OA
ATOM      9  C   UNL     1       6.540   4.249  14.493  0.00  0.00    +0.000 C 
ATOM     10  N   UNL     1       6.407   3.709  15.757  0.00  0.00    +0.000 N 
ATOM     11  N   UNL     1       6.402   3.285  13.521  0.00  0.00    +0.000 N 
ATOM     12  H   UNL     1       6.594   2.715  15.838  0.00  0.00    +0.000 HD
ATOM     13  H   UNL     1       5.777   2.531  13.764  0.00  0.00    +0.000 HD
BRANCH  11  14
ATOM     14  C   UNL     1       6.579   3.578  12.097  0.00  0.00    +0.000 C 
ATOM     15  C   UNL     1       7.113   2.342  11.362  0.00  0.00    +0.000 C 
ATOM     16  C   UNL     1       6.086   1.211  11.335  0.00  0.00    +0.000 C 
ATOM     17  C   UNL     1       4.769   1.666  10.711  0.00  0.00    +0.000 C 
ATOM     18  C   UNL     1       4.229   2.954  11.335  0.00  0.00    +0.000 C 
ATOM     19  C   UNL     1       5.283   4.057  11.428  0.00  0.00    +0.000 C 
ENDBRANCH  11  14
ENDBRANCH   1  10
BRANCH   5  20
ATOM     20  C   UNL     1       4.058   5.840  19.516  0.00  0.00    +0.000 C 
BRANCH  20  21
ATOM     21  C   UNL     1       3.208   4.602  19.713  0.00  0.00    +0.000 A 
ATOM     22  C   UNL     1       3.799   3.342  19.904  0.00  0.00    +0.000 A 
ATOM     23  C   UNL     1       3.012   2.189  19.950  0.00  0.00    +0.000 A 
ATOM     24  C   UNL     1       1.629   2.283  19.818  0.00  0.00    +0.000 A 
ATOM     25  C   UNL     1       1.028   3.530  19.663  0.00  0.00    +0.000 A 
ATOM     26  C   UNL     1       1.813   4.683  19.610  0.00  0.00    +0.000 A 
ENDBRANCH  20  21
ENDBRANCH   5  20
TORSDOF 4
ENDMDL
MODEL 8
REMARK VINA RESULT:      -7.7      6.762      8.616
REMARK  Name = 
REMARK  4 active torsions:
REMARK  status: ('A' for Active; 'I' for Inactive)
REMARK    1  A    between atoms: N_3  and  C_4
REMARK    2  A    between atoms: N_8  and  C_9
REMARK    3  A    between atoms: C_9  and  C_10
REMARK    4  A    between atoms: N_18  and  C_19
REMARK                            x       y       z     vdW  Elec       q    Type
REMARK                         _______ _______ _______ _____ _____    ______ ____
ROOT
ATOM      1  C   UNL     1       0.799   9.284  19.604  0.00  0.00    +0.000 A 
ATOM      2  C   UNL     1       1.078   9.608  18.333  0.00  0.00    +0.000 A 
ATOM      3  C   UNL     1       2.086   8.906  17.581  0.00  0.00    +0.000 A 
ATOM      4  C   UNL     1       2.711   7.856  18.115  0.00  0.00    +0.000 A 
ATOM      5  N   UNL     1       2.472   7.461  19.422  0.00  0.00    +0.000 N 
ATOM      6  C   UNL     1       1.604   8.173  20.258  0.00  0.00    +0.000 A 
ATOM      7  O   UNL     1       1.432   7.931  21.454  0.00  0.00    +0.000 OA
ENDROOT
BRANCH   1  10
ATOM      8  O   UNL     1       1.030  11.521  21.456  0.00  0.00    +0.000 OA
ATOM      9  C   UNL     1      -0.019  10.925  21.249  0.00  0.00    +0.000 C 
ATOM     10  N   UNL     1      -0.192   9.871  20.374  0.00  0.00    +0.000 N 
ATOM     11  N   UNL     1      -1.209  11.280  21.844  0.00  0.00    +0.000 N 
ATOM     12  H   UNL     1      -1.130   9.744  20.008  0.00  0.00    +0.000 HD
ATOM     13  H   UNL     1      -1.854  10.516  21.979  0.00  0.00    +0.000 HD
BRANCH  11  14
ATOM     14  C   UNL     1      -1.319  12.421  22.755  0.00  0.00    +0.000 C 
ATOM     15  C   UNL     1      -1.196  13.737  21.976  0.00  0.00    +0.000 C 
ATOM     16  C   UNL     1      -2.384  13.954  21.040  0.00  0.00    +0.000 C 
ATOM     17  C   UNL     1      -3.708  13.913  21.797  0.00  0.00    +0.000 C 
ATOM     18  C   UNL     1      -3.854  12.668  22.674  0.00  0.00    +0.000 C 
ATOM     19  C   UNL     1      -2.630  12.414  23.554  0.00  0.00    +0.000 C 
ENDBRANCH  11  14
ENDBRANCH   1  10
BRANCH   5  20
ATOM     20  C   UNL     1       3.049   6.202  19.893  0.00  0.00    +0.000 C 
BRANCH  20  21
ATOM     21  C   UNL     1       2.163   5.024  19.544  0.00  0.00    +0.000 A 
ATOM     22  C   UNL     1       1.393   4.382  20.529  0.00  0.00    +0.000 A 
ATOM     23  C   UNL     1       0.684   3.216  20.227  0.00  0.00    +0.000 A 
ATOM     24  C   UNL     1       0.728   2.687  18.939  0.00  0.00    +0.000 A 
ATOM     25  C   UNL     1       1.460   3.334  17.946  0.00  0.00    +0.000 A 
ATOM     26  C   UNL     1       2.173   4.495  18.246  0.00  0.00    +0.000 A 
ENDBRANCH  20  21
ENDBRANCH   5  20
TORSDOF 4
ENDMDL
MODEL 9
REMARK VINA RESULT:      -7.7      4.500      7.649
REMARK  Name = 
REMARK  4 active torsions:
REMARK  status: ('A' for Active; 'I' for Inactive)
REMARK    1  A    between atoms: N_3  and  C_4
REMARK    2  A    between atoms: N_8  and  C_9
REMARK    3  A    between atoms: C_9  and  C_10
REMARK    4  A    between atoms: N_18  and  C_19
REMARK                            x       y       z     vdW  Elec       q    Type
REMARK                         _______ _______ _______ _____ _____    ______ ____
ROOT
ATOM      1  C   UNL     1       6.266   4.360  16.959  0.00  0.00    +0.000 A 
ATOM      2  C   UNL     1       7.317   4.755  17.692  0.00  0.00    +0.000 A 
ATOM      3  C   UNL     1       7.147   5.428  18.954  0.00  0.00    +0.000 A 
ATOM      4  C   UNL     1       5.924   5.602  19.460  0.00  0.00    +0.000 A 
ATOM      5  N   UNL     1       4.791   5.217  18.761  0.00  0.00    +0.000 N 
ATOM      6  C   UNL     1       4.871   4.676  17.472  0.00  0.00    +0.000 A 
ATOM      7  O   UNL     1       3.898   4.413  16.764  0.00  0.00    +0.000 OA
ENDROOT
BRANCH   1  10
ATOM      8  O   UNL     1       6.391   5.410  14.244  0.00  0.00    +0.000 OA
ATOM      9  C   UNL     1       6.390   4.214  14.503  0.00  0.00    +0.000 C 
ATOM     10  N   UNL     1       6.348   3.659  15.767  0.00  0.00    +0.000 N 
ATOM     11  N   UNL     1       6.488   3.240  13.535  0.00  0.00    +0.000 N 
ATOM     12  H   UNL     1       6.744   2.730  15.860  0.00  0.00    +0.000 HD
ATOM     13  H   UNL     1       6.036   2.369  13.769  0.00  0.00    +0.000 HD
BRANCH  11  14
ATOM     14  C   UNL     1       6.630   3.562  12.113  0.00  0.00    +0.000 C 
ATOM     15  C   UNL     1       7.202   2.361  11.350  0.00  0.00    +0.000 C 
ATOM     16  C   UNL     1       6.222   1.189  11.321  0.00  0.00    +0.000 C 
ATOM     17  C   UNL     1       4.878   1.599  10.725  0.00  0.00    +0.000 C 
ATOM     18  C   UNL     1       4.295   2.854  11.377  0.00  0.00    +0.000 C 
ATOM     19  C   UNL     1       5.305   3.998  11.472  0.00  0.00    +0.000 C 
ENDBRANCH  11  14
ENDBRANCH   1  10
BRANCH   5  20
ATOM     20  C   UNL     1       3.496   5.267  19.438  0.00  0.00    +0.000 C 
BRANCH  20  21
ATOM     21  C   UNL     1       2.857   6.634  19.308  0.00  0.00    +0.000 A 
ATOM     22  C   UNL     1       2.082   7.172  20.348  0.00  0.00    +0.000 A 
ATOM     23  C   UNL     1       1.387   8.371  20.168  0.00  0.00    +0.000 A 
ATOM     24  C   UNL     1       1.468   9.049  18.954  0.00  0.00    +0.000 A 
ATOM     25  C   UNL     1       2.260   8.543  17.927  0.00  0.00    +0.000 A 
ATOM     26  C   UNL     1       2.951   7.343  18.102  0.00  0.00    +0.000 A 
ENDBRANCH  20  21
ENDBRANCH   5  20
TORSDOF 4
ENDMDL
