MODEL 1
REMARK VINA RESULT:      -7.5      0.000      0.000
REMARK  Name = 
REMARK  8 active torsions:
REMARK  status: ('A' for Active; 'I' for Inactive)
REMARK    1  A    between atoms: C_2  and  C_3
REMARK    2  A    between atoms: C_3  and  C_4
REMARK    3  A    between atoms: C_4  and  C_5
REMARK    4  A    between atoms: C_5  and  C_6
REMARK    5  A    between atoms: C_6  and  C_7
REMARK    6  A    between atoms: N_12  and  C_13
REMARK    7  A    between atoms: C_17  and  S_18
REMARK    8  A    between atoms: S_18  and  O_21
REMARK                            x       y       z     vdW  Elec       q    Type
REMARK                         _______ _______ _______ _____ _____    ______ ____
ROOT
ATOM      1  O   UNL     1       6.766   5.651  19.224  0.00  0.00    +0.000 OA
ATOM      2  C   UNL     1       6.297   6.039  18.158  0.00  0.00    +0.000 C 
ATOM      3  N   UNL     1       5.229   5.475  17.480  0.00  0.00    +0.000 N 
ATOM      4  H   UNL     1       5.069   5.787  16.530  0.00  0.00    +0.000 HD
ENDROOT
BRANCH   3   5
ATOM      5  C   UNL     1       4.422   4.409  17.940  0.00  0.00    +0.000 A 
ATOM      6  C   UNL     1       4.372   3.161  17.308  0.00  0.00    +0.000 A 
ATOM      7  C   UNL     1       3.555   2.136  17.791  0.00  0.00    +0.000 A 
ATOM      8  C   UNL     1       2.769   2.343  18.918  0.00  0.00    +0.000 A 
ATOM      9  C   UNL     1       2.824   3.583  19.558  0.00  0.00    +0.000 A 
ATOM     10  C   UNL     1       3.644   4.615  19.084  0.00  0.00    +0.000 A 
BRANCH   9  11
ATOM     11  S   UNL     1       1.774   3.877  20.955  0.00  0.00    +0.000 S 
ATOM     12  O   UNL     1       2.313   3.150  22.085  0.00  0.00    +0.000 OA
ATOM     13  O   UNL     1       1.503   5.293  21.001  0.00  0.00    +0.000 OA
BRANCH  11  14
ATOM     14  O   UNL     1       0.405   3.107  20.586  0.00  0.00    +0.000 OA
ATOM     15  H   UNL     1       0.377   3.017  19.610  0.00  0.00    +0.000 HD
ENDBRANCH  11  14
ENDBRANCH   9  11
ENDBRANCH   3   5
BRANCH   2  16
ATOM     16  C   UNL     1       6.949   7.194  17.424  0.00  0.00    +0.000 C 
BRANCH  16  17
ATOM     17  C   UNL     1       8.195   7.729  18.125  0.00  0.00    +0.000 C 
BRANCH  17  18
ATOM     18  C   UNL     1       8.291   9.259  18.076  0.00  0.00    +0.000 C 
BRANCH  18  19
ATOM     19  C   UNL     1       9.244   9.850  19.126  0.00  0.00    +0.000 C 
BRANCH  19  20
ATOM     20  C   UNL     1       9.331  11.383  19.053  0.00  0.00    +0.000 C 
ATOM     21  C   UNL     1      10.119  11.953  17.870  0.00  0.00    +0.000 C 
ATOM     22  C   UNL     1      11.623  11.768  18.043  0.00  0.00    +0.000 C 
ATOM     23  S   UNL     1      12.047  12.181  19.754  0.00  0.00    +0.000 S 
ATOM     24  S   UNL     1      10.163  12.028  20.542  0.00  0.00    +0.000 S 
ENDBRANCH  19  20
ENDBRANCH  18  19
ENDBRANCH  17  18
ENDBRANCH  16  17
ENDBRANCH   2  16
TORSDOF 8
ENDMDL
MODEL 2
REMARK VINA RESULT:      -7.2      2.148      2.908
REMARK  Name = 
REMARK  8 active torsions:
REMARK  status: ('A' for Active; 'I' for Inactive)
REMARK    1  A    between atoms: C_2  and  C_3
REMARK    2  A    between atoms: C_3  and  C_4
REMARK    3  A    between atoms: C_4  and  C_5
REMARK    4  A    between atoms: C_5  and  C_6
REMARK    5  A    between atoms: C_6  and  C_7
REMARK    6  A    between atoms: N_12  and  C_13
REMARK    7  A    between atoms: C_17  and  S_18
REMARK    8  A    between atoms: S_18  and  O_21
REMARK                            x       y       z     vdW  Elec       q    Type
REMARK                         _______ _______ _______ _____ _____    ______ ____
ROOT
ATOM      1  O   UNL     1       8.285   7.010  18.593  0.00  0.00    +0.000 OA
ATOM      2  C   UNL     1       7.722   7.837  17.882  0.00  0.00    +0.000 C 
ATOM      3  N   UNL     1       6.674   7.589  17.010  0.00  0.00    +0.000 N 
ATOM      4  H   UNL     1       6.432   8.325  16.358  0.00  0.00    +0.000 HD
ENDROOT
BRANCH   3   5
ATOM      5  C   UNL     1       5.998   6.357  16.852  0.00  0.00    +0.000 A 
ATOM      6  C   UNL     1       6.396   5.380  15.932  0.00  0.00    +0.000 A 
ATOM      7  C   UNL     1       5.695   4.178  15.803  0.00  0.00    +0.000 A 
ATOM      8  C   UNL     1       4.580   3.932  16.593  0.00  0.00    +0.000 A 
ATOM      9  C   UNL     1       4.185   4.900  17.520  0.00  0.00    +0.000 A 
ATOM     10  C   UNL     1       4.885   6.106  17.660  0.00  0.00    +0.000 A 
BRANCH   9  11
ATOM     11  S   UNL     1       2.724   4.624  18.482  0.00  0.00    +0.000 S 
ATOM     12  O   UNL     1       2.870   3.358  19.171  0.00  0.00    +0.000 OA
ATOM     13  O   UNL     1       2.423   5.853  19.175  0.00  0.00    +0.000 OA
BRANCH  11  14
ATOM     14  O   UNL     1       1.573   4.363  17.383  0.00  0.00    +0.000 OA
ATOM     15  H   UNL     1       1.199   3.474  17.560  0.00  0.00    +0.000 HD
ENDBRANCH  11  14
ENDBRANCH   9  11
ENDBRANCH   3   5
BRANCH   2  16
ATOM     16  C   UNL     1       8.219   9.269  17.851  0.00  0.00    +0.000 C 
BRANCH  16  17
ATOM     17  C   UNL     1       9.048   9.645  19.076  0.00  0.00    +0.000 C 
BRANCH  17  18
ATOM     18  C   UNL     1       9.416  11.135  19.107  0.00  0.00    +0.000 C 
BRANCH  18  19
ATOM     19  C   UNL     1      10.258  11.586  17.904  0.00  0.00    +0.000 C 
BRANCH  19  20
ATOM     20  C   UNL     1      11.501  12.391  18.317  0.00  0.00    +0.000 C 
ATOM     21  C   UNL     1      11.289  13.427  19.425  0.00  0.00    +0.000 C 
ATOM     22  C   UNL     1      10.530  14.652  18.926  0.00  0.00    +0.000 C 
ATOM     23  S   UNL     1      11.207  15.112  17.311  0.00  0.00    +0.000 S 
ATOM     24  S   UNL     1      12.131  13.334  16.890  0.00  0.00    +0.000 S 
ENDBRANCH  19  20
ENDBRANCH  18  19
ENDBRANCH  17  18
ENDBRANCH  16  17
ENDBRANCH   2  16
TORSDOF 8
ENDMDL
MODEL 3
REMARK VINA RESULT:      -7.1      1.292      1.574
REMARK  Name = 
REMARK  8 active torsions:
REMARK  status: ('A' for Active; 'I' for Inactive)
REMARK    1  A    between atoms: C_2  and  C_3
REMARK    2  A    between atoms: C_3  and  C_4
REMARK    3  A    between atoms: C_4  and  C_5
REMARK    4  A    between atoms: C_5  and  C_6
REMARK    5  A    between atoms: C_6  and  C_7
REMARK    6  A    between atoms: N_12  and  C_13
REMARK    7  A    between atoms: C_17  and  S_18
REMARK    8  A    between atoms: S_18  and  O_21
REMARK                            x       y       z     vdW  Elec       q    Type
REMARK                         _______ _______ _______ _____ _____    ______ ____
ROOT
ATOM      1  O   UNL     1       5.556   7.222  17.102  0.00  0.00    +0.000 OA
ATOM      2  C   UNL     1       6.400   6.595  17.737  0.00  0.00    +0.000 C 
ATOM      3  N   UNL     1       6.199   5.396  18.403  0.00  0.00    +0.000 N 
ATOM      4  H   UNL     1       6.932   5.090  19.030  0.00  0.00    +0.000 HD
ENDROOT
BRANCH   3   5
ATOM      5  C   UNL     1       5.012   4.628  18.391  0.00  0.00    +0.000 A 
ATOM      6  C   UNL     1       4.667   3.773  17.337  0.00  0.00    +0.000 A 
ATOM      7  C   UNL     1       3.480   3.037  17.362  0.00  0.00    +0.000 A 
ATOM      8  C   UNL     1       2.615   3.142  18.444  0.00  0.00    +0.000 A 
ATOM      9  C   UNL     1       2.961   3.985  19.502  0.00  0.00    +0.000 A 
ATOM     10  C   UNL     1       4.152   4.724  19.489  0.00  0.00    +0.000 A 
BRANCH   9  11
ATOM     11  S   UNL     1       1.831   4.178  20.853  0.00  0.00    +0.000 S 
ATOM     12  O   UNL     1       2.315   3.384  21.962  0.00  0.00    +0.000 OA
ATOM     13  O   UNL     1       1.540   5.586  20.975  0.00  0.00    +0.000 OA
BRANCH  11  14
ATOM     14  O   UNL     1       0.495   3.422  20.359  0.00  0.00    +0.000 OA
ATOM     15  H   UNL     1       0.753   2.833  19.618  0.00  0.00    +0.000 HD
ENDBRANCH  11  14
ENDBRANCH   9  11
ENDBRANCH   3   5
BRANCH   2  16
ATOM     16  C   UNL     1       7.793   7.167  17.910  0.00  0.00    +0.000 C 
BRANCH  16  17
ATOM     17  C   UNL     1       7.840   8.687  17.784  0.00  0.00    +0.000 C 
BRANCH  17  18
ATOM     18  C   UNL     1       8.894   9.325  18.700  0.00  0.00    +0.000 C 
BRANCH  18  19
ATOM     19  C   UNL     1       9.388  10.693  18.209  0.00  0.00    +0.000 C 
BRANCH  19  20
ATOM     20  C   UNL     1      10.341  11.373  19.206  0.00  0.00    +0.000 C 
ATOM     21  C   UNL     1       9.674  12.146  20.348  0.00  0.00    +0.000 C 
ATOM     22  C   UNL     1       9.066  13.460  19.869  0.00  0.00    +0.000 C 
ATOM     23  S   UNL     1      10.247  14.251  18.748  0.00  0.00    +0.000 S 
ATOM     24  S   UNL     1      11.378  12.595  18.337  0.00  0.00    +0.000 S 
ENDBRANCH  19  20
ENDBRANCH  18  19
ENDBRANCH  17  18
ENDBRANCH  16  17
ENDBRANCH   2  16
TORSDOF 8
ENDMDL
MODEL 4
REMARK VINA RESULT:      -7.1      2.153      2.720
REMARK  Name = 
REMARK  8 active torsions:
REMARK  status: ('A' for Active; 'I' for Inactive)
REMARK    1  A    between atoms: C_2  and  C_3
REMARK    2  A    between atoms: C_3  and  C_4
REMARK    3  A    between atoms: C_4  and  C_5
REMARK    4  A    between atoms: C_5  and  C_6
REMARK    5  A    between atoms: C_6  and  C_7
REMARK    6  A    between atoms: N_12  and  C_13
REMARK    7  A    between atoms: C_17  and  S_18
REMARK    8  A    between atoms: S_18  and  O_21
REMARK                            x       y       z     vdW  Elec       q    Type
REMARK                         _______ _______ _______ _____ _____    ______ ____
ROOT
ATOM      1  O   UNL     1       8.201   6.963  18.592  0.00  0.00    +0.000 OA
ATOM      2  C   UNL     1       7.688   7.767  17.819  0.00  0.00    +0.000 C 
ATOM      3  N   UNL     1       6.684   7.496  16.904  0.00  0.00    +0.000 N 
ATOM      4  H   UNL     1       6.487   8.207  16.211  0.00  0.00    +0.000 HD
ENDROOT
BRANCH   3   5
ATOM      5  C   UNL     1       5.998   6.268  16.762  0.00  0.00    +0.000 A 
ATOM      6  C   UNL     1       6.401   5.267  15.870  0.00  0.00    +0.000 A 
ATOM      7  C   UNL     1       5.690   4.070  15.755  0.00  0.00    +0.000 A 
ATOM      8  C   UNL     1       4.560   3.852  16.532  0.00  0.00    +0.000 A 
ATOM      9  C   UNL     1       4.161   4.843  17.431  0.00  0.00    +0.000 A 
ATOM     10  C   UNL     1       4.870   6.045  17.557  0.00  0.00    +0.000 A 
BRANCH   9  11
ATOM     11  S   UNL     1       2.681   4.602  18.376  0.00  0.00    +0.000 S 
ATOM     12  O   UNL     1       2.907   3.507  19.296  0.00  0.00    +0.000 OA
ATOM     13  O   UNL     1       2.230   5.901  18.812  0.00  0.00    +0.000 OA
BRANCH  11  14
ATOM     14  O   UNL     1       1.621   4.026  17.305  0.00  0.00    +0.000 OA
ATOM     15  H   UNL     1       1.751   3.055  17.263  0.00  0.00    +0.000 HD
ENDBRANCH  11  14
ENDBRANCH   9  11
ENDBRANCH   3   5
BRANCH   2  16
ATOM     16  C   UNL     1       8.209   9.189  17.755  0.00  0.00    +0.000 C 
BRANCH  16  17
ATOM     17  C   UNL     1       8.924   9.627  19.030  0.00  0.00    +0.000 C 
BRANCH  17  18
ATOM     18  C   UNL     1       9.903  10.785  18.792  0.00  0.00    +0.000 C 
BRANCH  18  19
ATOM     19  C   UNL     1       9.236  12.168  18.811  0.00  0.00    +0.000 C 
BRANCH  19  20
ATOM     20  C   UNL     1       9.666  13.052  17.629  0.00  0.00    +0.000 C 
ATOM     21  C   UNL     1      11.114  12.884  17.161  0.00  0.00    +0.000 C 
ATOM     22  C   UNL     1      12.106  13.515  18.132  0.00  0.00    +0.000 C 
ATOM     23  S   UNL     1      11.451  15.126  18.636  0.00  0.00    +0.000 S 
ATOM     24  S   UNL     1       9.506  14.811  18.080  0.00  0.00    +0.000 S 
ENDBRANCH  19  20
ENDBRANCH  18  19
ENDBRANCH  17  18
ENDBRANCH  16  17
ENDBRANCH   2  16
TORSDOF 8
ENDMDL
MODEL 5
REMARK VINA RESULT:      -7.1      1.193      1.640
REMARK  Name = 
REMARK  8 active torsions:
REMARK  status: ('A' for Active; 'I' for Inactive)
REMARK    1  A    between atoms: C_2  and  C_3
REMARK    2  A    between atoms: C_3  and  C_4
REMARK    3  A    between atoms: C_4  and  C_5
REMARK    4  A    between atoms: C_5  and  C_6
REMARK    5  A    between atoms: C_6  and  C_7
REMARK    6  A    between atoms: N_12  and  C_13
REMARK    7  A    between atoms: C_17  and  S_18
REMARK    8  A    between atoms: S_18  and  O_21
REMARK                            x       y       z     vdW  Elec       q    Type
REMARK                         _______ _______ _______ _____ _____    ______ ____
ROOT
ATOM      1  O   UNL     1       5.104   7.032  17.275  0.00  0.00    +0.000 OA
ATOM      2  C   UNL     1       6.046   6.253  17.397  0.00  0.00    +0.000 C 
ATOM      3  N   UNL     1       5.964   4.925  17.783  0.00  0.00    +0.000 N 
ATOM      4  H   UNL     1       6.832   4.459  18.015  0.00  0.00    +0.000 HD
ENDROOT
BRANCH   3   5
ATOM      5  C   UNL     1       4.774   4.198  18.011  0.00  0.00    +0.000 A 
ATOM      6  C   UNL     1       4.267   3.259  17.104  0.00  0.00    +0.000 A 
ATOM      7  C   UNL     1       3.083   2.566  17.365  0.00  0.00    +0.000 A 
ATOM      8  C   UNL     1       2.380   2.802  18.540  0.00  0.00    +0.000 A 
ATOM      9  C   UNL     1       2.887   3.729  19.452  0.00  0.00    +0.000 A 
ATOM     10  C   UNL     1       4.078   4.425  19.202  0.00  0.00    +0.000 A 
BRANCH   9  11
ATOM     11  S   UNL     1       1.962   4.086  20.920  0.00  0.00    +0.000 S 
ATOM     12  O   UNL     1       0.564   4.192  20.557  0.00  0.00    +0.000 OA
ATOM     13  O   UNL     1       2.430   3.195  21.953  0.00  0.00    +0.000 OA
BRANCH  11  14
ATOM     14  O   UNL     1       2.400   5.589  21.305  0.00  0.00    +0.000 OA
ATOM     15  H   UNL     1       3.376   5.637  21.225  0.00  0.00    +0.000 HD
ENDBRANCH  11  14
ENDBRANCH   9  11
ENDBRANCH   3   5
BRANCH   2  16
ATOM     16  C   UNL     1       7.464   6.747  17.194  0.00  0.00    +0.000 C 
BRANCH  16  17
ATOM     17  C   UNL     1       7.957   7.648  18.323  0.00  0.00    +0.000 C 
BRANCH  17  18
ATOM     18  C   UNL     1       8.222   9.087  17.861  0.00  0.00    +0.000 C 
BRANCH  18  19
ATOM     19  C   UNL     1       8.975   9.937  18.896  0.00  0.00    +0.000 C 
BRANCH  19  20
ATOM     20  C   UNL     1       9.825  11.043  18.250  0.00  0.00    +0.000 C 
ATOM     21  C   UNL     1      11.153  11.357  18.944  0.00  0.00    +0.000 C 
ATOM     22  C   UNL     1      10.951  12.124  20.247  0.00  0.00    +0.000 C 
ATOM     23  S   UNL     1       9.705  13.405  19.956  0.00  0.00    +0.000 S 
ATOM     24  S   UNL     1       8.899  12.614  18.248  0.00  0.00    +0.000 S 
ENDBRANCH  19  20
ENDBRANCH  18  19
ENDBRANCH  17  18
ENDBRANCH  16  17
ENDBRANCH   2  16
TORSDOF 8
ENDMDL
MODEL 6
REMARK VINA RESULT:      -7.0      1.298      1.819
REMARK  Name = 
REMARK  8 active torsions:
REMARK  status: ('A' for Active; 'I' for Inactive)
REMARK    1  A    between atoms: C_2  and  C_3
REMARK    2  A    between atoms: C_3  and  C_4
REMARK    3  A    between atoms: C_4  and  C_5
REMARK    4  A    between atoms: C_5  and  C_6
REMARK    5  A    between atoms: C_6  and  C_7
REMARK    6  A    between atoms: N_12  and  C_13
REMARK    7  A    between atoms: C_17  and  S_18
REMARK    8  A    between atoms: S_18  and  O_21
REMARK                            x       y       z     vdW  Elec       q    Type
REMARK                         _______ _______ _______ _____ _____    ______ ____
ROOT
ATOM      1  O   UNL     1       7.852   4.709  18.634  0.00  0.00    +0.000 OA
ATOM      2  C   UNL     1       7.313   5.804  18.501  0.00  0.00    +0.000 C 
ATOM      3  N   UNL     1       5.972   6.030  18.235  0.00  0.00    +0.000 N 
ATOM      4  H   UNL     1       5.707   6.971  17.972  0.00  0.00    +0.000 HD
ENDROOT
BRANCH   3   5
ATOM      5  C   UNL     1       4.961   5.044  18.165  0.00  0.00    +0.000 A 
ATOM      6  C   UNL     1       4.637   4.366  16.984  0.00  0.00    +0.000 A 
ATOM      7  C   UNL     1       3.626   3.403  16.956  0.00  0.00    +0.000 A 
ATOM      8  C   UNL     1       2.917   3.101  18.112  0.00  0.00    +0.000 A 
ATOM      9  C   UNL     1       3.244   3.768  19.294  0.00  0.00    +0.000 A 
ATOM     10  C   UNL     1       4.261   4.732  19.334  0.00  0.00    +0.000 A 
BRANCH   9  11
ATOM     11  S   UNL     1       2.299   3.440  20.757  0.00  0.00    +0.000 S 
ATOM     12  O   UNL     1       2.258   4.652  21.549  0.00  0.00    +0.000 OA
ATOM     13  O   UNL     1       1.106   2.737  20.352  0.00  0.00    +0.000 OA
BRANCH  11  14
ATOM     14  O   UNL     1       3.225   2.427  21.604  0.00  0.00    +0.000 OA
ATOM     15  H   UNL     1       2.932   1.517  21.388  0.00  0.00    +0.000 HD
ENDBRANCH  11  14
ENDBRANCH   9  11
ENDBRANCH   3   5
BRANCH   2  16
ATOM     16  C   UNL     1       8.151   7.067  18.546  0.00  0.00    +0.000 C 
BRANCH  16  17
ATOM     17  C   UNL     1       7.536   8.227  17.768  0.00  0.00    +0.000 C 
BRANCH  17  18
ATOM     18  C   UNL     1       8.475   9.436  17.667  0.00  0.00    +0.000 C 
BRANCH  18  19
ATOM     19  C   UNL     1       9.000   9.923  19.026  0.00  0.00    +0.000 C 
BRANCH  19  20
ATOM     20  C   UNL     1      10.000  11.083  18.896  0.00  0.00    +0.000 C 
ATOM     21  C   UNL     1      10.737  11.478  20.179  0.00  0.00    +0.000 C 
ATOM     22  C   UNL     1       9.831  12.227  21.151  0.00  0.00    +0.000 C 
ATOM     23  S   UNL     1       8.861  13.427  20.204  0.00  0.00    +0.000 S 
ATOM     24  S   UNL     1       9.131  12.592  18.354  0.00  0.00    +0.000 S 
ENDBRANCH  19  20
ENDBRANCH  18  19
ENDBRANCH  17  18
ENDBRANCH  16  17
ENDBRANCH   2  16
TORSDOF 8
ENDMDL
MODEL 7
REMARK VINA RESULT:      -6.9      5.889      8.724
REMARK  Name = 
REMARK  8 active torsions:
REMARK  status: ('A' for Active; 'I' for Inactive)
REMARK    1  A    between atoms: C_2  and  C_3
REMARK    2  A    between atoms: C_3  and  C_4
REMARK    3  A    between atoms: C_4  and  C_5
REMARK    4  A    between atoms: C_5  and  C_6
REMARK    5  A    between atoms: C_6  and  C_7
REMARK    6  A    between atoms: N_12  and  C_13
REMARK    7  A    between atoms: C_17  and  S_18
REMARK    8  A    between atoms: S_18  and  O_21
REMARK                            x       y       z     vdW  Elec       q    Type
REMARK                         _______ _______ _______ _____ _____    ______ ____
ROOT
ATOM      1  O   UNL     1       2.548   8.383  17.110  0.00  0.00    +0.000 OA
ATOM      2  C   UNL     1       2.436   7.999  18.272  0.00  0.00    +0.000 C 
ATOM      3  N   UNL     1       2.804   6.757  18.762  0.00  0.00    +0.000 N 
ATOM      4  H   UNL     1       2.487   6.517  19.693  0.00  0.00    +0.000 HD
ENDROOT
BRANCH   3   5
ATOM      5  C   UNL     1       3.466   5.740  18.037  0.00  0.00    +0.000 A 
ATOM      6  C   UNL     1       2.870   4.513  17.726  0.00  0.00    +0.000 A 
ATOM      7  C   UNL     1       3.562   3.531  17.014  0.00  0.00    +0.000 A 
ATOM      8  C   UNL     1       4.868   3.759  16.599  0.00  0.00    +0.000 A 
ATOM      9  C   UNL     1       5.464   4.986  16.899  0.00  0.00    +0.000 A 
ATOM     10  C   UNL     1       4.775   5.980  17.608  0.00  0.00    +0.000 A 
BRANCH   9  11
ATOM     11  S   UNL     1       7.152   5.259  16.435  0.00  0.00    +0.000 S 
ATOM     12  O   UNL     1       7.320   4.820  15.065  0.00  0.00    +0.000 OA
ATOM     13  O   UNL     1       7.511   6.586  16.873  0.00  0.00    +0.000 OA
BRANCH  11  14
ATOM     14  O   UNL     1       7.979   4.190  17.314  0.00  0.00    +0.000 OA
ATOM     15  H   UNL     1       8.557   3.693  16.697  0.00  0.00    +0.000 HD
ENDBRANCH  11  14
ENDBRANCH   9  11
ENDBRANCH   3   5
BRANCH   2  16
ATOM     16  C   UNL     1       1.770   8.893  19.300  0.00  0.00    +0.000 C 
BRANCH  16  17
ATOM     17  C   UNL     1       1.031  10.076  18.682  0.00  0.00    +0.000 C 
BRANCH  17  18
ATOM     18  C   UNL     1      -0.429  10.170  19.146  0.00  0.00    +0.000 C 
BRANCH  18  19
ATOM     19  C   UNL     1      -1.357  10.844  18.125  0.00  0.00    +0.000 C 
BRANCH  19  20
ATOM     20  C   UNL     1      -2.462   9.904  17.615  0.00  0.00    +0.000 C 
ATOM     21  C   UNL     1      -2.584   9.778  16.094  0.00  0.00    +0.000 C 
ATOM     22  C   UNL     1      -3.204  11.022  15.465  0.00  0.00    +0.000 C 
ATOM     23  S   UNL     1      -4.605  11.531  16.492  0.00  0.00    +0.000 S 
ATOM     24  S   UNL     1      -4.090  10.497  18.182  0.00  0.00    +0.000 S 
ENDBRANCH  19  20
ENDBRANCH  18  19
ENDBRANCH  17  18
ENDBRANCH  16  17
ENDBRANCH   2  16
TORSDOF 8
ENDMDL
MODEL 8
REMARK VINA RESULT:      -6.9      2.279      3.109
REMARK  Name = 
REMARK  8 active torsions:
REMARK  status: ('A' for Active; 'I' for Inactive)
REMARK    1  A    between atoms: C_2  and  C_3
REMARK    2  A    between atoms: C_3  and  C_4
REMARK    3  A    between atoms: C_4  and  C_5
REMARK    4  A    between atoms: C_5  and  C_6
REMARK    5  A    between atoms: C_6  and  C_7
REMARK    6  A    between atoms: N_12  and  C_13
REMARK    7  A    between atoms: C_17  and  S_18
REMARK    8  A    between atoms: S_18  and  O_21
REMARK                            x       y       z     vdW  Elec       q    Type
REMARK                         _______ _______ _______ _____ _____    ______ ____
ROOT
ATOM      1  O   UNL     1       8.323   7.038  18.601  0.00  0.00    +0.000 OA
ATOM      2  C   UNL     1       7.768   7.795  17.808  0.00  0.00    +0.000 C 
ATOM      3  N   UNL     1       6.842   7.434  16.844  0.00  0.00    +0.000 N 
ATOM      4  H   UNL     1       6.607   8.130  16.147  0.00  0.00    +0.000 HD
ENDROOT
BRANCH   3   5
ATOM      5  C   UNL     1       6.291   6.145  16.661  0.00  0.00    +0.000 A 
ATOM      6  C   UNL     1       6.419   5.423  15.468  0.00  0.00    +0.000 A 
ATOM      7  C   UNL     1       5.854   4.153  15.326  0.00  0.00    +0.000 A 
ATOM      8  C   UNL     1       5.147   3.582  16.377  0.00  0.00    +0.000 A 
ATOM      9  C   UNL     1       5.026   4.294  17.572  0.00  0.00    +0.000 A 
ATOM     10  C   UNL     1       5.595   5.566  17.726  0.00  0.00    +0.000 A 
BRANCH   9  11
ATOM     11  S   UNL     1       4.069   3.603  18.893  0.00  0.00    +0.000 S 
ATOM     12  O   UNL     1       3.772   4.661  19.836  0.00  0.00    +0.000 OA
ATOM     13  O   UNL     1       3.041   2.783  18.298  0.00  0.00    +0.000 OA
BRANCH  11  14
ATOM     14  O   UNL     1       5.105   2.641  19.668  0.00  0.00    +0.000 OA
ATOM     15  H   UNL     1       4.680   1.760  19.746  0.00  0.00    +0.000 HD
ENDBRANCH  11  14
ENDBRANCH   9  11
ENDBRANCH   3   5
BRANCH   2  16
ATOM     16  C   UNL     1       8.144   9.263  17.780  0.00  0.00    +0.000 C 
BRANCH  16  17
ATOM     17  C   UNL     1       9.004   9.689  18.966  0.00  0.00    +0.000 C 
BRANCH  17  18
ATOM     18  C   UNL     1       9.807  10.967  18.687  0.00  0.00    +0.000 C 
BRANCH  18  19
ATOM     19  C   UNL     1       9.392  12.158  19.564  0.00  0.00    +0.000 C 
BRANCH  19  20
ATOM     20  C   UNL     1      10.510  12.611  20.517  0.00  0.00    +0.000 C 
ATOM     21  C   UNL     1      10.302  13.968  21.195  0.00  0.00    +0.000 C 
ATOM     22  C   UNL     1      10.510  15.129  20.227  0.00  0.00    +0.000 C 
ATOM     23  S   UNL     1      11.984  14.777  19.237  0.00  0.00    +0.000 S 
ATOM     24  S   UNL     1      12.080  12.765  19.602  0.00  0.00    +0.000 S 
ENDBRANCH  19  20
ENDBRANCH  18  19
ENDBRANCH  17  18
ENDBRANCH  16  17
ENDBRANCH   2  16
TORSDOF 8
ENDMDL
MODEL 9
REMARK VINA RESULT:      -6.8      1.639      2.292
REMARK  Name = 
REMARK  8 active torsions:
REMARK  status: ('A' for Active; 'I' for Inactive)
REMARK    1  A    between atoms: C_2  and  C_3
REMARK    2  A    between atoms: C_3  and  C_4
REMARK    3  A    between atoms: C_4  and  C_5
REMARK    4  A    between atoms: C_5  and  C_6
REMARK    5  A    between atoms: C_6  and  C_7
REMARK    6  A    between atoms: N_12  and  C_13
REMARK    7  A    between atoms: C_17  and  S_18
REMARK    8  A    between atoms: S_18  and  O_21
REMARK                            x       y       z     vdW  Elec       q    Type
REMARK                         _______ _______ _______ _____ _____    ______ ____
ROOT
ATOM      1  O   UNL     1       6.479   5.296  19.049  0.00  0.00    +0.000 OA
ATOM      2  C   UNL     1       6.051   6.119  18.244  0.00  0.00    +0.000 C 
ATOM      3  N   UNL     1       4.718   6.396  17.987  0.00  0.00    +0.000 N 
ATOM      4  H   UNL     1       4.514   6.964  17.174  0.00  0.00    +0.000 HD
ENDROOT
BRANCH   3   5
ATOM      5  C   UNL     1       3.609   5.852  18.674  0.00  0.00    +0.000 A 
ATOM      6  C   UNL     1       2.862   6.576  19.611  0.00  0.00    +0.000 A 
ATOM      7  C   UNL     1       1.776   5.999  20.274  0.00  0.00    +0.000 A 
ATOM      8  C   UNL     1       1.418   4.682  20.012  0.00  0.00    +0.000 A 
ATOM      9  C   UNL     1       2.154   3.960  19.071  0.00  0.00    +0.000 A 
ATOM     10  C   UNL     1       3.241   4.532  18.396  0.00  0.00    +0.000 A 
BRANCH   9  11
ATOM     11  S   UNL     1       1.747   2.260  18.781  0.00  0.00    +0.000 S 
ATOM     12  O   UNL     1       2.370   1.853  17.539  0.00  0.00    +0.000 OA
ATOM     13  O   UNL     1       1.950   1.550  20.020  0.00  0.00    +0.000 OA
BRANCH  11  14
ATOM     14  O   UNL     1       0.167   2.284  18.458  0.00  0.00    +0.000 OA
ATOM     15  H   UNL     1       0.069   2.218  17.485  0.00  0.00    +0.000 HD
ENDBRANCH  11  14
ENDBRANCH   9  11
ENDBRANCH   3   5
BRANCH   2  16
ATOM     16  C   UNL     1       7.018   6.885  17.363  0.00  0.00    +0.000 C 
BRANCH  16  17
ATOM     17  C   UNL     1       8.091   7.631  18.151  0.00  0.00    +0.000 C 
BRANCH  17  18
ATOM     18  C   UNL     1       8.089   9.140  17.873  0.00  0.00    +0.000 C 
BRANCH  18  19
ATOM     19  C   UNL     1       9.077   9.928  18.746  0.00  0.00    +0.000 C 
BRANCH  19  20
ATOM     20  C   UNL     1       9.397  11.318  18.173  0.00  0.00    +0.000 C 
ATOM     21  C   UNL     1      10.846  11.542  17.732  0.00  0.00    +0.000 C 
ATOM     22  C   UNL     1      11.789  11.696  18.921  0.00  0.00    +0.000 C 
ATOM     23  S   UNL     1      10.989  12.774  20.135  0.00  0.00    +0.000 S 
ATOM     24  S   UNL     1       9.074  12.597  19.432  0.00  0.00    +0.000 S 
ENDBRANCH  19  20
ENDBRANCH  18  19
ENDBRANCH  17  18
ENDBRANCH  16  17
ENDBRANCH   2  16
TORSDOF 8
ENDMDL
