MODEL 1
REMARK VINA RESULT:      -8.6      0.000      0.000
REMARK  Name = 
REMARK  4 active torsions:
REMARK  status: ('A' for Active; 'I' for Inactive)
REMARK    1  A    between atoms: C_2  and  C_3
REMARK    2  A    between atoms: C_12  and  C_14
REMARK    3  A    between atoms: C_20  and  C_21
REMARK    4  A    between atoms: C_27  and  C_28
REMARK                            x       y       z     vdW  Elec       q    Type
REMARK                         _______ _______ _______ _____ _____    ______ ____
ROOT
ATOM      1  C   UNL     1       2.217   6.632  18.445  0.00  0.00    +0.000 A 
ATOM      2  C   UNL     1       1.306   5.553  18.308  0.00  0.00    +0.000 A 
ATOM      3  N   UNL     1       1.872   4.353  18.436  0.00  0.00    +0.000 NA
ATOM      4  N   UNL     1       3.156   4.643  18.686  0.00  0.00    +0.000 N 
ATOM      5  C   UNL     1       3.432   5.994  18.624  0.00  0.00    +0.000 A 
ATOM      6  N   UNL     1       4.713   6.434  18.724  0.00  0.00    +0.000 N 
ATOM      7  C   UNL     1       5.814   5.512  18.380  0.00  0.00    +0.000 C 
ATOM      8  C   UNL     1       5.535   4.187  19.113  0.00  0.00    +0.000 C 
ATOM      9  C   UNL     1       4.161   3.605  18.731  0.00  0.00    +0.000 C 
ATOM     10  H   UNL     1       4.908   7.414  18.507  0.00  0.00    +0.000 HD
ENDROOT
BRANCH   1  17
ATOM     11  O   UNL     1      -0.499  10.032  23.576  0.00  0.00    +0.000 OA
ATOM     12  C   UNL     1      -0.532  10.621  22.494  0.00  0.00    +0.000 C 
ATOM     13  N   UNL     1      -0.298   9.927  21.303  0.00  0.00    +0.000 N 
ATOM     14  C   UNL     1      -0.164  10.515  19.956  0.00  0.00    +0.000 C 
ATOM     15  C   UNL     1       1.192  10.184  19.306  0.00  0.00    +0.000 C 
ATOM     16  N   UNL     1       1.508   8.759  19.428  0.00  0.00    +0.000 N 
ATOM     17  C   UNL     1       1.986   8.065  18.313  0.00  0.00    +0.000 C 
ATOM     18  O   UNL     1       2.191   8.632  17.244  0.00  0.00    +0.000 OA
ATOM     19  C   UNL     1       1.452   8.280  20.815  0.00  0.00    +0.000 C 
ATOM     20  C   UNL     1       0.044   8.503  21.385  0.00  0.00    +0.000 C 
BRANCH  12  21
ATOM     21  C   UNL     1      -0.762  12.051  22.445  0.00  0.00    +0.000 A 
ATOM     22  C   UNL     1      -1.940  12.768  22.550  0.00  0.00    +0.000 A 
ATOM     23  C   UNL     1      -1.608  14.130  22.371  0.00  0.00    +0.000 A 
ATOM     24  C   UNL     1      -0.251  14.168  22.158  0.00  0.00    +0.000 A 
ATOM     25  O   UNL     1       0.265  12.915  22.177  0.00  0.00    +0.000 OA
ENDBRANCH  12  21
ENDBRANCH   1  17
BRANCH   7  26
ATOM     26  C   UNL     1       6.052   5.313  16.894  0.00  0.00    +0.000 A 
ATOM     27  C   UNL     1       5.279   5.725  15.822  0.00  0.00    +0.000 A 
ATOM     28  C   UNL     1       5.802   5.298  14.567  0.00  0.00    +0.000 A 
ATOM     29  C   UNL     1       6.986   4.616  14.710  0.00  0.00    +0.000 A 
ATOM     30  S   UNL     1       7.465   4.496  16.344  0.00  0.00    +0.000 S 
ENDBRANCH   7  26
BRANCH   9  31
ATOM     31  C   UNL     1       3.792   2.442  19.643  0.00  0.00    +0.000 C 
ATOM     32  F   UNL     1       3.046   2.757  20.719  0.00  0.00    +0.000 F 
ATOM     33  F   UNL     1       3.106   1.501  18.943  0.00  0.00    +0.000 F 
ATOM     34  F   UNL     1       4.898   1.813  20.123  0.00  0.00    +0.000 F 
ENDBRANCH   9  31
TORSDOF 4
ENDMDL
MODEL 2
REMARK VINA RESULT:      -8.0      0.759      1.192
REMARK  Name = 
REMARK  4 active torsions:
REMARK  status: ('A' for Active; 'I' for Inactive)
REMARK    1  A    between atoms: C_2  and  C_3
REMARK    2  A    between atoms: C_12  and  C_14
REMARK    3  A    between atoms: C_20  and  C_21
REMARK    4  A    between atoms: C_27  and  C_28
REMARK                            x       y       z     vdW  Elec       q    Type
REMARK                         _______ _______ _______ _____ _____    ______ ____
ROOT
ATOM      1  C   UNL     1       2.334   6.589  18.482  0.00  0.00    +0.000 A 
ATOM      2  C   UNL     1       1.434   5.496  18.383  0.00  0.00    +0.000 A 
ATOM      3  N   UNL     1       2.010   4.308  18.563  0.00  0.00    +0.000 NA
ATOM      4  N   UNL     1       3.290   4.621  18.811  0.00  0.00    +0.000 N 
ATOM      5  C   UNL     1       3.553   5.970  18.696  0.00  0.00    +0.000 A 
ATOM      6  N   UNL     1       4.829   6.427  18.789  0.00  0.00    +0.000 N 
ATOM      7  C   UNL     1       5.942   5.503  18.490  0.00  0.00    +0.000 C 
ATOM      8  C   UNL     1       5.670   4.205  19.274  0.00  0.00    +0.000 C 
ATOM      9  C   UNL     1       4.304   3.595  18.905  0.00  0.00    +0.000 C 
ATOM     10  H   UNL     1       5.016   7.399  18.533  0.00  0.00    +0.000 HD
ENDROOT
BRANCH   1  17
ATOM     11  O   UNL     1      -0.578  10.138  23.400  0.00  0.00    +0.000 OA
ATOM     12  C   UNL     1      -0.586  10.687  22.297  0.00  0.00    +0.000 C 
ATOM     13  N   UNL     1      -0.307   9.953  21.140  0.00  0.00    +0.000 N 
ATOM     14  C   UNL     1      -0.139  10.493  19.776  0.00  0.00    +0.000 C 
ATOM     15  C   UNL     1       1.241  10.157  19.181  0.00  0.00    +0.000 C 
ATOM     16  N   UNL     1       1.570   8.741  19.364  0.00  0.00    +0.000 N 
ATOM     17  C   UNL     1       2.090   8.013  18.291  0.00  0.00    +0.000 C 
ATOM     18  O   UNL     1       2.321   8.543  17.208  0.00  0.00    +0.000 OA
ATOM     19  C   UNL     1       1.476   8.312  20.766  0.00  0.00    +0.000 C 
ATOM     20  C   UNL     1       0.050   8.538  21.284  0.00  0.00    +0.000 C 
BRANCH  12  21
ATOM     21  C   UNL     1      -0.830  12.111  22.188  0.00  0.00    +0.000 A 
ATOM     22  C   UNL     1       0.057  13.155  22.000  0.00  0.00    +0.000 A 
ATOM     23  C   UNL     1      -0.702  14.348  22.028  0.00  0.00    +0.000 A 
ATOM     24  C   UNL     1      -2.005  13.967  22.239  0.00  0.00    +0.000 A 
ATOM     25  O   UNL     1      -2.089  12.620  22.360  0.00  0.00    +0.000 OA
ENDBRANCH  12  21
ENDBRANCH   1  17
BRANCH   7  26
ATOM     26  C   UNL     1       6.193   5.246  17.015  0.00  0.00    +0.000 A 
ATOM     27  C   UNL     1       7.104   4.390  16.420  0.00  0.00    +0.000 A 
ATOM     28  C   UNL     1       7.085   4.465  14.997  0.00  0.00    +0.000 A 
ATOM     29  C   UNL     1       6.125   5.337  14.542  0.00  0.00    +0.000 A 
ATOM     30  S   UNL     1       5.251   6.055  15.822  0.00  0.00    +0.000 S 
ENDBRANCH   7  26
BRANCH   9  31
ATOM     31  C   UNL     1       3.939   2.466  19.862  0.00  0.00    +0.000 C 
ATOM     32  F   UNL     1       4.972   1.743  20.333  0.00  0.00    +0.000 F 
ATOM     33  F   UNL     1       3.276   2.966  20.938  0.00  0.00    +0.000 F 
ATOM     34  F   UNL     1       3.088   1.577  19.284  0.00  0.00    +0.000 F 
ENDBRANCH   9  31
TORSDOF 4
ENDMDL
MODEL 3
REMARK VINA RESULT:      -7.3      5.375      7.927
REMARK  Name = 
REMARK  4 active torsions:
REMARK  status: ('A' for Active; 'I' for Inactive)
REMARK    1  A    between atoms: C_2  and  C_3
REMARK    2  A    between atoms: C_12  and  C_14
REMARK    3  A    between atoms: C_20  and  C_21
REMARK    4  A    between atoms: C_27  and  C_28
REMARK                            x       y       z     vdW  Elec       q    Type
REMARK                         _______ _______ _______ _____ _____    ______ ____
ROOT
ATOM      1  C   UNL     1      -0.921  11.908  22.508  0.00  0.00    +0.000 A 
ATOM      2  C   UNL     1      -1.079  10.699  23.235  0.00  0.00    +0.000 A 
ATOM      3  N   UNL     1      -0.613   9.625  22.598  0.00  0.00    +0.000 NA
ATOM      4  N   UNL     1      -0.118  10.132  21.460  0.00  0.00    +0.000 N 
ATOM      5  C   UNL     1      -0.349  11.485  21.321  0.00  0.00    +0.000 A 
ATOM      6  N   UNL     1      -0.025  12.116  20.163  0.00  0.00    +0.000 N 
ATOM      7  C   UNL     1       0.069  11.325  18.920  0.00  0.00    +0.000 C 
ATOM      8  C   UNL     1       0.936  10.092  19.238  0.00  0.00    +0.000 C 
ATOM      9  C   UNL     1       0.345   9.268  20.399  0.00  0.00    +0.000 C 
ATOM     10  H   UNL     1      -0.357  13.073  20.022  0.00  0.00    +0.000 HD
ENDROOT
BRANCH   1  17
ATOM     11  O   UNL     1      -7.357  13.647  21.611  0.00  0.00    +0.000 OA
ATOM     12  C   UNL     1      -6.584  14.596  21.751  0.00  0.00    +0.000 C 
ATOM     13  N   UNL     1      -5.204  14.406  21.632  0.00  0.00    +0.000 N 
ATOM     14  C   UNL     1      -4.152  15.405  21.911  0.00  0.00    +0.000 C 
ATOM     15  C   UNL     1      -3.167  14.929  22.994  0.00  0.00    +0.000 C 
ATOM     16  N   UNL     1      -2.712  13.560  22.737  0.00  0.00    +0.000 N 
ATOM     17  C   UNL     1      -1.352  13.258  22.846  0.00  0.00    +0.000 C 
ATOM     18  O   UNL     1      -0.534  14.102  23.198  0.00  0.00    +0.000 OA
ATOM     19  C   UNL     1      -3.822  12.613  22.574  0.00  0.00    +0.000 C 
ATOM     20  C   UNL     1      -4.707  13.046  21.398  0.00  0.00    +0.000 C 
BRANCH  12  21
ATOM     21  C   UNL     1      -7.089  15.910  22.094  0.00  0.00    +0.000 A 
ATOM     22  C   UNL     1      -7.412  16.446  23.327  0.00  0.00    +0.000 A 
ATOM     23  C   UNL     1      -7.917  17.745  23.090  0.00  0.00    +0.000 A 
ATOM     24  C   UNL     1      -7.882  17.925  21.728  0.00  0.00    +0.000 A 
ATOM     25  O   UNL     1      -7.405  16.814  21.117  0.00  0.00    +0.000 OA
ENDBRANCH  12  21
ENDBRANCH   1  17
BRANCH   7  26
ATOM     26  C   UNL     1      -1.258  10.952  18.287  0.00  0.00    +0.000 A 
ATOM     27  C   UNL     1      -1.544   9.937  17.389  0.00  0.00    +0.000 A 
ATOM     28  C   UNL     1      -2.907   9.935  16.973  0.00  0.00    +0.000 A 
ATOM     29  C   UNL     1      -3.637  10.914  17.602  0.00  0.00    +0.000 A 
ATOM     30  S   UNL     1      -2.687  11.826  18.689  0.00  0.00    +0.000 S 
ENDBRANCH   7  26
BRANCH   9  31
ATOM     31  C   UNL     1       1.333   8.206  20.867  0.00  0.00    +0.000 C 
ATOM     32  F   UNL     1       0.798   7.015  21.197  0.00  0.00    +0.000 F 
ATOM     33  F   UNL     1       2.259   7.975  19.899  0.00  0.00    +0.000 F 
ATOM     34  F   UNL     1       2.032   8.621  21.956  0.00  0.00    +0.000 F 
ENDBRANCH   9  31
TORSDOF 4
ENDMDL
MODEL 4
REMARK VINA RESULT:      -7.0      5.382      8.168
REMARK  Name = 
REMARK  4 active torsions:
REMARK  status: ('A' for Active; 'I' for Inactive)
REMARK    1  A    between atoms: C_2  and  C_3
REMARK    2  A    between atoms: C_12  and  C_14
REMARK    3  A    between atoms: C_20  and  C_21
REMARK    4  A    between atoms: C_27  and  C_28
REMARK                            x       y       z     vdW  Elec       q    Type
REMARK                         _______ _______ _______ _____ _____    ______ ____
ROOT
ATOM      1  C   UNL     1      -1.036  12.053  22.630  0.00  0.00    +0.000 A 
ATOM      2  C   UNL     1      -1.137  10.824  23.332  0.00  0.00    +0.000 A 
ATOM      3  N   UNL     1      -0.690   9.775  22.642  0.00  0.00    +0.000 NA
ATOM      4  N   UNL     1      -0.266  10.319  21.493  0.00  0.00    +0.000 N 
ATOM      5  C   UNL     1      -0.524  11.671  21.403  0.00  0.00    +0.000 A 
ATOM      6  N   UNL     1      -0.274  12.337  20.246  0.00  0.00    +0.000 N 
ATOM      7  C   UNL     1      -0.236  11.580  18.979  0.00  0.00    +0.000 C 
ATOM      8  C   UNL     1       0.664  10.353  19.216  0.00  0.00    +0.000 C 
ATOM      9  C   UNL     1       0.150   9.490  20.385  0.00  0.00    +0.000 C 
ATOM     10  H   UNL     1      -0.628  13.292  20.149  0.00  0.00    +0.000 HD
ENDROOT
BRANCH   1  17
ATOM     11  O   UNL     1      -7.370  13.976  21.425  0.00  0.00    +0.000 OA
ATOM     12  C   UNL     1      -6.593  14.898  21.679  0.00  0.00    +0.000 C 
ATOM     13  N   UNL     1      -5.211  14.689  21.639  0.00  0.00    +0.000 N 
ATOM     14  C   UNL     1      -4.165  15.646  22.052  0.00  0.00    +0.000 C 
ATOM     15  C   UNL     1      -3.263  15.081  23.165  0.00  0.00    +0.000 C 
ATOM     16  N   UNL     1      -2.813  13.723  22.848  0.00  0.00    +0.000 N 
ATOM     17  C   UNL     1      -1.469  13.387  23.027  0.00  0.00    +0.000 C 
ATOM     18  O   UNL     1      -0.662  14.190  23.487  0.00  0.00    +0.000 OA
ATOM     19  C   UNL     1      -3.924  12.811  22.549  0.00  0.00    +0.000 C 
ATOM     20  C   UNL     1      -4.721  13.337  21.348  0.00  0.00    +0.000 C 
BRANCH  12  21
ATOM     21  C   UNL     1      -7.099  16.197  22.073  0.00  0.00    +0.000 A 
ATOM     22  C   UNL     1      -7.396  16.693  23.330  0.00  0.00    +0.000 A 
ATOM     23  C   UNL     1      -7.916  17.994  23.144  0.00  0.00    +0.000 A 
ATOM     24  C   UNL     1      -7.916  18.216  21.788  0.00  0.00    +0.000 A 
ATOM     25  O   UNL     1      -7.446  17.127  21.131  0.00  0.00    +0.000 OA
ENDBRANCH  12  21
ENDBRANCH   1  17
BRANCH   7  26
ATOM     26  C   UNL     1      -1.591  11.202  18.409  0.00  0.00    +0.000 A 
ATOM     27  C   UNL     1      -2.837  11.735  18.690  0.00  0.00    +0.000 A 
ATOM     28  C   UNL     1      -3.891  11.075  17.993  0.00  0.00    +0.000 A 
ATOM     29  C   UNL     1      -3.417  10.090  17.161  0.00  0.00    +0.000 A 
ATOM     30  S   UNL     1      -1.715   9.966  17.216  0.00  0.00    +0.000 S 
ENDBRANCH   7  26
BRANCH   9  31
ATOM     31  C   UNL     1       1.178   8.433  20.769  0.00  0.00    +0.000 C 
ATOM     32  F   UNL     1       2.056   8.094  19.807  0.00  0.00    +0.000 F 
ATOM     33  F   UNL     1       1.901   8.856  21.839  0.00  0.00    +0.000 F 
ATOM     34  F   UNL     1       0.582   7.276  21.161  0.00  0.00    +0.000 F 
ENDBRANCH   9  31
TORSDOF 4
ENDMDL
MODEL 5
REMARK VINA RESULT:      -6.8      7.219      9.680
REMARK  Name = 
REMARK  4 active torsions:
REMARK  status: ('A' for Active; 'I' for Inactive)
REMARK    1  A    between atoms: C_2  and  C_3
REMARK    2  A    between atoms: C_12  and  C_14
REMARK    3  A    between atoms: C_20  and  C_21
REMARK    4  A    between atoms: C_27  and  C_28
REMARK                            x       y       z     vdW  Elec       q    Type
REMARK                         _______ _______ _______ _____ _____    ______ ____
ROOT
ATOM      1  C   UNL     1      -1.809  11.592  19.588  0.00  0.00    +0.000 A 
ATOM      2  C   UNL     1      -1.197  10.450  19.008  0.00  0.00    +0.000 A 
ATOM      3  N   UNL     1      -1.844   9.978  17.943  0.00  0.00    +0.000 NA
ATOM      4  N   UNL     1      -2.870  10.829  17.803  0.00  0.00    +0.000 N 
ATOM      5  C   UNL     1      -2.939  11.768  18.811  0.00  0.00    +0.000 A 
ATOM      6  N   UNL     1      -3.997  12.617  18.880  0.00  0.00    +0.000 N 
ATOM      7  C   UNL     1      -5.272  12.223  18.247  0.00  0.00    +0.000 C 
ATOM      8  C   UNL     1      -4.935  11.739  16.824  0.00  0.00    +0.000 C 
ATOM      9  C   UNL     1      -3.922  10.577  16.846  0.00  0.00    +0.000 C 
ATOM     10  H   UNL     1      -4.111  13.185  19.723  0.00  0.00    +0.000 HD
ENDROOT
BRANCH   1  17
ATOM     11  O   UNL     1       2.375  16.829  19.017  0.00  0.00    +0.000 OA
ATOM     12  C   UNL     1       2.245  16.399  20.164  0.00  0.00    +0.000 C 
ATOM     13  N   UNL     1       1.669  15.145  20.387  0.00  0.00    +0.000 N 
ATOM     14  C   UNL     1       1.319  14.559  21.696  0.00  0.00    +0.000 C 
ATOM     15  C   UNL     1      -0.178  14.212  21.799  0.00  0.00    +0.000 C 
ATOM     16  N   UNL     1      -0.638  13.480  20.616  0.00  0.00    +0.000 N 
ATOM     17  C   UNL     1      -1.432  12.342  20.780  0.00  0.00    +0.000 C 
ATOM     18  O   UNL     1      -1.794  11.966  21.891  0.00  0.00    +0.000 OA
ATOM     19  C   UNL     1      -0.339  14.182  19.361  0.00  0.00    +0.000 C 
ATOM     20  C   UNL     1       1.175  14.391  19.230  0.00  0.00    +0.000 C 
BRANCH  12  21
ATOM     21  C   UNL     1       2.637  17.208  21.300  0.00  0.00    +0.000 A 
ATOM     22  C   UNL     1       3.835  17.252  21.991  0.00  0.00    +0.000 A 
ATOM     23  C   UNL     1       3.662  18.170  23.052  0.00  0.00    +0.000 A 
ATOM     24  C   UNL     1       2.370  18.627  22.955  0.00  0.00    +0.000 A 
ATOM     25  O   UNL     1       1.736  18.035  21.914  0.00  0.00    +0.000 OA
ENDBRANCH  12  21
ENDBRANCH   1  17
BRANCH   7  26
ATOM     26  C   UNL     1      -6.096  11.212  19.022  0.00  0.00    +0.000 A 
ATOM     27  C   UNL     1      -6.347   9.882  18.731  0.00  0.00    +0.000 A 
ATOM     28  C   UNL     1      -7.220   9.265  19.674  0.00  0.00    +0.000 A 
ATOM     29  C   UNL     1      -7.572  10.125  20.686  0.00  0.00    +0.000 A 
ATOM     30  S   UNL     1      -6.851  11.661  20.504  0.00  0.00    +0.000 S 
ENDBRANCH   7  26
BRANCH   9  31
ATOM     31  C   UNL     1      -3.409  10.281  15.442  0.00  0.00    +0.000 C 
ATOM     32  F   UNL     1      -4.352  10.148  14.490  0.00  0.00    +0.000 F 
ATOM     33  F   UNL     1      -2.568  11.268  15.037  0.00  0.00    +0.000 F 
ATOM     34  F   UNL     1      -2.677   9.136  15.409  0.00  0.00    +0.000 F 
ENDBRANCH   9  31
TORSDOF 4
ENDMDL
MODEL 6
REMARK VINA RESULT:      -6.8      5.210      9.598
REMARK  Name = 
REMARK  4 active torsions:
REMARK  status: ('A' for Active; 'I' for Inactive)
REMARK    1  A    between atoms: C_2  and  C_3
REMARK    2  A    between atoms: C_12  and  C_14
REMARK    3  A    between atoms: C_20  and  C_21
REMARK    4  A    between atoms: C_27  and  C_28
REMARK                            x       y       z     vdW  Elec       q    Type
REMARK                         _______ _______ _______ _____ _____    ______ ____
ROOT
ATOM      1  C   UNL     1       1.089  10.033  19.753  0.00  0.00    +0.000 A 
ATOM      2  C   UNL     1       2.095  10.725  19.029  0.00  0.00    +0.000 A 
ATOM      3  N   UNL     1       1.701  11.909  18.562  0.00  0.00    +0.000 NA
ATOM      4  N   UNL     1       0.440  12.012  19.004  0.00  0.00    +0.000 N 
ATOM      5  C   UNL     1      -0.002  10.879  19.656  0.00  0.00    +0.000 A 
ATOM      6  N   UNL     1      -1.299  10.779  20.046  0.00  0.00    +0.000 N 
ATOM      7  C   UNL     1      -2.319  11.587  19.348  0.00  0.00    +0.000 C 
ATOM      8  C   UNL     1      -1.781  13.030  19.284  0.00  0.00    +0.000 C 
ATOM      9  C   UNL     1      -0.415  13.094  18.575  0.00  0.00    +0.000 C 
ATOM     10  H   UNL     1      -1.640   9.871  20.371  0.00  0.00    +0.000 HD
ENDROOT
BRANCH   1  17
ATOM     11  O   UNL     1       4.541   5.114  16.728  0.00  0.00    +0.000 OA
ATOM     12  C   UNL     1       3.737   4.729  17.579  0.00  0.00    +0.000 C 
ATOM     13  N   UNL     1       2.744   5.591  18.055  0.00  0.00    +0.000 N 
ATOM     14  C   UNL     1       1.807   5.325  19.164  0.00  0.00    +0.000 C 
ATOM     15  C   UNL     1       1.923   6.369  20.290  0.00  0.00    +0.000 C 
ATOM     16  N   UNL     1       1.926   7.733  19.754  0.00  0.00    +0.000 N 
ATOM     17  C   UNL     1       1.125   8.707  20.356  0.00  0.00    +0.000 C 
ATOM     18  O   UNL     1       0.453   8.460  21.352  0.00  0.00    +0.000 OA
ATOM     19  C   UNL     1       2.956   7.939  18.729  0.00  0.00    +0.000 C 
ATOM     20  C   UNL     1       2.727   6.972  17.560  0.00  0.00    +0.000 C 
BRANCH  12  21
ATOM     21  C   UNL     1       3.840   3.396  18.137  0.00  0.00    +0.000 A 
ATOM     22  C   UNL     1       3.251   2.212  17.731  0.00  0.00    +0.000 A 
ATOM     23  C   UNL     1       3.638   1.222  18.663  0.00  0.00    +0.000 A 
ATOM     24  C   UNL     1       4.432   1.856  19.587  0.00  0.00    +0.000 A 
ATOM     25  O   UNL     1       4.542   3.173  19.291  0.00  0.00    +0.000 OA
ENDBRANCH  12  21
ENDBRANCH   1  17
BRANCH   7  26
ATOM     26  C   UNL     1      -2.740  11.066  17.987  0.00  0.00    +0.000 A 
ATOM     27  C   UNL     1      -2.080  10.186  17.145  0.00  0.00    +0.000 A 
ATOM     28  C   UNL     1      -2.768   9.978  15.914  0.00  0.00    +0.000 A 
ATOM     29  C   UNL     1      -3.958  10.664  15.869  0.00  0.00    +0.000 A 
ATOM     30  S   UNL     1      -4.246  11.547  17.302  0.00  0.00    +0.000 S 
ENDBRANCH   7  26
BRANCH   9  31
ATOM     31  C   UNL     1       0.217  14.471  18.742  0.00  0.00    +0.000 C 
ATOM     32  F   UNL     1       1.423  14.634  18.167  0.00  0.00    +0.000 F 
ATOM     33  F   UNL     1      -0.604  15.424  18.228  0.00  0.00    +0.000 F 
ATOM     34  F   UNL     1       0.378  14.790  20.054  0.00  0.00    +0.000 F 
ENDBRANCH   9  31
TORSDOF 4
ENDMDL
MODEL 7
REMARK VINA RESULT:      -6.7      5.420      9.851
REMARK  Name = 
REMARK  4 active torsions:
REMARK  status: ('A' for Active; 'I' for Inactive)
REMARK    1  A    between atoms: C_2  and  C_3
REMARK    2  A    between atoms: C_12  and  C_14
REMARK    3  A    between atoms: C_20  and  C_21
REMARK    4  A    between atoms: C_27  and  C_28
REMARK                            x       y       z     vdW  Elec       q    Type
REMARK                         _______ _______ _______ _____ _____    ______ ____
ROOT
ATOM      1  C   UNL     1       0.839  11.567  19.864  0.00  0.00    +0.000 A 
ATOM      2  C   UNL     1       0.814  11.362  21.268  0.00  0.00    +0.000 A 
ATOM      3  N   UNL     1       0.243  12.357  21.946  0.00  0.00    +0.000 NA
ATOM      4  N   UNL     1      -0.136  13.208  20.983  0.00  0.00    +0.000 N 
ATOM      5  C   UNL     1       0.268  12.820  19.723  0.00  0.00    +0.000 A 
ATOM      6  N   UNL     1       0.075  13.643  18.660  0.00  0.00    +0.000 N 
ATOM      7  C   UNL     1      -0.067  15.094  18.897  0.00  0.00    +0.000 C 
ATOM      8  C   UNL     1      -1.093  15.265  20.033  0.00  0.00    +0.000 C 
ATOM      9  C   UNL     1      -0.659  14.516  21.307  0.00  0.00    +0.000 C 
ATOM     10  H   UNL     1       0.530  13.410  17.775  0.00  0.00    +0.000 HD
ENDROOT
BRANCH   1  17
ATOM     11  O   UNL     1       1.287   4.914  20.755  0.00  0.00    +0.000 OA
ATOM     12  C   UNL     1       1.993   5.359  19.849  0.00  0.00    +0.000 C 
ATOM     13  N   UNL     1       2.241   6.732  19.756  0.00  0.00    +0.000 N 
ATOM     14  C   UNL     1       2.942   7.426  18.657  0.00  0.00    +0.000 C 
ATOM     15  C   UNL     1       2.064   8.501  17.991  0.00  0.00    +0.000 C 
ATOM     16  N   UNL     1       1.416   9.355  18.990  0.00  0.00    +0.000 N 
ATOM     17  C   UNL     1       1.422  10.741  18.815  0.00  0.00    +0.000 C 
ATOM     18  O   UNL     1       1.918  11.260  17.820  0.00  0.00    +0.000 OA
ATOM     19  C   UNL     1       0.656   8.589  19.986  0.00  0.00    +0.000 C 
ATOM     20  C   UNL     1       1.592   7.623  20.724  0.00  0.00    +0.000 C 
BRANCH  12  21
ATOM     21  C   UNL     1       2.534   4.475  18.837  0.00  0.00    +0.000 A 
ATOM     22  C   UNL     1       1.924   3.909  17.731  0.00  0.00    +0.000 A 
ATOM     23  C   UNL     1       2.887   3.078  17.113  0.00  0.00    +0.000 A 
ATOM     24  C   UNL     1       4.023   3.175  17.879  0.00  0.00    +0.000 A 
ATOM     25  O   UNL     1       3.813   3.997  18.935  0.00  0.00    +0.000 OA
ENDBRANCH  12  21
ENDBRANCH   1  17
BRANCH   7  26
ATOM     26  C   UNL     1       1.229  15.836  19.172  0.00  0.00    +0.000 A 
ATOM     27  C   UNL     1       2.534  15.411  18.991  0.00  0.00    +0.000 A 
ATOM     28  C   UNL     1       3.493  16.374  19.420  0.00  0.00    +0.000 A 
ATOM     29  C   UNL     1       2.896  17.528  19.870  0.00  0.00    +0.000 A 
ATOM     30  S   UNL     1       1.194  17.451  19.770  0.00  0.00    +0.000 S 
ENDBRANCH   7  26
BRANCH   9  31
ATOM     31  C   UNL     1      -1.791  14.481  22.327  0.00  0.00    +0.000 C 
ATOM     32  F   UNL     1      -1.421  14.279  23.605  0.00  0.00    +0.000 F 
ATOM     33  F   UNL     1      -2.484  15.650  22.291  0.00  0.00    +0.000 F 
ATOM     34  F   UNL     1      -2.695  13.508  22.037  0.00  0.00    +0.000 F 
ENDBRANCH   9  31
TORSDOF 4
ENDMDL
MODEL 8
REMARK VINA RESULT:      -6.7      6.194     10.959
REMARK  Name = 
REMARK  4 active torsions:
REMARK  status: ('A' for Active; 'I' for Inactive)
REMARK    1  A    between atoms: C_2  and  C_3
REMARK    2  A    between atoms: C_12  and  C_14
REMARK    3  A    between atoms: C_20  and  C_21
REMARK    4  A    between atoms: C_27  and  C_28
REMARK                            x       y       z     vdW  Elec       q    Type
REMARK                         _______ _______ _______ _____ _____    ______ ____
ROOT
ATOM      1  C   UNL     1      -2.114  12.557  19.665  0.00  0.00    +0.000 A 
ATOM      2  C   UNL     1      -1.550  13.568  20.486  0.00  0.00    +0.000 A 
ATOM      3  N   UNL     1      -2.417  14.113  21.338  0.00  0.00    +0.000 NA
ATOM      4  N   UNL     1      -3.551  13.439  21.099  0.00  0.00    +0.000 N 
ATOM      5  C   UNL     1      -3.443  12.549  20.050  0.00  0.00    +0.000 A 
ATOM      6  N   UNL     1      -4.542  11.888  19.602  0.00  0.00    +0.000 N 
ATOM      7  C   UNL     1      -5.877  12.470  19.848  0.00  0.00    +0.000 C 
ATOM      8  C   UNL     1      -5.928  12.857  21.339  0.00  0.00    +0.000 C 
ATOM      9  C   UNL     1      -4.798  13.836  21.710  0.00  0.00    +0.000 C 
ATOM     10  H   UNL     1      -4.471  11.368  18.724  0.00  0.00    +0.000 HD
ENDROOT
BRANCH   1  17
ATOM     11  O   UNL     1       1.785   7.288  21.179  0.00  0.00    +0.000 OA
ATOM     12  C   UNL     1       1.907   7.702  20.025  0.00  0.00    +0.000 C 
ATOM     13  N   UNL     1       1.408   8.958  19.669  0.00  0.00    +0.000 N 
ATOM     14  C   UNL     1       1.350   9.527  18.307  0.00  0.00    +0.000 C 
ATOM     15  C   UNL     1      -0.085   9.888  17.885  0.00  0.00    +0.000 C 
ATOM     16  N   UNL     1      -0.776  10.642  18.934  0.00  0.00    +0.000 N 
ATOM     17  C   UNL     1      -1.504  11.785  18.591  0.00  0.00    +0.000 C 
ATOM     18  O   UNL     1      -1.616  12.148  17.424  0.00  0.00    +0.000 OA
ATOM     19  C   UNL     1      -0.760   9.957  20.232  0.00  0.00    +0.000 C 
ATOM     20  C   UNL     1       0.689   9.734  20.685  0.00  0.00    +0.000 C 
BRANCH  12  21
ATOM     21  C   UNL     1       2.521   6.872  19.008  0.00  0.00    +0.000 A 
ATOM     22  C   UNL     1       2.290   5.548  18.681  0.00  0.00    +0.000 A 
ATOM     23  C   UNL     1       3.204   5.215  17.655  0.00  0.00    +0.000 A 
ATOM     24  C   UNL     1       3.946   6.348  17.421  0.00  0.00    +0.000 A 
ATOM     25  O   UNL     1       3.556   7.347  18.250  0.00  0.00    +0.000 OA
ENDBRANCH  12  21
ENDBRANCH   1  17
BRANCH   7  26
ATOM     26  C   UNL     1      -6.260  13.622  18.938  0.00  0.00    +0.000 A 
ATOM     27  C   UNL     1      -6.390  14.967  19.238  0.00  0.00    +0.000 A 
ATOM     28  C   UNL     1      -6.825  15.742  18.125  0.00  0.00    +0.000 A 
ATOM     29  C   UNL     1      -6.967  14.978  16.991  0.00  0.00    +0.000 A 
ATOM     30  S   UNL     1      -6.572  13.340  17.268  0.00  0.00    +0.000 S 
ENDBRANCH   7  26
BRANCH   9  31
ATOM     31  C   UNL     1      -4.707  14.009  23.221  0.00  0.00    +0.000 C 
ATOM     32  F   UNL     1      -4.097  15.133  23.645  0.00  0.00    +0.000 F 
ATOM     33  F   UNL     1      -5.952  14.000  23.766  0.00  0.00    +0.000 F 
ATOM     34  F   UNL     1      -4.041  12.977  23.803  0.00  0.00    +0.000 F 
ENDBRANCH   9  31
TORSDOF 4
ENDMDL
MODEL 9
REMARK VINA RESULT:      -6.7      5.548     10.580
REMARK  Name = 
REMARK  4 active torsions:
REMARK  status: ('A' for Active; 'I' for Inactive)
REMARK    1  A    between atoms: C_2  and  C_3
REMARK    2  A    between atoms: C_12  and  C_14
REMARK    3  A    between atoms: C_20  and  C_21
REMARK    4  A    between atoms: C_27  and  C_28
REMARK                            x       y       z     vdW  Elec       q    Type
REMARK                         _______ _______ _______ _____ _____    ______ ____
ROOT
ATOM      1  C   UNL     1      -0.969  11.737  21.054  0.00  0.00    +0.000 A 
ATOM      2  C   UNL     1      -0.585  11.545  22.407  0.00  0.00    +0.000 A 
ATOM      3  N   UNL     1      -1.327  12.229  23.277  0.00  0.00    +0.000 NA
ATOM      4  N   UNL     1      -2.222  12.851  22.498  0.00  0.00    +0.000 N 
ATOM      5  C   UNL     1      -2.002  12.653  21.150  0.00  0.00    +0.000 A 
ATOM      6  N   UNL     1      -2.743  13.325  20.232  0.00  0.00    +0.000 N 
ATOM      7  C   UNL     1      -3.384  14.597  20.622  0.00  0.00    +0.000 C 
ATOM      8  C   UNL     1      -4.102  14.345  21.962  0.00  0.00    +0.000 C 
ATOM      9  C   UNL     1      -3.126  13.839  23.042  0.00  0.00    +0.000 C 
ATOM     10  H   UNL     1      -2.451  13.290  19.252  0.00  0.00    +0.000 HD
ENDROOT
BRANCH   1  17
ATOM     11  O   UNL     1       1.787   5.600  21.101  0.00  0.00    +0.000 OA
ATOM     12  C   UNL     1       2.115   6.303  20.144  0.00  0.00    +0.000 C 
ATOM     13  N   UNL     1       1.879   7.681  20.165  0.00  0.00    +0.000 N 
ATOM     14  C   UNL     1       2.084   8.625  19.048  0.00  0.00    +0.000 C 
ATOM     15  C   UNL     1       0.790   9.367  18.667  0.00  0.00    +0.000 C 
ATOM     16  N   UNL     1       0.111   9.899  19.851  0.00  0.00    +0.000 N 
ATOM     17  C   UNL     1      -0.369  11.211  19.834  0.00  0.00    +0.000 C 
ATOM     18  O   UNL     1      -0.276  11.916  18.834  0.00  0.00    +0.000 OA
ATOM     19  C   UNL     1      -0.145   8.873  20.869  0.00  0.00    +0.000 C 
ATOM     20  C   UNL     1       1.181   8.248  21.324  0.00  0.00    +0.000 C 
BRANCH  12  21
ATOM     21  C   UNL     1       2.702   5.705  18.962  0.00  0.00    +0.000 A 
ATOM     22  C   UNL     1       2.157   4.825  18.045  0.00  0.00    +0.000 A 
ATOM     23  C   UNL     1       3.180   4.511  17.121  0.00  0.00    +0.000 A 
ATOM     24  C   UNL     1       4.291   5.209  17.529  0.00  0.00    +0.000 A 
ATOM     25  O   UNL     1       4.019   5.914  18.653  0.00  0.00    +0.000 OA
ENDBRANCH  12  21
ENDBRANCH   1  17
BRANCH   7  26
ATOM     26  C   UNL     1      -2.458  15.798  20.679  0.00  0.00    +0.000 A 
ATOM     27  C   UNL     1      -1.184  15.945  20.159  0.00  0.00    +0.000 A 
ATOM     28  C   UNL     1      -0.603  17.210  20.467  0.00  0.00    +0.000 A 
ATOM     29  C   UNL     1      -1.468  18.013  21.170  0.00  0.00    +0.000 A 
ATOM     30  S   UNL     1      -2.969  17.250  21.452  0.00  0.00    +0.000 S 
ENDBRANCH   7  26
BRANCH   9  31
ATOM     31  C   UNL     1      -3.884  13.356  24.272  0.00  0.00    +0.000 C 
ATOM     32  F   UNL     1      -3.922  12.021  24.449  0.00  0.00    +0.000 F 
ATOM     33  F   UNL     1      -3.337  13.892  25.395  0.00  0.00    +0.000 F 
ATOM     34  F   UNL     1      -5.178  13.771  24.257  0.00  0.00    +0.000 F 
ENDBRANCH   9  31
TORSDOF 4
ENDMDL
