MODEL 1
REMARK VINA RESULT:      -8.6      0.000      0.000
REMARK  Name = 
REMARK  5 active torsions:
REMARK  status: ('A' for Active; 'I' for Inactive)
REMARK    1  A    between atoms: C_2  and  C_9
REMARK    2  A    between atoms: N_3  and  C_4
REMARK    3  A    between atoms: C_4  and  C_5
REMARK    4  A    between atoms: N_11  and  C_12
REMARK    5  A    between atoms: C_12  and  C_13
REMARK                            x       y       z     vdW  Elec       q    Type
REMARK                         _______ _______ _______ _____ _____    ______ ____
ROOT
ATOM      1  C   UNL     1       2.598   6.416  18.962  0.00  0.00    +0.000 A 
ATOM      2  N   UNL     1       3.550   6.630  18.096  0.00  0.00    +0.000 NA
ATOM      3  N   UNL     1       4.165   5.545  17.498  0.00  0.00    +0.000 N 
ATOM      4  C   UNL     1       3.819   4.219  17.741  0.00  0.00    +0.000 A 
ATOM      5  O   UNL     1       4.356   3.253  17.199  0.00  0.00    +0.000 OA
ATOM      6  C   UNL     1       2.757   3.986  18.734  0.00  0.00    +0.000 A 
ATOM      7  C   UNL     1       2.420   2.674  19.091  0.00  0.00    +0.000 A 
ATOM      8  C   UNL     1       1.437   2.439  20.050  0.00  0.00    +0.000 A 
ATOM      9  C   UNL     1       0.771   3.516  20.629  0.00  0.00    +0.000 A 
ATOM     10  C   UNL     1       1.096   4.825  20.259  0.00  0.00    +0.000 A 
ATOM     11  C   UNL     1       2.116   5.069  19.331  0.00  0.00    +0.000 A 
ENDROOT
BRANCH   1  13
ATOM     12  O   UNL     1       1.657   8.642  18.984  0.00  0.00    +0.000 OA
ATOM     13  C   UNL     1       2.014   7.670  19.632  0.00  0.00    +0.000 C 
ATOM     14  N   UNL     1       1.877   7.584  20.999  0.00  0.00    +0.000 N 
ATOM     15  H   UNL     1       2.193   6.730  21.451  0.00  0.00    +0.000 HD
BRANCH  14  16
ATOM     16  C   UNL     1       1.349   8.703  21.775  0.00  0.00    +0.000 C 
BRANCH  16  17
ATOM     17  C   UNL     1      -0.179   8.841  21.806  0.00  0.00    +0.000 C 
ATOM     18  F   UNL     1      -0.804   7.701  21.432  0.00  0.00    +0.000 F 
ATOM     19  F   UNL     1      -0.630   9.175  23.035  0.00  0.00    +0.000 F 
ATOM     20  F   UNL     1      -0.581   9.814  20.952  0.00  0.00    +0.000 F 
ENDBRANCH  16  17
ENDBRANCH  14  16
ENDBRANCH   1  13
BRANCH   3  21
ATOM     21  C   UNL     1       5.271   5.829  16.584  0.00  0.00    +0.000 C 
BRANCH  21  22
ATOM     22  C   UNL     1       6.440   6.479  17.284  0.00  0.00    +0.000 A 
ATOM     23  C   UNL     1       7.138   5.789  18.283  0.00  0.00    +0.000 A 
ATOM     24  C   UNL     1       8.170   6.416  18.984  0.00  0.00    +0.000 A 
ATOM     25  C   UNL     1       8.514   7.734  18.691  0.00  0.00    +0.000 A 
ATOM     26  C   UNL     1       7.841   8.423  17.683  0.00  0.00    +0.000 A 
ATOM     27  C   UNL     1       6.809   7.799  16.982  0.00  0.00    +0.000 A 
ENDBRANCH  21  22
ENDBRANCH   3  21
TORSDOF 5
ENDMDL
MODEL 2
REMARK VINA RESULT:      -8.3      0.126      1.211
REMARK  Name = 
REMARK  5 active torsions:
REMARK  status: ('A' for Active; 'I' for Inactive)
REMARK    1  A    between atoms: C_2  and  C_9
REMARK    2  A    between atoms: N_3  and  C_4
REMARK    3  A    between atoms: C_4  and  C_5
REMARK    4  A    between atoms: N_11  and  C_12
REMARK    5  A    between atoms: C_12  and  C_13
REMARK                            x       y       z     vdW  Elec       q    Type
REMARK                         _______ _______ _______ _____ _____    ______ ____
ROOT
ATOM      1  C   UNL     1       2.564   6.479  19.037  0.00  0.00    +0.000 A 
ATOM      2  N   UNL     1       3.524   6.715  18.184  0.00  0.00    +0.000 NA
ATOM      3  N   UNL     1       4.155   5.646  17.576  0.00  0.00    +0.000 N 
ATOM      4  C   UNL     1       3.819   4.313  17.793  0.00  0.00    +0.000 A 
ATOM      5  O   UNL     1       4.370   3.361  17.241  0.00  0.00    +0.000 OA
ATOM      6  C   UNL     1       2.748   4.054  18.770  0.00  0.00    +0.000 A 
ATOM      7  C   UNL     1       2.419   2.733  19.100  0.00  0.00    +0.000 A 
ATOM      8  C   UNL     1       1.427   2.474  20.045  0.00  0.00    +0.000 A 
ATOM      9  C   UNL     1       0.745   3.535  20.634  0.00  0.00    +0.000 A 
ATOM     10  C   UNL     1       1.062   4.853  20.290  0.00  0.00    +0.000 A 
ATOM     11  C   UNL     1       2.090   5.121  19.377  0.00  0.00    +0.000 A 
ENDROOT
BRANCH   1  13
ATOM     12  O   UNL     1       1.560   8.677  19.081  0.00  0.00    +0.000 OA
ATOM     13  C   UNL     1       1.961   7.716  19.720  0.00  0.00    +0.000 C 
ATOM     14  N   UNL     1       1.860   7.628  21.091  0.00  0.00    +0.000 N 
ATOM     15  H   UNL     1       2.212   6.783  21.535  0.00  0.00    +0.000 HD
BRANCH  14  16
ATOM     16  C   UNL     1       1.320   8.732  21.879  0.00  0.00    +0.000 C 
BRANCH  16  17
ATOM     17  C   UNL     1      -0.209   8.871  21.886  0.00  0.00    +0.000 C 
ATOM     18  F   UNL     1      -0.688   9.195  23.109  0.00  0.00    +0.000 F 
ATOM     19  F   UNL     1      -0.633   9.811  21.014  0.00  0.00    +0.000 F 
ATOM     20  F   UNL     1      -0.788   7.699  21.529  0.00  0.00    +0.000 F 
ENDBRANCH  16  17
ENDBRANCH  14  16
ENDBRANCH   1  13
BRANCH   3  21
ATOM     21  C   UNL     1       5.269   5.955  16.679  0.00  0.00    +0.000 C 
BRANCH  21  22
ATOM     22  C   UNL     1       6.404   6.646  17.394  0.00  0.00    +0.000 A 
ATOM     23  C   UNL     1       6.758   7.959  17.056  0.00  0.00    +0.000 A 
ATOM     24  C   UNL     1       7.855   8.573  17.662  0.00  0.00    +0.000 A 
ATOM     25  C   UNL     1       8.605   7.883  18.612  0.00  0.00    +0.000 A 
ATOM     26  C   UNL     1       8.249   6.585  18.972  0.00  0.00    +0.000 A 
ATOM     27  C   UNL     1       7.154   5.968  18.367  0.00  0.00    +0.000 A 
ENDBRANCH  21  22
ENDBRANCH   3  21
TORSDOF 5
ENDMDL
MODEL 3
REMARK VINA RESULT:      -8.2      1.427      1.746
REMARK  Name = 
REMARK  5 active torsions:
REMARK  status: ('A' for Active; 'I' for Inactive)
REMARK    1  A    between atoms: C_2  and  C_9
REMARK    2  A    between atoms: N_3  and  C_4
REMARK    3  A    between atoms: C_4  and  C_5
REMARK    4  A    between atoms: N_11  and  C_12
REMARK    5  A    between atoms: C_12  and  C_13
REMARK                            x       y       z     vdW  Elec       q    Type
REMARK                         _______ _______ _______ _____ _____    ______ ____
ROOT
ATOM      1  C   UNL     1       2.543   6.258  18.954  0.00  0.00    +0.000 A 
ATOM      2  N   UNL     1       3.482   6.534  18.090  0.00  0.00    +0.000 NA
ATOM      3  N   UNL     1       4.127   5.493  17.449  0.00  0.00    +0.000 N 
ATOM      4  C   UNL     1       3.827   4.148  17.645  0.00  0.00    +0.000 A 
ATOM      5  O   UNL     1       4.391   3.221  17.065  0.00  0.00    +0.000 OA
ATOM      6  C   UNL     1       2.780   3.845  18.635  0.00  0.00    +0.000 A 
ATOM      7  C   UNL     1       2.489   2.510  18.944  0.00  0.00    +0.000 A 
ATOM      8  C   UNL     1       1.520   2.207  19.901  0.00  0.00    +0.000 A 
ATOM      9  C   UNL     1       0.824   3.240  20.523  0.00  0.00    +0.000 A 
ATOM     10  C   UNL     1       1.104   4.572  20.200  0.00  0.00    +0.000 A 
ATOM     11  C   UNL     1       2.108   4.883  19.275  0.00  0.00    +0.000 A 
ENDROOT
BRANCH   1  13
ATOM     12  O   UNL     1       1.691   7.454  20.873  0.00  0.00    +0.000 OA
ATOM     13  C   UNL     1       1.924   7.466  19.673  0.00  0.00    +0.000 C 
ATOM     14  N   UNL     1       1.709   8.567  18.875  0.00  0.00    +0.000 N 
ATOM     15  H   UNL     1       1.943   8.485  17.889  0.00  0.00    +0.000 HD
BRANCH  14  16
ATOM     16  C   UNL     1       1.112   9.785  19.415  0.00  0.00    +0.000 C 
BRANCH  16  17
ATOM     17  C   UNL     1      -0.143  10.298  18.695  0.00  0.00    +0.000 C 
ATOM     18  F   UNL     1      -1.266  10.113  19.426  0.00  0.00    +0.000 F 
ATOM     19  F   UNL     1      -0.052  11.614  18.402  0.00  0.00    +0.000 F 
ATOM     20  F   UNL     1      -0.316   9.636  17.525  0.00  0.00    +0.000 F 
ENDBRANCH  16  17
ENDBRANCH  14  16
ENDBRANCH   1  13
BRANCH   3  21
ATOM     21  C   UNL     1       5.217   5.847  16.539  0.00  0.00    +0.000 C 
BRANCH  21  22
ATOM     22  C   UNL     1       6.394   6.453  17.264  0.00  0.00    +0.000 A 
ATOM     23  C   UNL     1       7.054   5.732  18.268  0.00  0.00    +0.000 A 
ATOM     24  C   UNL     1       8.093   6.318  18.991  0.00  0.00    +0.000 A 
ATOM     25  C   UNL     1       8.484   7.628  18.717  0.00  0.00    +0.000 A 
ATOM     26  C   UNL     1       7.849   8.347  17.706  0.00  0.00    +0.000 A 
ATOM     27  C   UNL     1       6.809   7.763  16.982  0.00  0.00    +0.000 A 
ENDBRANCH  21  22
ENDBRANCH   3  21
TORSDOF 5
ENDMDL
MODEL 4
REMARK VINA RESULT:      -8.0      3.182      5.074
REMARK  Name = 
REMARK  5 active torsions:
REMARK  status: ('A' for Active; 'I' for Inactive)
REMARK    1  A    between atoms: C_2  and  C_9
REMARK    2  A    between atoms: N_3  and  C_4
REMARK    3  A    between atoms: C_4  and  C_5
REMARK    4  A    between atoms: N_11  and  C_12
REMARK    5  A    between atoms: C_12  and  C_13
REMARK                            x       y       z     vdW  Elec       q    Type
REMARK                         _______ _______ _______ _____ _____    ______ ____
ROOT
ATOM      1  C   UNL     1       4.232   4.579  18.157  0.00  0.00    +0.000 A 
ATOM      2  N   UNL     1       5.349   4.248  17.567  0.00  0.00    +0.000 NA
ATOM      3  N   UNL     1       6.036   5.209  16.849  0.00  0.00    +0.000 N 
ATOM      4  C   UNL     1       5.628   6.535  16.729  0.00  0.00    +0.000 A 
ATOM      5  O   UNL     1       6.246   7.395  16.102  0.00  0.00    +0.000 OA
ATOM      6  C   UNL     1       4.358   6.895  17.381  0.00  0.00    +0.000 A 
ATOM      7  C   UNL     1       3.845   8.189  17.226  0.00  0.00    +0.000 A 
ATOM      8  C   UNL     1       2.629   8.536  17.814  0.00  0.00    +0.000 A 
ATOM      9  C   UNL     1       1.945   7.597  18.581  0.00  0.00    +0.000 A 
ATOM     10  C   UNL     1       2.467   6.311  18.750  0.00  0.00    +0.000 A 
ATOM     11  C   UNL     1       3.664   5.942  18.122  0.00  0.00    +0.000 A 
ENDROOT
BRANCH   1  13
ATOM     12  O   UNL     1       2.995   2.506  18.263  0.00  0.00    +0.000 OA
ATOM     13  C   UNL     1       3.495   3.438  18.875  0.00  0.00    +0.000 C 
ATOM     14  N   UNL     1       3.494   3.524  20.249  0.00  0.00    +0.000 N 
ATOM     15  H   UNL     1       3.945   4.333  20.669  0.00  0.00    +0.000 HD
BRANCH  14  16
ATOM     16  C   UNL     1       2.820   2.519  21.066  0.00  0.00    +0.000 C 
BRANCH  16  17
ATOM     17  C   UNL     1       1.311   2.718  21.270  0.00  0.00    +0.000 C 
ATOM     18  F   UNL     1       0.581   2.133  20.292  0.00  0.00    +0.000 F 
ATOM     19  F   UNL     1       0.893   2.218  22.453  0.00  0.00    +0.000 F 
ATOM     20  F   UNL     1       1.006   4.038  21.259  0.00  0.00    +0.000 F 
ENDBRANCH  16  17
ENDBRANCH  14  16
ENDBRANCH   1  13
BRANCH   3  21
ATOM     21  C   UNL     1       7.246   4.778  16.150  0.00  0.00    +0.000 C 
BRANCH  21  22
ATOM     22  C   UNL     1       7.015   4.587  14.671  0.00  0.00    +0.000 A 
ATOM     23  C   UNL     1       6.033   3.696  14.218  0.00  0.00    +0.000 A 
ATOM     24  C   UNL     1       5.870   3.461  12.852  0.00  0.00    +0.000 A 
ATOM     25  C   UNL     1       6.681   4.117  11.928  0.00  0.00    +0.000 A 
ATOM     26  C   UNL     1       7.645   5.023  12.366  0.00  0.00    +0.000 A 
ATOM     27  C   UNL     1       7.812   5.258  13.731  0.00  0.00    +0.000 A 
ENDBRANCH  21  22
ENDBRANCH   3  21
TORSDOF 5
ENDMDL
MODEL 5
REMARK VINA RESULT:      -8.0      1.401      2.051
REMARK  Name = 
REMARK  5 active torsions:
REMARK  status: ('A' for Active; 'I' for Inactive)
REMARK    1  A    between atoms: C_2  and  C_9
REMARK    2  A    between atoms: N_3  and  C_4
REMARK    3  A    between atoms: C_4  and  C_5
REMARK    4  A    between atoms: N_11  and  C_12
REMARK    5  A    between atoms: C_12  and  C_13
REMARK                            x       y       z     vdW  Elec       q    Type
REMARK                         _______ _______ _______ _____ _____    ______ ____
ROOT
ATOM      1  C   UNL     1       2.529   6.236  18.959  0.00  0.00    +0.000 A 
ATOM      2  N   UNL     1       3.493   6.515  18.125  0.00  0.00    +0.000 NA
ATOM      3  N   UNL     1       4.156   5.476  17.498  0.00  0.00    +0.000 N 
ATOM      4  C   UNL     1       3.848   4.130  17.678  0.00  0.00    +0.000 A 
ATOM      5  O   UNL     1       4.427   3.205  17.110  0.00  0.00    +0.000 OA
ATOM      6  C   UNL     1       2.771   3.824  18.635  0.00  0.00    +0.000 A 
ATOM      7  C   UNL     1       2.469   2.488  18.929  0.00  0.00    +0.000 A 
ATOM      8  C   UNL     1       1.471   2.183  19.854  0.00  0.00    +0.000 A 
ATOM      9  C   UNL     1       0.759   3.213  20.460  0.00  0.00    +0.000 A 
ATOM     10  C   UNL     1       1.050   4.546  20.153  0.00  0.00    +0.000 A 
ATOM     11  C   UNL     1       2.082   4.860  19.260  0.00  0.00    +0.000 A 
ENDROOT
BRANCH   1  13
ATOM     12  O   UNL     1       1.588   7.411  20.849  0.00  0.00    +0.000 OA
ATOM     13  C   UNL     1       1.890   7.442  19.666  0.00  0.00    +0.000 C 
ATOM     14  N   UNL     1       1.742   8.561  18.879  0.00  0.00    +0.000 N 
ATOM     15  H   UNL     1       2.032   8.494  17.906  0.00  0.00    +0.000 HD
BRANCH  14  16
ATOM     16  C   UNL     1       1.136   9.780  19.408  0.00  0.00    +0.000 C 
BRANCH  16  17
ATOM     17  C   UNL     1      -0.168  10.232  18.736  0.00  0.00    +0.000 C 
ATOM     18  F   UNL     1      -0.220  11.573  18.568  0.00  0.00    +0.000 F 
ATOM     19  F   UNL     1      -0.336   9.656  17.526  0.00  0.00    +0.000 F 
ATOM     20  F   UNL     1      -1.234   9.885  19.499  0.00  0.00    +0.000 F 
ENDBRANCH  16  17
ENDBRANCH  14  16
ENDBRANCH   1  13
BRANCH   3  21
ATOM     21  C   UNL     1       5.273   5.832  16.623  0.00  0.00    +0.000 C 
BRANCH  21  22
ATOM     22  C   UNL     1       6.387   6.526  17.370  0.00  0.00    +0.000 A 
ATOM     23  C   UNL     1       6.763   7.831  17.025  0.00  0.00    +0.000 A 
ATOM     24  C   UNL     1       7.842   8.446  17.663  0.00  0.00    +0.000 A 
ATOM     25  C   UNL     1       8.550   7.765  18.652  0.00  0.00    +0.000 A 
ATOM     26  C   UNL     1       8.170   6.475  19.019  0.00  0.00    +0.000 A 
ATOM     27  C   UNL     1       7.092   5.858  18.382  0.00  0.00    +0.000 A 
ENDBRANCH  21  22
ENDBRANCH   3  21
TORSDOF 5
ENDMDL
MODEL 6
REMARK VINA RESULT:      -7.9      1.609      2.436
REMARK  Name = 
REMARK  5 active torsions:
REMARK  status: ('A' for Active; 'I' for Inactive)
REMARK    1  A    between atoms: C_2  and  C_9
REMARK    2  A    between atoms: N_3  and  C_4
REMARK    3  A    between atoms: C_4  and  C_5
REMARK    4  A    between atoms: N_11  and  C_12
REMARK    5  A    between atoms: C_12  and  C_13
REMARK                            x       y       z     vdW  Elec       q    Type
REMARK                         _______ _______ _______ _____ _____    ______ ____
ROOT
ATOM      1  C   UNL     1       3.092   6.103  19.139  0.00  0.00    +0.000 A 
ATOM      2  N   UNL     1       4.238   6.186  18.522  0.00  0.00    +0.000 NA
ATOM      3  N   UNL     1       5.081   5.090  18.527  0.00  0.00    +0.000 N 
ATOM      4  C   UNL     1       4.779   3.875  19.135  0.00  0.00    +0.000 A 
ATOM      5  O   UNL     1       5.522   2.894  19.129  0.00  0.00    +0.000 OA
ATOM      6  C   UNL     1       3.492   3.796  19.846  0.00  0.00    +0.000 A 
ATOM      7  C   UNL     1       3.164   2.632  20.554  0.00  0.00    +0.000 A 
ATOM      8  C   UNL     1       1.962   2.554  21.255  0.00  0.00    +0.000 A 
ATOM      9  C   UNL     1       1.077   3.628  21.222  0.00  0.00    +0.000 A 
ATOM     10  C   UNL     1       1.398   4.782  20.501  0.00  0.00    +0.000 A 
ATOM     11  C   UNL     1       2.625   4.885  19.834  0.00  0.00    +0.000 A 
ENDROOT
BRANCH   1  13
ATOM     12  O   UNL     1       1.886   7.927  18.111  0.00  0.00    +0.000 OA
ATOM     13  C   UNL     1       2.245   7.385  19.145  0.00  0.00    +0.000 C 
ATOM     14  N   UNL     1       1.882   7.833  20.396  0.00  0.00    +0.000 N 
ATOM     15  H   UNL     1       2.221   7.309  21.199  0.00  0.00    +0.000 HD
BRANCH  14  16
ATOM     16  C   UNL     1       1.088   9.047  20.561  0.00  0.00    +0.000 C 
BRANCH  16  17
ATOM     17  C   UNL     1       0.056   9.029  21.697  0.00  0.00    +0.000 C 
ATOM     18  F   UNL     1      -0.769   7.959  21.622  0.00  0.00    +0.000 F 
ATOM     19  F   UNL     1       0.646   9.012  22.912  0.00  0.00    +0.000 F 
ATOM     20  F   UNL     1      -0.723  10.137  21.641  0.00  0.00    +0.000 F 
ENDBRANCH  16  17
ENDBRANCH  14  16
ENDBRANCH   1  13
BRANCH   3  21
ATOM     21  C   UNL     1       6.384   5.249  17.880  0.00  0.00    +0.000 C 
BRANCH  21  22
ATOM     22  C   UNL     1       6.330   4.939  16.403  0.00  0.00    +0.000 A 
ATOM     23  C   UNL     1       5.210   4.300  15.855  0.00  0.00    +0.000 A 
ATOM     24  C   UNL     1       5.190   3.945  14.506  0.00  0.00    +0.000 A 
ATOM     25  C   UNL     1       6.287   4.227  13.693  0.00  0.00    +0.000 A 
ATOM     26  C   UNL     1       7.397   4.883  14.222  0.00  0.00    +0.000 A 
ATOM     27  C   UNL     1       7.419   5.238  15.571  0.00  0.00    +0.000 A 
ENDBRANCH  21  22
ENDBRANCH   3  21
TORSDOF 5
ENDMDL
MODEL 7
REMARK VINA RESULT:      -7.9      1.605      2.559
REMARK  Name = 
REMARK  5 active torsions:
REMARK  status: ('A' for Active; 'I' for Inactive)
REMARK    1  A    between atoms: C_2  and  C_9
REMARK    2  A    between atoms: N_3  and  C_4
REMARK    3  A    between atoms: C_4  and  C_5
REMARK    4  A    between atoms: N_11  and  C_12
REMARK    5  A    between atoms: C_12  and  C_13
REMARK                            x       y       z     vdW  Elec       q    Type
REMARK                         _______ _______ _______ _____ _____    ______ ____
ROOT
ATOM      1  C   UNL     1       3.080   6.117  19.136  0.00  0.00    +0.000 A 
ATOM      2  N   UNL     1       4.228   6.201  18.521  0.00  0.00    +0.000 NA
ATOM      3  N   UNL     1       5.073   5.107  18.529  0.00  0.00    +0.000 N 
ATOM      4  C   UNL     1       4.771   3.891  19.137  0.00  0.00    +0.000 A 
ATOM      5  O   UNL     1       5.515   2.911  19.134  0.00  0.00    +0.000 OA
ATOM      6  C   UNL     1       3.481   3.811  19.844  0.00  0.00    +0.000 A 
ATOM      7  C   UNL     1       3.153   2.646  20.551  0.00  0.00    +0.000 A 
ATOM      8  C   UNL     1       1.949   2.567  21.249  0.00  0.00    +0.000 A 
ATOM      9  C   UNL     1       1.062   3.639  21.213  0.00  0.00    +0.000 A 
ATOM     10  C   UNL     1       1.384   4.794  20.493  0.00  0.00    +0.000 A 
ATOM     11  C   UNL     1       2.612   4.899  19.829  0.00  0.00    +0.000 A 
ENDROOT
BRANCH   1  13
ATOM     12  O   UNL     1       1.860   7.929  18.103  0.00  0.00    +0.000 OA
ATOM     13  C   UNL     1       2.231   7.397  19.139  0.00  0.00    +0.000 C 
ATOM     14  N   UNL     1       1.881   7.856  20.389  0.00  0.00    +0.000 N 
ATOM     15  H   UNL     1       2.229   7.341  21.193  0.00  0.00    +0.000 HD
BRANCH  14  16
ATOM     16  C   UNL     1       1.087   9.071  20.551  0.00  0.00    +0.000 C 
BRANCH  16  17
ATOM     17  C   UNL     1       0.057   9.056  21.689  0.00  0.00    +0.000 C 
ATOM     18  F   UNL     1       0.641   9.037  22.909  0.00  0.00    +0.000 F 
ATOM     19  F   UNL     1      -0.763  10.130  21.641  0.00  0.00    +0.000 F 
ATOM     20  F   UNL     1      -0.722   7.950  21.603  0.00  0.00    +0.000 F 
ENDBRANCH  16  17
ENDBRANCH  14  16
ENDBRANCH   1  13
BRANCH   3  21
ATOM     21  C   UNL     1       6.376   5.268  17.885  0.00  0.00    +0.000 C 
BRANCH  21  22
ATOM     22  C   UNL     1       6.347   4.875  16.428  0.00  0.00    +0.000 A 
ATOM     23  C   UNL     1       7.456   5.122  15.607  0.00  0.00    +0.000 A 
ATOM     24  C   UNL     1       7.403   4.829  14.244  0.00  0.00    +0.000 A 
ATOM     25  C   UNL     1       6.245   4.285  13.690  0.00  0.00    +0.000 A 
ATOM     26  C   UNL     1       5.145   4.014  14.501  0.00  0.00    +0.000 A 
ATOM     27  C   UNL     1       5.195   4.307  15.865  0.00  0.00    +0.000 A 
ENDBRANCH  21  22
ENDBRANCH   3  21
TORSDOF 5
ENDMDL
MODEL 8
REMARK VINA RESULT:      -7.8      1.831      2.067
REMARK  Name = 
REMARK  5 active torsions:
REMARK  status: ('A' for Active; 'I' for Inactive)
REMARK    1  A    between atoms: C_2  and  C_9
REMARK    2  A    between atoms: N_3  and  C_4
REMARK    3  A    between atoms: C_4  and  C_5
REMARK    4  A    between atoms: N_11  and  C_12
REMARK    5  A    between atoms: C_12  and  C_13
REMARK                            x       y       z     vdW  Elec       q    Type
REMARK                         _______ _______ _______ _____ _____    ______ ____
ROOT
ATOM      1  C   UNL     1       2.543   6.400  18.976  0.00  0.00    +0.000 A 
ATOM      2  N   UNL     1       3.475   6.706  18.115  0.00  0.00    +0.000 NA
ATOM      3  N   UNL     1       4.107   5.688  17.425  0.00  0.00    +0.000 N 
ATOM      4  C   UNL     1       3.798   4.338  17.568  0.00  0.00    +0.000 A 
ATOM      5  O   UNL     1       4.350   3.432  16.945  0.00  0.00    +0.000 OA
ATOM      6  C   UNL     1       2.758   4.001  18.554  0.00  0.00    +0.000 A 
ATOM      7  C   UNL     1       2.460   2.656  18.811  0.00  0.00    +0.000 A 
ATOM      8  C   UNL     1       1.498   2.321  19.763  0.00  0.00    +0.000 A 
ATOM      9  C   UNL     1       0.815   3.332  20.434  0.00  0.00    +0.000 A 
ATOM     10  C   UNL     1       1.102   4.674  20.164  0.00  0.00    +0.000 A 
ATOM     11  C   UNL     1       2.100   5.016  19.243  0.00  0.00    +0.000 A 
ENDROOT
BRANCH   1  13
ATOM     12  O   UNL     1       1.848   7.577  20.969  0.00  0.00    +0.000 OA
ATOM     13  C   UNL     1       1.938   7.582  19.750  0.00  0.00    +0.000 C 
ATOM     14  N   UNL     1       1.565   8.654  18.971  0.00  0.00    +0.000 N 
ATOM     15  H   UNL     1       1.687   8.569  17.965  0.00  0.00    +0.000 HD
BRANCH  14  16
ATOM     16  C   UNL     1       0.961   9.844  19.565  0.00  0.00    +0.000 C 
BRANCH  16  17
ATOM     17  C   UNL     1       1.331  11.184  18.914  0.00  0.00    +0.000 C 
ATOM     18  F   UNL     1       1.790  12.082  19.815  0.00  0.00    +0.000 F 
ATOM     19  F   UNL     1       2.276  11.036  17.960  0.00  0.00    +0.000 F 
ATOM     20  F   UNL     1       0.243  11.734  18.322  0.00  0.00    +0.000 F 
ENDBRANCH  16  17
ENDBRANCH  14  16
ENDBRANCH   1  13
BRANCH   3  21
ATOM     21  C   UNL     1       5.191   6.071  16.521  0.00  0.00    +0.000 C 
BRANCH  21  22
ATOM     22  C   UNL     1       6.390   6.613  17.261  0.00  0.00    +0.000 A 
ATOM     23  C   UNL     1       7.025   5.838  18.241  0.00  0.00    +0.000 A 
ATOM     24  C   UNL     1       8.085   6.365  18.980  0.00  0.00    +0.000 A 
ATOM     25  C   UNL     1       8.522   7.668  18.745  0.00  0.00    +0.000 A 
ATOM     26  C   UNL     1       7.912   8.439  17.757  0.00  0.00    +0.000 A 
ATOM     27  C   UNL     1       6.851   7.915  17.018  0.00  0.00    +0.000 A 
ENDBRANCH  21  22
ENDBRANCH   3  21
TORSDOF 5
ENDMDL
MODEL 9
REMARK VINA RESULT:      -7.7      1.802      2.217
REMARK  Name = 
REMARK  5 active torsions:
REMARK  status: ('A' for Active; 'I' for Inactive)
REMARK    1  A    between atoms: C_2  and  C_9
REMARK    2  A    between atoms: N_3  and  C_4
REMARK    3  A    between atoms: C_4  and  C_5
REMARK    4  A    between atoms: N_11  and  C_12
REMARK    5  A    between atoms: C_12  and  C_13
REMARK                            x       y       z     vdW  Elec       q    Type
REMARK                         _______ _______ _______ _____ _____    ______ ____
ROOT
ATOM      1  C   UNL     1       2.543   6.302  18.990  0.00  0.00    +0.000 A 
ATOM      2  N   UNL     1       3.499   6.617  18.159  0.00  0.00    +0.000 NA
ATOM      3  N   UNL     1       4.144   5.607  17.469  0.00  0.00    +0.000 N 
ATOM      4  C   UNL     1       3.824   4.256  17.580  0.00  0.00    +0.000 A 
ATOM      5  O   UNL     1       4.388   3.358  16.956  0.00  0.00    +0.000 OA
ATOM      6  C   UNL     1       2.757   3.909  18.534  0.00  0.00    +0.000 A 
ATOM      7  C   UNL     1       2.445   2.561  18.759  0.00  0.00    +0.000 A 
ATOM      8  C   UNL     1       1.457   2.216  19.680  0.00  0.00    +0.000 A 
ATOM      9  C   UNL     1       0.762   3.219  20.350  0.00  0.00    +0.000 A 
ATOM     10  C   UNL     1       1.063   4.564  20.111  0.00  0.00    +0.000 A 
ATOM     11  C   UNL     1       2.087   4.916  19.222  0.00  0.00    +0.000 A 
ENDROOT
BRANCH   1  13
ATOM     12  O   UNL     1       1.813   7.454  20.985  0.00  0.00    +0.000 OA
ATOM     13  C   UNL     1       1.925   7.474  19.769  0.00  0.00    +0.000 C 
ATOM     14  N   UNL     1       1.565   8.555  18.997  0.00  0.00    +0.000 N 
ATOM     15  H   UNL     1       1.705   8.483  17.992  0.00  0.00    +0.000 HD
BRANCH  14  16
ATOM     16  C   UNL     1       0.951   9.738  19.595  0.00  0.00    +0.000 C 
BRANCH  16  17
ATOM     17  C   UNL     1       1.259  11.077  18.910  0.00  0.00    +0.000 C 
ATOM     18  F   UNL     1       2.192  10.952  17.938  0.00  0.00    +0.000 F 
ATOM     19  F   UNL     1       0.156  11.624  18.356  0.00  0.00    +0.000 F 
ATOM     20  F   UNL     1       1.741  11.966  19.813  0.00  0.00    +0.000 F 
ENDBRANCH  16  17
ENDBRANCH  14  16
ENDBRANCH   1  13
BRANCH   3  21
ATOM     21  C   UNL     1       5.253   5.999  16.599  0.00  0.00    +0.000 C 
BRANCH  21  22
ATOM     22  C   UNL     1       6.382   6.642  17.368  0.00  0.00    +0.000 A 
ATOM     23  C   UNL     1       6.797   7.944  17.059  0.00  0.00    +0.000 A 
ATOM     24  C   UNL     1       7.890   8.511  17.715  0.00  0.00    +0.000 A 
ATOM     25  C   UNL     1       8.575   7.785  18.688  0.00  0.00    +0.000 A 
ATOM     26  C   UNL     1       8.157   6.498  19.019  0.00  0.00    +0.000 A 
ATOM     27  C   UNL     1       7.066   5.928  18.363  0.00  0.00    +0.000 A 
ENDBRANCH  21  22
ENDBRANCH   3  21
TORSDOF 5
ENDMDL
