MODEL 1
REMARK VINA RESULT:      -9.0      0.000      0.000
REMARK  Name = 
REMARK  6 active torsions:
REMARK  status: ('A' for Active; 'I' for Inactive)
REMARK    1  A    between atoms: C_4  and  C_5
REMARK    2  A    between atoms: C_5  and  C_6
REMARK    3  A    between atoms: C_6  and  N_7
REMARK    4  A    between atoms: N_10  and  C_11
REMARK    5  A    between atoms: C_19  and  C_20
REMARK    6  A    between atoms: C_23  and  C_24
REMARK                            x       y       z     vdW  Elec       q    Type
REMARK                         _______ _______ _______ _____ _____    ______ ____
ROOT
ATOM      1  O   UNL     1       1.874   3.419  22.107  0.00  0.00    +0.000 OA
ATOM      2  C   UNL     1       2.276   4.159  21.227  0.00  0.00    +0.000 A 
ATOM      3  O   UNL     1       1.854   5.387  21.061  0.00  0.00    +0.000 OA
ATOM      4  C   UNL     1       2.488   5.853  20.010  0.00  0.00    +0.000 A 
ATOM      5  C   UNL     1       3.323   4.835  19.527  0.00  0.00    +0.000 A 
ATOM      6  O   UNL     1       3.154   3.803  20.325  0.00  0.00    +0.000 OA
ENDROOT
BRANCH   5   7
ATOM      7  C   UNL     1       4.169   4.749  18.297  0.00  0.00    +0.000 A 
ATOM      8  C   UNL     1       5.006   5.785  17.841  0.00  0.00    +0.000 A 
ATOM      9  C   UNL     1       5.669   5.685  16.613  0.00  0.00    +0.000 A 
ATOM     10  C   UNL     1       5.512   4.551  15.793  0.00  0.00    +0.000 A 
ATOM     11  C   UNL     1       4.715   3.496  16.276  0.00  0.00    +0.000 A 
ATOM     12  C   UNL     1       4.064   3.591  17.508  0.00  0.00    +0.000 A 
BRANCH  10  13
ATOM     13  C   UNL     1       6.130   4.496  14.427  0.00  0.00    +0.000 A 
ATOM     14  C   UNL     1       5.651   3.614  13.434  0.00  0.00    +0.000 A 
ATOM     15  C   UNL     1       6.267   3.548  12.180  0.00  0.00    +0.000 A 
ATOM     16  C   UNL     1       7.378   4.344  11.898  0.00  0.00    +0.000 A 
ATOM     17  C   UNL     1       7.870   5.217  12.867  0.00  0.00    +0.000 A 
ATOM     18  C   UNL     1       7.250   5.302  14.115  0.00  0.00    +0.000 A 
ENDBRANCH  10  13
ENDBRANCH   5   7
BRANCH   4  19
ATOM     19  C   UNL     1       2.260   7.228  19.450  0.00  0.00    +0.000 C 
BRANCH  19  20
ATOM     20  C   UNL     1       1.760   8.251  20.483  0.00  0.00    +0.000 C 
BRANCH  20  21
ATOM     21  N   UNL     1       0.317   8.591  20.392  0.00  0.00    +0.000 NA
ATOM     22  C   UNL     1      -0.431   8.497  21.669  0.00  0.00    +0.000 C 
ATOM     23  C   UNL     1      -0.018   9.594  22.668  0.00  0.00    +0.000 C 
ATOM     24  N   UNL     1      -0.147  10.896  22.017  0.00  0.00    +0.000 N 
ATOM     25  C   UNL     1       0.577  11.044  20.759  0.00  0.00    +0.000 C 
ATOM     26  C   UNL     1       0.131   9.936  19.790  0.00  0.00    +0.000 C 
BRANCH  24  27
ATOM     27  C   UNL     1      -0.936  11.966  22.574  0.00  0.00    +0.000 A 
ATOM     28  C   UNL     1      -0.499  13.310  22.494  0.00  0.00    +0.000 A 
ATOM     29  C   UNL     1      -1.282  14.349  23.003  0.00  0.00    +0.000 A 
ATOM     30  C   UNL     1      -2.507  14.076  23.612  0.00  0.00    +0.000 A 
ATOM     31  C   UNL     1      -2.953  12.757  23.708  0.00  0.00    +0.000 A 
ATOM     32  C   UNL     1      -2.182  11.717  23.194  0.00  0.00    +0.000 A 
ENDBRANCH  24  27
ENDBRANCH  20  21
ENDBRANCH  19  20
ENDBRANCH   4  19
TORSDOF 6
ENDMDL
MODEL 2
REMARK VINA RESULT:      -8.7      0.936      1.306
REMARK  Name = 
REMARK  6 active torsions:
REMARK  status: ('A' for Active; 'I' for Inactive)
REMARK    1  A    between atoms: C_4  and  C_5
REMARK    2  A    between atoms: C_5  and  C_6
REMARK    3  A    between atoms: C_6  and  N_7
REMARK    4  A    between atoms: N_10  and  C_11
REMARK    5  A    between atoms: C_19  and  C_20
REMARK    6  A    between atoms: C_23  and  C_24
REMARK                            x       y       z     vdW  Elec       q    Type
REMARK                         _______ _______ _______ _____ _____    ______ ____
ROOT
ATOM      1  O   UNL     1       1.876   2.677  22.230  0.00  0.00    +0.000 OA
ATOM      2  C   UNL     1       2.274   3.466  21.392  0.00  0.00    +0.000 A 
ATOM      3  O   UNL     1       1.861   4.704  21.305  0.00  0.00    +0.000 OA
ATOM      4  C   UNL     1       2.488   5.229  20.276  0.00  0.00    +0.000 A 
ATOM      5  C   UNL     1       3.307   4.235  19.723  0.00  0.00    +0.000 A 
ATOM      6  O   UNL     1       3.138   3.158  20.459  0.00  0.00    +0.000 OA
ENDROOT
BRANCH   5   7
ATOM      7  C   UNL     1       4.138   4.216  18.480  0.00  0.00    +0.000 A 
ATOM      8  C   UNL     1       5.201   5.104  18.228  0.00  0.00    +0.000 A 
ATOM      9  C   UNL     1       5.851   5.113  16.989  0.00  0.00    +0.000 A 
ATOM     10  C   UNL     1       5.456   4.244  15.954  0.00  0.00    +0.000 A 
ATOM     11  C   UNL     1       4.426   3.322  16.227  0.00  0.00    +0.000 A 
ATOM     12  C   UNL     1       3.788   3.305  17.469  0.00  0.00    +0.000 A 
BRANCH  10  13
ATOM     13  C   UNL     1       6.074   4.335  14.591  0.00  0.00    +0.000 A 
ATOM     14  C   UNL     1       5.594   3.568  13.507  0.00  0.00    +0.000 A 
ATOM     15  C   UNL     1       6.211   3.637  12.254  0.00  0.00    +0.000 A 
ATOM     16  C   UNL     1       7.324   4.454  12.061  0.00  0.00    +0.000 A 
ATOM     17  C   UNL     1       7.818   5.216  13.120  0.00  0.00    +0.000 A 
ATOM     18  C   UNL     1       7.197   5.166  14.370  0.00  0.00    +0.000 A 
ENDBRANCH  10  13
ENDBRANCH   5   7
BRANCH   4  19
ATOM     19  C   UNL     1       2.265   6.637  19.804  0.00  0.00    +0.000 C 
BRANCH  19  20
ATOM     20  C   UNL     1       1.295   7.446  20.678  0.00  0.00    +0.000 C 
BRANCH  20  21
ATOM     21  N   UNL     1       1.677   8.864  20.904  0.00  0.00    +0.000 NA
ATOM     22  C   UNL     1       1.145   9.824  19.907  0.00  0.00    +0.000 C 
ATOM     23  C   UNL     1      -0.382   9.996  20.021  0.00  0.00    +0.000 C 
ATOM     24  N   UNL     1      -0.714  10.351  21.399  0.00  0.00    +0.000 N 
ATOM     25  C   UNL     1      -0.219   9.434  22.420  0.00  0.00    +0.000 C 
ATOM     26  C   UNL     1       1.306   9.296  22.275  0.00  0.00    +0.000 C 
BRANCH  24  27
ATOM     27  C   UNL     1      -1.476  11.527  21.733  0.00  0.00    +0.000 A 
ATOM     28  C   UNL     1      -1.969  12.386  20.721  0.00  0.00    +0.000 A 
ATOM     29  C   UNL     1      -2.737  13.508  21.046  0.00  0.00    +0.000 A 
ATOM     30  C   UNL     1      -3.020  13.807  22.379  0.00  0.00    +0.000 A 
ATOM     31  C   UNL     1      -2.537  12.977  23.391  0.00  0.00    +0.000 A 
ATOM     32  C   UNL     1      -1.779  11.852  23.075  0.00  0.00    +0.000 A 
ENDBRANCH  24  27
ENDBRANCH  20  21
ENDBRANCH  19  20
ENDBRANCH   4  19
TORSDOF 6
ENDMDL
MODEL 3
REMARK VINA RESULT:      -8.7      1.951      2.619
REMARK  Name = 
REMARK  6 active torsions:
REMARK  status: ('A' for Active; 'I' for Inactive)
REMARK    1  A    between atoms: C_4  and  C_5
REMARK    2  A    between atoms: C_5  and  C_6
REMARK    3  A    between atoms: C_6  and  N_7
REMARK    4  A    between atoms: N_10  and  C_11
REMARK    5  A    between atoms: C_19  and  C_20
REMARK    6  A    between atoms: C_23  and  C_24
REMARK                            x       y       z     vdW  Elec       q    Type
REMARK                         _______ _______ _______ _____ _____    ______ ____
ROOT
ATOM      1  O   UNL     1       1.972   3.653  21.988  0.00  0.00    +0.000 OA
ATOM      2  C   UNL     1       2.320   4.389  21.083  0.00  0.00    +0.000 A 
ATOM      3  O   UNL     1       1.825   5.584  20.886  0.00  0.00    +0.000 OA
ATOM      4  C   UNL     1       2.419   6.055  19.814  0.00  0.00    +0.000 A 
ATOM      5  C   UNL     1       3.306   5.073  19.350  0.00  0.00    +0.000 A 
ATOM      6  O   UNL     1       3.206   4.057  20.179  0.00  0.00    +0.000 OA
ENDROOT
BRANCH   5   7
ATOM      7  C   UNL     1       4.141   4.999  18.111  0.00  0.00    +0.000 A 
ATOM      8  C   UNL     1       4.556   6.123  17.372  0.00  0.00    +0.000 A 
ATOM      9  C   UNL     1       5.225   5.973  16.152  0.00  0.00    +0.000 A 
ATOM     10  C   UNL     1       5.495   4.696  15.624  0.00  0.00    +0.000 A 
ATOM     11  C   UNL     1       5.125   3.575  16.391  0.00  0.00    +0.000 A 
ATOM     12  C   UNL     1       4.468   3.726  17.614  0.00  0.00    +0.000 A 
BRANCH  10  13
ATOM     13  C   UNL     1       6.108   4.538  14.264  0.00  0.00    +0.000 A 
ATOM     14  C   UNL     1       5.606   3.604  13.330  0.00  0.00    +0.000 A 
ATOM     15  C   UNL     1       6.217   3.443  12.082  0.00  0.00    +0.000 A 
ATOM     16  C   UNL     1       7.344   4.192  11.748  0.00  0.00    +0.000 A 
ATOM     17  C   UNL     1       7.859   5.115  12.658  0.00  0.00    +0.000 A 
ATOM     18  C   UNL     1       7.245   5.295  13.899  0.00  0.00    +0.000 A 
ENDBRANCH  10  13
ENDBRANCH   5   7
BRANCH   4  19
ATOM     19  C   UNL     1       2.105   7.398  19.218  0.00  0.00    +0.000 C 
BRANCH  19  20
ATOM     20  C   UNL     1       1.558   8.420  20.226  0.00  0.00    +0.000 C 
BRANCH  20  21
ATOM     21  N   UNL     1       0.409   9.230  19.749  0.00  0.00    +0.000 NA
ATOM     22  C   UNL     1      -0.078  10.254  20.704  0.00  0.00    +0.000 C 
ATOM     23  C   UNL     1       0.930  11.405  20.889  0.00  0.00    +0.000 C 
ATOM     24  N   UNL     1       1.264  11.953  19.576  0.00  0.00    +0.000 N 
ATOM     25  C   UNL     1       1.755  10.986  18.599  0.00  0.00    +0.000 C 
ATOM     26  C   UNL     1       0.719   9.861  18.440  0.00  0.00    +0.000 C 
BRANCH  24  27
ATOM     27  C   UNL     1       1.118  13.351  19.260  0.00  0.00    +0.000 A 
ATOM     28  C   UNL     1      -0.149  13.982  19.320  0.00  0.00    +0.000 A 
ATOM     29  C   UNL     1      -0.283  15.345  19.047  0.00  0.00    +0.000 A 
ATOM     30  C   UNL     1       0.832  16.108  18.697  0.00  0.00    +0.000 A 
ATOM     31  C   UNL     1       2.088  15.504  18.625  0.00  0.00    +0.000 A 
ATOM     32  C   UNL     1       2.231  14.147  18.905  0.00  0.00    +0.000 A 
ENDBRANCH  24  27
ENDBRANCH  20  21
ENDBRANCH  19  20
ENDBRANCH   4  19
TORSDOF 6
ENDMDL
MODEL 4
REMARK VINA RESULT:      -8.5      2.797      9.925
REMARK  Name = 
REMARK  6 active torsions:
REMARK  status: ('A' for Active; 'I' for Inactive)
REMARK    1  A    between atoms: C_4  and  C_5
REMARK    2  A    between atoms: C_5  and  C_6
REMARK    3  A    between atoms: C_6  and  N_7
REMARK    4  A    between atoms: N_10  and  C_11
REMARK    5  A    between atoms: C_19  and  C_20
REMARK    6  A    between atoms: C_23  and  C_24
REMARK                            x       y       z     vdW  Elec       q    Type
REMARK                         _______ _______ _______ _____ _____    ______ ____
ROOT
ATOM      1  O   UNL     1       2.040   2.392  22.065  0.00  0.00    +0.000 OA
ATOM      2  C   UNL     1       2.282   3.320  21.314  0.00  0.00    +0.000 A 
ATOM      3  O   UNL     1       3.194   3.278  20.376  0.00  0.00    +0.000 OA
ATOM      4  C   UNL     1       3.181   4.458  19.800  0.00  0.00    +0.000 A 
ATOM      5  C   UNL     1       2.212   5.239  20.445  0.00  0.00    +0.000 A 
ATOM      6  O   UNL     1       1.680   4.480  21.378  0.00  0.00    +0.000 OA
ENDROOT
BRANCH   5   7
ATOM      7  C   UNL     1       1.853   6.685  20.308  0.00  0.00    +0.000 A 
ATOM      8  C   UNL     1       1.164   7.422  21.289  0.00  0.00    +0.000 A 
ATOM      9  C   UNL     1       0.747   8.735  21.040  0.00  0.00    +0.000 A 
ATOM     10  C   UNL     1       0.995   9.353  19.799  0.00  0.00    +0.000 A 
ATOM     11  C   UNL     1       1.730   8.630  18.839  0.00  0.00    +0.000 A 
ATOM     12  C   UNL     1       2.157   7.324  19.095  0.00  0.00    +0.000 A 
BRANCH  10  13
ATOM     13  C   UNL     1       0.447  10.715  19.492  0.00  0.00    +0.000 A 
ATOM     14  C   UNL     1      -0.599  10.899  18.562  0.00  0.00    +0.000 A 
ATOM     15  C   UNL     1      -1.069  12.181  18.259  0.00  0.00    +0.000 A 
ATOM     16  C   UNL     1      -0.496  13.301  18.861  0.00  0.00    +0.000 A 
ATOM     17  C   UNL     1       0.542  13.142  19.778  0.00  0.00    +0.000 A 
ATOM     18  C   UNL     1       1.004  11.864  20.099  0.00  0.00    +0.000 A 
ENDBRANCH  10  13
ENDBRANCH   5   7
BRANCH   4  19
ATOM     19  C   UNL     1       4.115   4.844  18.688  0.00  0.00    +0.000 C 
BRANCH  19  20
ATOM     20  C   UNL     1       5.433   5.472  19.165  0.00  0.00    +0.000 C 
BRANCH  20  21
ATOM     21  N   UNL     1       6.144   6.299  18.157  0.00  0.00    +0.000 NA
ATOM     22  C   UNL     1       7.428   5.734  17.674  0.00  0.00    +0.000 C 
ATOM     23  C   UNL     1       7.222   4.476  16.809  0.00  0.00    +0.000 C 
ATOM     24  N   UNL     1       6.290   4.793  15.731  0.00  0.00    +0.000 N 
ATOM     25  C   UNL     1       5.006   5.345  16.153  0.00  0.00    +0.000 C 
ATOM     26  C   UNL     1       5.256   6.601  17.005  0.00  0.00    +0.000 C 
BRANCH  24  27
ATOM     27  C   UNL     1       6.609   4.580  14.342  0.00  0.00    +0.000 A 
ATOM     28  C   UNL     1       5.898   3.629  13.570  0.00  0.00    +0.000 A 
ATOM     29  C   UNL     1       6.186   3.448  12.214  0.00  0.00    +0.000 A 
ATOM     30  C   UNL     1       7.192   4.196  11.601  0.00  0.00    +0.000 A 
ATOM     31  C   UNL     1       7.910   5.133  12.347  0.00  0.00    +0.000 A 
ATOM     32  C   UNL     1       7.622   5.325  13.696  0.00  0.00    +0.000 A 
ENDBRANCH  24  27
ENDBRANCH  20  21
ENDBRANCH  19  20
ENDBRANCH   4  19
TORSDOF 6
ENDMDL
MODEL 5
REMARK VINA RESULT:      -8.4      0.829      1.688
REMARK  Name = 
REMARK  6 active torsions:
REMARK  status: ('A' for Active; 'I' for Inactive)
REMARK    1  A    between atoms: C_4  and  C_5
REMARK    2  A    between atoms: C_5  and  C_6
REMARK    3  A    between atoms: C_6  and  N_7
REMARK    4  A    between atoms: N_10  and  C_11
REMARK    5  A    between atoms: C_19  and  C_20
REMARK    6  A    between atoms: C_23  and  C_24
REMARK                            x       y       z     vdW  Elec       q    Type
REMARK                         _______ _______ _______ _____ _____    ______ ____
ROOT
ATOM      1  O   UNL     1       2.418   2.633  22.333  0.00  0.00    +0.000 OA
ATOM      2  C   UNL     1       2.566   3.430  21.424  0.00  0.00    +0.000 A 
ATOM      3  O   UNL     1       2.009   4.614  21.398  0.00  0.00    +0.000 OA
ATOM      4  C   UNL     1       2.374   5.166  20.263  0.00  0.00    +0.000 A 
ATOM      5  C   UNL     1       3.184   4.246  19.582  0.00  0.00    +0.000 A 
ATOM      6  O   UNL     1       3.274   3.184  20.351  0.00  0.00    +0.000 OA
ENDROOT
BRANCH   5   7
ATOM      7  C   UNL     1       3.770   4.273  18.206  0.00  0.00    +0.000 A 
ATOM      8  C   UNL     1       3.761   3.176  17.324  0.00  0.00    +0.000 A 
ATOM      9  C   UNL     1       4.441   3.231  16.102  0.00  0.00    +0.000 A 
ATOM     10  C   UNL     1       5.162   4.379  15.723  0.00  0.00    +0.000 A 
ATOM     11  C   UNL     1       5.126   5.492  16.585  0.00  0.00    +0.000 A 
ATOM     12  C   UNL     1       4.436   5.440  17.798  0.00  0.00    +0.000 A 
BRANCH  10  13
ATOM     13  C   UNL     1       5.985   4.393  14.469  0.00  0.00    +0.000 A 
ATOM     14  C   UNL     1       7.116   5.229  14.336  0.00  0.00    +0.000 A 
ATOM     15  C   UNL     1       7.846   5.259  13.143  0.00  0.00    +0.000 A 
ATOM     16  C   UNL     1       7.456   4.473  12.059  0.00  0.00    +0.000 A 
ATOM     17  C   UNL     1       6.339   3.645  12.168  0.00  0.00    +0.000 A 
ATOM     18  C   UNL     1       5.615   3.597  13.361  0.00  0.00    +0.000 A 
ENDBRANCH  10  13
ENDBRANCH   5   7
BRANCH   4  19
ATOM     19  C   UNL     1       1.914   6.525  19.820  0.00  0.00    +0.000 C 
BRANCH  19  20
ATOM     20  C   UNL     1       1.233   7.348  20.925  0.00  0.00    +0.000 C 
BRANCH  20  21
ATOM     21  N   UNL     1       1.679   8.761  21.030  0.00  0.00    +0.000 NA
ATOM     22  C   UNL     1       1.070   9.687  20.045  0.00  0.00    +0.000 C 
ATOM     23  C   UNL     1      -0.430   9.919  20.313  0.00  0.00    +0.000 C 
ATOM     24  N   UNL     1      -0.598  10.355  21.697  0.00  0.00    +0.000 N 
ATOM     25  C   UNL     1      -0.022   9.474  22.708  0.00  0.00    +0.000 C 
ATOM     26  C   UNL     1       1.473   9.275  22.408  0.00  0.00    +0.000 C 
BRANCH  24  27
ATOM     27  C   UNL     1      -1.283  11.574  22.047  0.00  0.00    +0.000 A 
ATOM     28  C   UNL     1      -1.160  12.734  21.244  0.00  0.00    +0.000 A 
ATOM     29  C   UNL     1      -1.853  13.904  21.565  0.00  0.00    +0.000 A 
ATOM     30  C   UNL     1      -2.671  13.952  22.695  0.00  0.00    +0.000 A 
ATOM     31  C   UNL     1      -2.799  12.822  23.503  0.00  0.00    +0.000 A 
ATOM     32  C   UNL     1      -2.120  11.649  23.184  0.00  0.00    +0.000 A 
ENDBRANCH  24  27
ENDBRANCH  20  21
ENDBRANCH  19  20
ENDBRANCH   4  19
TORSDOF 6
ENDMDL
MODEL 6
REMARK VINA RESULT:      -8.4      3.062      9.875
REMARK  Name = 
REMARK  6 active torsions:
REMARK  status: ('A' for Active; 'I' for Inactive)
REMARK    1  A    between atoms: C_4  and  C_5
REMARK    2  A    between atoms: C_5  and  C_6
REMARK    3  A    between atoms: C_6  and  N_7
REMARK    4  A    between atoms: N_10  and  C_11
REMARK    5  A    between atoms: C_19  and  C_20
REMARK    6  A    between atoms: C_23  and  C_24
REMARK                            x       y       z     vdW  Elec       q    Type
REMARK                         _______ _______ _______ _____ _____    ______ ____
ROOT
ATOM      1  O   UNL     1       2.113   1.830  17.512  0.00  0.00    +0.000 OA
ATOM      2  C   UNL     1       2.633   2.842  17.946  0.00  0.00    +0.000 A 
ATOM      3  O   UNL     1       3.829   2.876  18.475  0.00  0.00    +0.000 OA
ATOM      4  C   UNL     1       4.030   4.120  18.847  0.00  0.00    +0.000 A 
ATOM      5  C   UNL     1       2.880   4.853  18.526  0.00  0.00    +0.000 A 
ATOM      6  O   UNL     1       2.042   4.010  17.963  0.00  0.00    +0.000 OA
ENDROOT
BRANCH   5   7
ATOM      7  C   UNL     1       2.489   6.265  18.829  0.00  0.00    +0.000 A 
ATOM      8  C   UNL     1       2.060   6.710  20.094  0.00  0.00    +0.000 A 
ATOM      9  C   UNL     1       1.587   8.015  20.273  0.00  0.00    +0.000 A 
ATOM     10  C   UNL     1       1.517   8.918  19.195  0.00  0.00    +0.000 A 
ATOM     11  C   UNL     1       1.996   8.485  17.943  0.00  0.00    +0.000 A 
ATOM     12  C   UNL     1       2.480   7.186  17.768  0.00  0.00    +0.000 A 
BRANCH  10  13
ATOM     13  C   UNL     1       0.902  10.275  19.364  0.00  0.00    +0.000 A 
ATOM     14  C   UNL     1      -0.396  10.438  19.896  0.00  0.00    +0.000 A 
ATOM     15  C   UNL     1      -0.968  11.709  20.008  0.00  0.00    +0.000 A 
ATOM     16  C   UNL     1      -0.269  12.836  19.578  0.00  0.00    +0.000 A 
ATOM     17  C   UNL     1       1.011  12.697  19.044  0.00  0.00    +0.000 A 
ATOM     18  C   UNL     1       1.597  11.433  18.945  0.00  0.00    +0.000 A 
ENDBRANCH  10  13
ENDBRANCH   5   7
BRANCH   4  19
ATOM     19  C   UNL     1       5.279   4.581  19.543  0.00  0.00    +0.000 C 
BRANCH  19  20
ATOM     20  C   UNL     1       5.737   5.991  19.140  0.00  0.00    +0.000 C 
BRANCH  20  21
ATOM     21  N   UNL     1       6.973   6.046  18.319  0.00  0.00    +0.000 NA
ATOM     22  C   UNL     1       7.477   4.731  17.854  0.00  0.00    +0.000 C 
ATOM     23  C   UNL     1       6.552   4.092  16.801  0.00  0.00    +0.000 C 
ATOM     24  N   UNL     1       6.345   5.047  15.715  0.00  0.00    +0.000 N 
ATOM     25  C   UNL     1       5.842   6.357  16.118  0.00  0.00    +0.000 C 
ATOM     26  C   UNL     1       6.796   6.961  17.163  0.00  0.00    +0.000 C 
BRANCH  24  27
ATOM     27  C   UNL     1       6.619   4.726  14.338  0.00  0.00    +0.000 A 
ATOM     28  C   UNL     1       5.872   3.731  13.661  0.00  0.00    +0.000 A 
ATOM     29  C   UNL     1       6.115   3.445  12.315  0.00  0.00    +0.000 A 
ATOM     30  C   UNL     1       7.111   4.129  11.617  0.00  0.00    +0.000 A 
ATOM     31  C   UNL     1       7.864   5.107  12.268  0.00  0.00    +0.000 A 
ATOM     32  C   UNL     1       7.620   5.404  13.607  0.00  0.00    +0.000 A 
ENDBRANCH  24  27
ENDBRANCH  20  21
ENDBRANCH  19  20
ENDBRANCH   4  19
TORSDOF 6
ENDMDL
MODEL 7
REMARK VINA RESULT:      -8.3      2.304      3.208
REMARK  Name = 
REMARK  6 active torsions:
REMARK  status: ('A' for Active; 'I' for Inactive)
REMARK    1  A    between atoms: C_4  and  C_5
REMARK    2  A    between atoms: C_5  and  C_6
REMARK    3  A    between atoms: C_6  and  N_7
REMARK    4  A    between atoms: N_10  and  C_11
REMARK    5  A    between atoms: C_19  and  C_20
REMARK    6  A    between atoms: C_23  and  C_24
REMARK                            x       y       z     vdW  Elec       q    Type
REMARK                         _______ _______ _______ _____ _____    ______ ____
ROOT
ATOM      1  O   UNL     1       1.088   3.631  21.354  0.00  0.00    +0.000 OA
ATOM      2  C   UNL     1       1.695   4.391  20.621  0.00  0.00    +0.000 A 
ATOM      3  O   UNL     1       1.523   5.689  20.618  0.00  0.00    +0.000 OA
ATOM      4  C   UNL     1       2.322   6.162  19.688  0.00  0.00    +0.000 A 
ATOM      5  C   UNL     1       2.991   5.076  19.107  0.00  0.00    +0.000 A 
ATOM      6  O   UNL     1       2.566   3.997  19.728  0.00  0.00    +0.000 OA
ENDROOT
BRANCH   5   7
ATOM      7  C   UNL     1       3.909   4.995  17.928  0.00  0.00    +0.000 A 
ATOM      8  C   UNL     1       4.449   6.117  17.271  0.00  0.00    +0.000 A 
ATOM      9  C   UNL     1       5.196   5.970  16.097  0.00  0.00    +0.000 A 
ATOM     10  C   UNL     1       5.421   4.700  15.532  0.00  0.00    +0.000 A 
ATOM     11  C   UNL     1       4.923   3.577  16.220  0.00  0.00    +0.000 A 
ATOM     12  C   UNL     1       4.189   3.724  17.400  0.00  0.00    +0.000 A 
BRANCH  10  13
ATOM     13  C   UNL     1       6.120   4.556  14.214  0.00  0.00    +0.000 A 
ATOM     14  C   UNL     1       5.700   3.610  13.252  0.00  0.00    +0.000 A 
ATOM     15  C   UNL     1       6.391   3.462  12.045  0.00  0.00    +0.000 A 
ATOM     16  C   UNL     1       7.519   4.237  11.780  0.00  0.00    +0.000 A 
ATOM     17  C   UNL     1       7.955   5.172  12.719  0.00  0.00    +0.000 A 
ATOM     18  C   UNL     1       7.261   5.338  13.918  0.00  0.00    +0.000 A 
ENDBRANCH  10  13
ENDBRANCH   5   7
BRANCH   4  19
ATOM     19  C   UNL     1       2.401   7.618  19.331  0.00  0.00    +0.000 C 
BRANCH  19  20
ATOM     20  C   UNL     1       1.529   8.529  20.209  0.00  0.00    +0.000 C 
BRANCH  20  21
ATOM     21  N   UNL     1       1.301   9.896  19.675  0.00  0.00    +0.000 NA
ATOM     22  C   UNL     1       1.106   9.972  18.207  0.00  0.00    +0.000 C 
ATOM     23  C   UNL     1      -0.231   9.348  17.764  0.00  0.00    +0.000 C 
ATOM     24  N   UNL     1      -1.315   9.966  18.524  0.00  0.00    +0.000 N 
ATOM     25  C   UNL     1      -1.174   9.912  19.975  0.00  0.00    +0.000 C 
ATOM     26  C   UNL     1       0.166  10.550  20.375  0.00  0.00    +0.000 C 
BRANCH  24  27
ATOM     27  C   UNL     1      -2.447  10.592  17.889  0.00  0.00    +0.000 A 
ATOM     28  C   UNL     1      -2.652  10.479  16.492  0.00  0.00    +0.000 A 
ATOM     29  C   UNL     1      -3.769  11.057  15.883  0.00  0.00    +0.000 A 
ATOM     30  C   UNL     1      -4.697  11.769  16.644  0.00  0.00    +0.000 A 
ATOM     31  C   UNL     1      -4.509  11.899  18.020  0.00  0.00    +0.000 A 
ATOM     32  C   UNL     1      -3.403  11.317  18.636  0.00  0.00    +0.000 A 
ENDBRANCH  24  27
ENDBRANCH  20  21
ENDBRANCH  19  20
ENDBRANCH   4  19
TORSDOF 6
ENDMDL
MODEL 8
REMARK VINA RESULT:      -8.3      0.727      1.080
REMARK  Name = 
REMARK  6 active torsions:
REMARK  status: ('A' for Active; 'I' for Inactive)
REMARK    1  A    between atoms: C_4  and  C_5
REMARK    2  A    between atoms: C_5  and  C_6
REMARK    3  A    between atoms: C_6  and  N_7
REMARK    4  A    between atoms: N_10  and  C_11
REMARK    5  A    between atoms: C_19  and  C_20
REMARK    6  A    between atoms: C_23  and  C_24
REMARK                            x       y       z     vdW  Elec       q    Type
REMARK                         _______ _______ _______ _____ _____    ______ ____
ROOT
ATOM      1  O   UNL     1       1.784   2.964  22.257  0.00  0.00    +0.000 OA
ATOM      2  C   UNL     1       2.224   3.703  21.395  0.00  0.00    +0.000 A 
ATOM      3  O   UNL     1       1.900   4.966  21.285  0.00  0.00    +0.000 OA
ATOM      4  C   UNL     1       2.546   5.420  20.234  0.00  0.00    +0.000 A 
ATOM      5  C   UNL     1       3.281   4.357  19.692  0.00  0.00    +0.000 A 
ATOM      6  O   UNL     1       3.048   3.312  20.456  0.00  0.00    +0.000 OA
ENDROOT
BRANCH   5   7
ATOM      7  C   UNL     1       4.087   4.249  18.437  0.00  0.00    +0.000 A 
ATOM      8  C   UNL     1       5.424   4.676  18.319  0.00  0.00    +0.000 A 
ATOM      9  C   UNL     1       6.074   4.664  17.080  0.00  0.00    +0.000 A 
ATOM     10  C   UNL     1       5.410   4.237  15.914  0.00  0.00    +0.000 A 
ATOM     11  C   UNL     1       4.091   3.763  16.046  0.00  0.00    +0.000 A 
ATOM     12  C   UNL     1       3.447   3.762  17.285  0.00  0.00    +0.000 A 
BRANCH  10  13
ATOM     13  C   UNL     1       6.070   4.335  14.571  0.00  0.00    +0.000 A 
ATOM     14  C   UNL     1       5.647   3.545  13.479  0.00  0.00    +0.000 A 
ATOM     15  C   UNL     1       6.303   3.621  12.246  0.00  0.00    +0.000 A 
ATOM     16  C   UNL     1       7.398   4.469  12.082  0.00  0.00    +0.000 A 
ATOM     17  C   UNL     1       7.835   5.253  13.149  0.00  0.00    +0.000 A 
ATOM     18  C   UNL     1       7.175   5.196  14.378  0.00  0.00    +0.000 A 
ENDBRANCH  10  13
ENDBRANCH   5   7
BRANCH   4  19
ATOM     19  C   UNL     1       2.417   6.830  19.732  0.00  0.00    +0.000 C 
BRANCH  19  20
ATOM     20  C   UNL     1       1.821   7.809  20.755  0.00  0.00    +0.000 C 
BRANCH  20  21
ATOM     21  N   UNL     1       0.462   8.314  20.432  0.00  0.00    +0.000 NA
ATOM     22  C   UNL     1      -0.409   8.565  21.605  0.00  0.00    +0.000 C 
ATOM     23  C   UNL     1       0.070   9.768  22.440  0.00  0.00    +0.000 C 
ATOM     24  N   UNL     1       0.205  10.928  21.562  0.00  0.00    +0.000 N 
ATOM     25  C   UNL     1       1.059  10.735  20.395  0.00  0.00    +0.000 C 
ATOM     26  C   UNL     1       0.543   9.533  19.587  0.00  0.00    +0.000 C 
BRANCH  24  27
ATOM     27  C   UNL     1      -0.461  12.179  21.824  0.00  0.00    +0.000 A 
ATOM     28  C   UNL     1      -1.120  12.408  23.056  0.00  0.00    +0.000 A 
ATOM     29  C   UNL     1      -1.735  13.634  23.321  0.00  0.00    +0.000 A 
ATOM     30  C   UNL     1      -1.720  14.652  22.367  0.00  0.00    +0.000 A 
ATOM     31  C   UNL     1      -1.082  14.444  21.144  0.00  0.00    +0.000 A 
ATOM     32  C   UNL     1      -0.458  13.227  20.876  0.00  0.00    +0.000 A 
ENDBRANCH  24  27
ENDBRANCH  20  21
ENDBRANCH  19  20
ENDBRANCH   4  19
TORSDOF 6
ENDMDL
MODEL 9
REMARK VINA RESULT:      -8.3      3.570      4.894
REMARK  Name = 
REMARK  6 active torsions:
REMARK  status: ('A' for Active; 'I' for Inactive)
REMARK    1  A    between atoms: C_4  and  C_5
REMARK    2  A    between atoms: C_5  and  C_6
REMARK    3  A    between atoms: C_6  and  N_7
REMARK    4  A    between atoms: N_10  and  C_11
REMARK    5  A    between atoms: C_19  and  C_20
REMARK    6  A    between atoms: C_23  and  C_24
REMARK                            x       y       z     vdW  Elec       q    Type
REMARK                         _______ _______ _______ _____ _____    ______ ____
ROOT
ATOM      1  O   UNL     1      -0.456   9.153  23.134  0.00  0.00    +0.000 OA
ATOM      2  C   UNL     1       0.019   9.167  22.014  0.00  0.00    +0.000 A 
ATOM      3  O   UNL     1      -0.338  10.014  21.082  0.00  0.00    +0.000 OA
ATOM      4  C   UNL     1       0.365   9.706  20.016  0.00  0.00    +0.000 A 
ATOM      5  C   UNL     1       1.174   8.608  20.341  0.00  0.00    +0.000 A 
ATOM      6  O   UNL     1       0.921   8.315  21.598  0.00  0.00    +0.000 OA
ENDROOT
BRANCH   5   7
ATOM      7  C   UNL     1       2.072   7.757  19.500  0.00  0.00    +0.000 A 
ATOM      8  C   UNL     1       2.573   6.504  19.901  0.00  0.00    +0.000 A 
ATOM      9  C   UNL     1       3.511   5.822  19.117  0.00  0.00    +0.000 A 
ATOM     10  C   UNL     1       3.988   6.372  17.912  0.00  0.00    +0.000 A 
ATOM     11  C   UNL     1       3.445   7.600  17.489  0.00  0.00    +0.000 A 
ATOM     12  C   UNL     1       2.500   8.273  18.266  0.00  0.00    +0.000 A 
BRANCH  10  13
ATOM     13  C   UNL     1       5.078   5.695  17.134  0.00  0.00    +0.000 A 
ATOM     14  C   UNL     1       6.153   5.046  17.779  0.00  0.00    +0.000 A 
ATOM     15  C   UNL     1       7.181   4.456  17.036  0.00  0.00    +0.000 A 
ATOM     16  C   UNL     1       7.167   4.517  15.643  0.00  0.00    +0.000 A 
ATOM     17  C   UNL     1       6.118   5.159  14.987  0.00  0.00    +0.000 A 
ATOM     18  C   UNL     1       5.078   5.735  15.720  0.00  0.00    +0.000 A 
ENDBRANCH  10  13
ENDBRANCH   5   7
BRANCH   4  19
ATOM     19  C   UNL     1       0.225  10.418  18.701  0.00  0.00    +0.000 C 
BRANCH  19  20
ATOM     20  C   UNL     1      -1.101  10.144  17.977  0.00  0.00    +0.000 C 
BRANCH  20  21
ATOM     21  N   UNL     1      -1.751  11.334  17.372  0.00  0.00    +0.000 NA
ATOM     22  C   UNL     1      -3.075  11.081  16.753  0.00  0.00    +0.000 C 
ATOM     23  C   UNL     1      -4.157  10.760  17.803  0.00  0.00    +0.000 C 
ATOM     24  N   UNL     1      -4.180  11.830  18.797  0.00  0.00    +0.000 N 
ATOM     25  C   UNL     1      -2.902  12.115  19.442  0.00  0.00    +0.000 C 
ATOM     26  C   UNL     1      -1.855  12.436  18.362  0.00  0.00    +0.000 C 
BRANCH  24  27
ATOM     27  C   UNL     1      -5.379  12.560  19.122  0.00  0.00    +0.000 A 
ATOM     28  C   UNL     1      -6.582  12.337  18.409  0.00  0.00    +0.000 A 
ATOM     29  C   UNL     1      -7.752  13.020  18.748  0.00  0.00    +0.000 A 
ATOM     30  C   UNL     1      -7.751  13.947  19.791  0.00  0.00    +0.000 A 
ATOM     31  C   UNL     1      -6.574  14.187  20.502  0.00  0.00    +0.000 A 
ATOM     32  C   UNL     1      -5.406  13.502  20.175  0.00  0.00    +0.000 A 
ENDBRANCH  24  27
ENDBRANCH  20  21
ENDBRANCH  19  20
ENDBRANCH   4  19
TORSDOF 6
ENDMDL
