MODEL 1
REMARK VINA RESULT:      -7.3      0.000      0.000
REMARK  Name = 
REMARK  5 active torsions:
REMARK  status: ('A' for Active; 'I' for Inactive)
REMARK    1  A    between atoms: C_1  and  C_2
REMARK    2  A    between atoms: C_2  and  C_3
REMARK    3  A    between atoms: C_2  and  C_4
REMARK    4  A    between atoms: C_10  and  C_11
REMARK    5  A    between atoms: C_17  and  C_18
REMARK                            x       y       z     vdW  Elec       q    Type
REMARK                         _______ _______ _______ _____ _____    ______ ____
ROOT
ATOM      1  C   UNL     1      -0.248  10.286  19.775  0.00  0.00    +0.000 C 
ATOM      2  O   UNL     1      -0.347  10.240  18.553  0.00  0.00    +0.000 OA
ATOM      3  N   UNL     1       0.585   9.474  20.518  0.00  0.00    +0.000 N 
ATOM      4  C   UNL     1       1.405   8.512  19.919  0.00  0.00    +0.000 A 
ATOM      5  C   UNL     1       2.133   8.751  18.756  0.00  0.00    +0.000 A 
ATOM      6  N   UNL     1       2.919   7.809  18.173  0.00  0.00    +0.000 NA
ATOM      7  C   UNL     1       2.900   6.571  18.736  0.00  0.00    +0.000 A 
ATOM      8  C   UNL     1       2.122   6.330  19.885  0.00  0.00    +0.000 A 
ATOM      9  N   UNL     1       1.443   7.321  20.538  0.00  0.00    +0.000 NA
ATOM     10  H   UNL     1       0.294   9.229  21.452  0.00  0.00    +0.000 HD
ENDROOT
BRANCH   7  11
ATOM     11  C   UNL     1       3.725   5.565  18.013  0.00  0.00    +0.000 A 
ATOM     12  C   UNL     1       3.183   4.418  17.414  0.00  0.00    +0.000 A 
ATOM     13  C   UNL     1       3.999   3.587  16.658  0.00  0.00    +0.000 A 
ATOM     14  N   UNL     1       5.323   3.773  16.509  0.00  0.00    +0.000 NA
ATOM     15  C   UNL     1       5.854   4.836  17.145  0.00  0.00    +0.000 A 
ATOM     16  C   UNL     1       5.111   5.738  17.893  0.00  0.00    +0.000 A 
ENDBRANCH   7  11
BRANCH   8  17
ATOM     17  C   UNL     1       1.835   5.014  20.438  0.00  0.00    +0.000 A 
ATOM     18  C   UNL     1       0.896   4.037  20.172  0.00  0.00    +0.000 A 
ATOM     19  C   UNL     1       1.153   2.973  21.072  0.00  0.00    +0.000 A 
ATOM     20  C   UNL     1       2.256   3.346  21.803  0.00  0.00    +0.000 A 
ATOM     21  O   UNL     1       2.689   4.567  21.408  0.00  0.00    +0.000 OA
ENDBRANCH   8  17
BRANCH   1  23
ATOM     22  C   UNL     1      -0.076  12.138  21.422  0.00  0.00    +0.000 C 
ATOM     23  C   UNL     1      -1.049  11.269  20.628  0.00  0.00    +0.000 C 
ATOM     24  C   UNL     1      -1.953  12.140  19.759  0.00  0.00    +0.000 C 
ENDBRANCH   1  23
TORSDOF 3
ENDMDL
MODEL 2
REMARK VINA RESULT:      -7.1      0.824      1.402
REMARK  Name = 
REMARK  5 active torsions:
REMARK  status: ('A' for Active; 'I' for Inactive)
REMARK    1  A    between atoms: C_1  and  C_2
REMARK    2  A    between atoms: C_2  and  C_3
REMARK    3  A    between atoms: C_2  and  C_4
REMARK    4  A    between atoms: C_10  and  C_11
REMARK    5  A    between atoms: C_17  and  C_18
REMARK                            x       y       z     vdW  Elec       q    Type
REMARK                         _______ _______ _______ _____ _____    ______ ____
ROOT
ATOM      1  C   UNL     1      -0.155  10.444  20.637  0.00  0.00    +0.000 C 
ATOM      2  O   UNL     1      -0.456  10.501  19.449  0.00  0.00    +0.000 OA
ATOM      3  N   UNL     1       0.755   9.551  21.166  0.00  0.00    +0.000 N 
ATOM      4  C   UNL     1       1.425   8.619  20.367  0.00  0.00    +0.000 A 
ATOM      5  C   UNL     1       1.960   8.932  19.120  0.00  0.00    +0.000 A 
ATOM      6  N   UNL     1       2.600   8.020  18.344  0.00  0.00    +0.000 NA
ATOM      7  C   UNL     1       2.624   6.741  18.806  0.00  0.00    +0.000 A 
ATOM      8  C   UNL     1       2.036   6.428  20.047  0.00  0.00    +0.000 A 
ATOM      9  N   UNL     1       1.515   7.381  20.878  0.00  0.00    +0.000 NA
ATOM     10  H   UNL     1       0.612   9.237  22.114  0.00  0.00    +0.000 HD
ENDROOT
BRANCH   7  11
ATOM     11  C   UNL     1       3.277   5.775  17.881  0.00  0.00    +0.000 A 
ATOM     12  C   UNL     1       4.446   6.072  17.164  0.00  0.00    +0.000 A 
ATOM     13  C   UNL     1       5.061   5.080  16.411  0.00  0.00    +0.000 A 
ATOM     14  N   UNL     1       4.565   3.838  16.263  0.00  0.00    +0.000 NA
ATOM     15  C   UNL     1       3.403   3.578  16.894  0.00  0.00    +0.000 A 
ATOM     16  C   UNL     1       2.737   4.494  17.694  0.00  0.00    +0.000 A 
ENDBRANCH   7  11
BRANCH   8  17
ATOM     17  C   UNL     1       1.791   5.079  20.538  0.00  0.00    +0.000 A 
ATOM     18  C   UNL     1       0.785   4.151  20.354  0.00  0.00    +0.000 A 
ATOM     19  C   UNL     1       1.141   3.012  21.118  0.00  0.00    +0.000 A 
ATOM     20  C   UNL     1       2.359   3.297  21.688  0.00  0.00    +0.000 A 
ATOM     21  O   UNL     1       2.770   4.534  21.322  0.00  0.00    +0.000 OA
ENDBRANCH   8  17
BRANCH   1  23
ATOM     22  C   UNL     1      -2.027  12.008  21.108  0.00  0.00    +0.000 C 
ATOM     23  C   UNL     1      -0.764  11.375  21.686  0.00  0.00    +0.000 C 
ATOM     24  C   UNL     1      -1.089  10.616  22.971  0.00  0.00    +0.000 C 
ENDBRANCH   1  23
TORSDOF 3
ENDMDL
MODEL 3
REMARK VINA RESULT:      -7.1      0.699      1.310
REMARK  Name = 
REMARK  5 active torsions:
REMARK  status: ('A' for Active; 'I' for Inactive)
REMARK    1  A    between atoms: C_1  and  C_2
REMARK    2  A    between atoms: C_2  and  C_3
REMARK    3  A    between atoms: C_2  and  C_4
REMARK    4  A    between atoms: C_10  and  C_11
REMARK    5  A    between atoms: C_17  and  C_18
REMARK                            x       y       z     vdW  Elec       q    Type
REMARK                         _______ _______ _______ _____ _____    ______ ____
ROOT
ATOM      1  C   UNL     1      -0.309  10.321  19.784  0.00  0.00    +0.000 C 
ATOM      2  O   UNL     1      -0.495  10.241  18.575  0.00  0.00    +0.000 OA
ATOM      3  N   UNL     1       0.606   9.559  20.482  0.00  0.00    +0.000 N 
ATOM      4  C   UNL     1       1.416   8.613  19.846  0.00  0.00    +0.000 A 
ATOM      5  C   UNL     1       2.047   8.848  18.628  0.00  0.00    +0.000 A 
ATOM      6  N   UNL     1       2.824   7.921  18.010  0.00  0.00    +0.000 NA
ATOM      7  C   UNL     1       2.893   6.698  18.601  0.00  0.00    +0.000 A 
ATOM      8  C   UNL     1       2.211   6.458  19.809  0.00  0.00    +0.000 A 
ATOM      9  N   UNL     1       1.544   7.440  20.487  0.00  0.00    +0.000 NA
ATOM     10  H   UNL     1       0.393   9.327  21.440  0.00  0.00    +0.000 HD
ENDROOT
BRANCH   7  11
ATOM     11  C   UNL     1       3.701   5.705  17.842  0.00  0.00    +0.000 A 
ATOM     12  C   UNL     1       5.036   5.926  17.471  0.00  0.00    +0.000 A 
ATOM     13  C   UNL     1       5.760   4.906  16.867  0.00  0.00    +0.000 A 
ATOM     14  N   UNL     1       5.238   3.709  16.545  0.00  0.00    +0.000 NA
ATOM     15  C   UNL     1       3.936   3.524  16.838  0.00  0.00    +0.000 A 
ATOM     16  C   UNL     1       3.145   4.472  17.471  0.00  0.00    +0.000 A 
ENDBRANCH   7  11
BRANCH   8  17
ATOM     17  C   UNL     1       2.015   5.147  20.411  0.00  0.00    +0.000 A 
ATOM     18  C   UNL     1       2.654   4.435  21.407  0.00  0.00    +0.000 A 
ATOM     19  C   UNL     1       1.968   3.201  21.527  0.00  0.00    +0.000 A 
ATOM     20  C   UNL     1       0.928   3.250  20.628  0.00  0.00    +0.000 A 
ATOM     21  O   UNL     1       0.936   4.433  19.968  0.00  0.00    +0.000 OA
ENDBRANCH   8  17
BRANCH   1  23
ATOM     22  C   UNL     1      -0.589  11.150  22.110  0.00  0.00    +0.000 C 
ATOM     23  C   UNL     1      -1.083  11.296  20.672  0.00  0.00    +0.000 C 
ATOM     24  C   UNL     1      -0.904  12.735  20.193  0.00  0.00    +0.000 C 
ENDBRANCH   1  23
TORSDOF 3
ENDMDL
MODEL 4
REMARK VINA RESULT:      -7.0      1.751      2.075
REMARK  Name = 
REMARK  5 active torsions:
REMARK  status: ('A' for Active; 'I' for Inactive)
REMARK    1  A    between atoms: C_1  and  C_2
REMARK    2  A    between atoms: C_2  and  C_3
REMARK    3  A    between atoms: C_2  and  C_4
REMARK    4  A    between atoms: C_10  and  C_11
REMARK    5  A    between atoms: C_17  and  C_18
REMARK                            x       y       z     vdW  Elec       q    Type
REMARK                         _______ _______ _______ _____ _____    ______ ____
ROOT
ATOM      1  C   UNL     1       0.513   9.442  19.005  0.00  0.00    +0.000 C 
ATOM      2  O   UNL     1       0.651   9.774  17.832  0.00  0.00    +0.000 OA
ATOM      3  N   UNL     1       1.270   8.473  19.632  0.00  0.00    +0.000 N 
ATOM      4  C   UNL     1       2.282   7.779  18.962  0.00  0.00    +0.000 A 
ATOM      5  C   UNL     1       3.188   8.396  18.103  0.00  0.00    +0.000 A 
ATOM      6  N   UNL     1       4.162   7.715  17.446  0.00  0.00    +0.000 NA
ATOM      7  C   UNL     1       4.165   6.363  17.601  0.00  0.00    +0.000 A 
ATOM      8  C   UNL     1       3.213   5.746  18.435  0.00  0.00    +0.000 A 
ATOM      9  N   UNL     1       2.325   6.457  19.193  0.00  0.00    +0.000 NA
ATOM     10  H   UNL     1       0.835   7.938  20.368  0.00  0.00    +0.000 HD
ENDROOT
BRANCH   7  11
ATOM     11  C   UNL     1       5.210   5.666  16.803  0.00  0.00    +0.000 A 
ATOM     12  C   UNL     1       5.165   5.562  15.405  0.00  0.00    +0.000 A 
ATOM     13  C   UNL     1       6.235   4.999  14.722  0.00  0.00    +0.000 A 
ATOM     14  N   UNL     1       7.314   4.471  15.328  0.00  0.00    +0.000 NA
ATOM     15  C   UNL     1       7.322   4.508  16.675  0.00  0.00    +0.000 A 
ATOM     16  C   UNL     1       6.315   5.080  17.438  0.00  0.00    +0.000 A 
ENDBRANCH   7  11
BRANCH   8  17
ATOM     17  C   UNL     1       2.964   4.313  18.499  0.00  0.00    +0.000 A 
ATOM     18  C   UNL     1       2.164   3.437  17.793  0.00  0.00    +0.000 A 
ATOM     19  C   UNL     1       2.378   2.152  18.351  0.00  0.00    +0.000 A 
ATOM     20  C   UNL     1       3.324   2.314  19.335  0.00  0.00    +0.000 A 
ATOM     21  O   UNL     1       3.702   3.612  19.413  0.00  0.00    +0.000 OA
ENDBRANCH   8  17
BRANCH   1  23
ATOM     22  C   UNL     1       0.171  10.622  21.164  0.00  0.00    +0.000 C 
ATOM     23  C   UNL     1      -0.531  10.078  19.922  0.00  0.00    +0.000 C 
ATOM     24  C   UNL     1      -1.285  11.195  19.204  0.00  0.00    +0.000 C 
ENDBRANCH   1  23
TORSDOF 3
ENDMDL
MODEL 5
REMARK VINA RESULT:      -7.0      2.241      6.707
REMARK  Name = 
REMARK  5 active torsions:
REMARK  status: ('A' for Active; 'I' for Inactive)
REMARK    1  A    between atoms: C_1  and  C_2
REMARK    2  A    between atoms: C_2  and  C_3
REMARK    3  A    between atoms: C_2  and  C_4
REMARK    4  A    between atoms: C_10  and  C_11
REMARK    5  A    between atoms: C_17  and  C_18
REMARK                            x       y       z     vdW  Elec       q    Type
REMARK                         _______ _______ _______ _____ _____    ______ ____
ROOT
ATOM      1  C   UNL     1       6.365   5.412  15.624  0.00  0.00    +0.000 C 
ATOM      2  O   UNL     1       6.925   6.360  16.166  0.00  0.00    +0.000 OA
ATOM      3  N   UNL     1       5.052   5.054  15.851  0.00  0.00    +0.000 N 
ATOM      4  C   UNL     1       4.235   5.762  16.738  0.00  0.00    +0.000 A 
ATOM      5  C   UNL     1       4.210   7.153  16.802  0.00  0.00    +0.000 A 
ATOM      6  N   UNL     1       3.423   7.836  17.673  0.00  0.00    +0.000 NA
ATOM      7  C   UNL     1       2.708   7.088  18.557  0.00  0.00    +0.000 A 
ATOM      8  C   UNL     1       2.779   5.683  18.513  0.00  0.00    +0.000 A 
ATOM      9  N   UNL     1       3.470   5.009  17.544  0.00  0.00    +0.000 NA
ATOM     10  H   UNL     1       4.810   4.077  15.775  0.00  0.00    +0.000 HD
ENDROOT
BRANCH   7  11
ATOM     11  C   UNL     1       1.920   7.892  19.530  0.00  0.00    +0.000 A 
ATOM     12  C   UNL     1       1.765   7.529  20.877  0.00  0.00    +0.000 A 
ATOM     13  C   UNL     1       1.113   8.389  21.751  0.00  0.00    +0.000 A 
ATOM     14  N   UNL     1       0.547   9.550  21.374  0.00  0.00    +0.000 NA
ATOM     15  C   UNL     1       0.635   9.862  20.066  0.00  0.00    +0.000 A 
ATOM     16  C   UNL     1       1.295   9.082  19.128  0.00  0.00    +0.000 A 
ENDBRANCH   7  11
BRANCH   8  17
ATOM     17  C   UNL     1       2.256   4.788  19.535  0.00  0.00    +0.000 A 
ATOM     18  C   UNL     1       1.082   4.077  19.689  0.00  0.00    +0.000 A 
ATOM     19  C   UNL     1       1.188   3.382  20.920  0.00  0.00    +0.000 A 
ATOM     20  C   UNL     1       2.433   3.678  21.422  0.00  0.00    +0.000 A 
ATOM     21  O   UNL     1       3.094   4.506  20.578  0.00  0.00    +0.000 OA
ENDBRANCH   8  17
BRANCH   1  23
ATOM     22  C   UNL     1       6.028   3.632  13.925  0.00  0.00    +0.000 C 
ATOM     23  C   UNL     1       7.071   4.508  14.614  0.00  0.00    +0.000 C 
ATOM     24  C   UNL     1       7.839   5.331  13.583  0.00  0.00    +0.000 C 
ENDBRANCH   1  23
TORSDOF 3
ENDMDL
MODEL 6
REMARK VINA RESULT:      -7.0      0.721      1.155
REMARK  Name = 
REMARK  5 active torsions:
REMARK  status: ('A' for Active; 'I' for Inactive)
REMARK    1  A    between atoms: C_1  and  C_2
REMARK    2  A    between atoms: C_2  and  C_3
REMARK    3  A    between atoms: C_2  and  C_4
REMARK    4  A    between atoms: C_10  and  C_11
REMARK    5  A    between atoms: C_17  and  C_18
REMARK                            x       y       z     vdW  Elec       q    Type
REMARK                         _______ _______ _______ _____ _____    ______ ____
ROOT
ATOM      1  C   UNL     1      -0.004  10.445  19.390  0.00  0.00    +0.000 C 
ATOM      2  O   UNL     1      -0.146  10.329  18.178  0.00  0.00    +0.000 OA
ATOM      3  N   UNL     1       0.848   9.668  20.150  0.00  0.00    +0.000 N 
ATOM      4  C   UNL     1       1.638   8.665  19.579  0.00  0.00    +0.000 A 
ATOM      5  C   UNL     1       2.326   8.829  18.380  0.00  0.00    +0.000 A 
ATOM      6  N   UNL     1       3.083   7.847  17.826  0.00  0.00    +0.000 NA
ATOM      7  C   UNL     1       3.074   6.644  18.460  0.00  0.00    +0.000 A 
ATOM      8  C   UNL     1       2.335   6.477  19.647  0.00  0.00    +0.000 A 
ATOM      9  N   UNL     1       1.687   7.511  20.265  0.00  0.00    +0.000 NA
ATOM     10  H   UNL     1       0.588   9.480  21.106  0.00  0.00    +0.000 HD
ENDROOT
BRANCH   7  11
ATOM     11  C   UNL     1       3.864   5.589  17.769  0.00  0.00    +0.000 A 
ATOM     12  C   UNL     1       3.334   4.337  17.423  0.00  0.00    +0.000 A 
ATOM     13  C   UNL     1       4.097   3.449  16.677  0.00  0.00    +0.000 A 
ATOM     14  N   UNL     1       5.369   3.685  16.305  0.00  0.00    +0.000 NA
ATOM     15  C   UNL     1       5.900   4.860  16.700  0.00  0.00    +0.000 A 
ATOM     16  C   UNL     1       5.202   5.820  17.417  0.00  0.00    +0.000 A 
ENDBRANCH   7  11
BRANCH   8  17
ATOM     17  C   UNL     1       2.056   5.198  20.285  0.00  0.00    +0.000 A 
ATOM     18  C   UNL     1       2.580   4.524  21.370  0.00  0.00    +0.000 A 
ATOM     19  C   UNL     1       1.863   3.307  21.476  0.00  0.00    +0.000 A 
ATOM     20  C   UNL     1       0.918   3.329  20.477  0.00  0.00    +0.000 A 
ATOM     21  O   UNL     1       1.013   4.480  19.769  0.00  0.00    +0.000 OA
ENDBRANCH   8  17
BRANCH   1  23
ATOM     22  C   UNL     1      -2.124  11.728  19.561  0.00  0.00    +0.000 C 
ATOM     23  C   UNL     1      -0.766  11.483  20.213  0.00  0.00    +0.000 C 
ATOM     24  C   UNL     1      -0.945  11.016  21.656  0.00  0.00    +0.000 C 
ENDBRANCH   1  23
TORSDOF 3
ENDMDL
MODEL 7
REMARK VINA RESULT:      -6.9      2.656      7.108
REMARK  Name = 
REMARK  5 active torsions:
REMARK  status: ('A' for Active; 'I' for Inactive)
REMARK    1  A    between atoms: C_1  and  C_2
REMARK    2  A    between atoms: C_2  and  C_3
REMARK    3  A    between atoms: C_2  and  C_4
REMARK    4  A    between atoms: C_10  and  C_11
REMARK    5  A    between atoms: C_17  and  C_18
REMARK                            x       y       z     vdW  Elec       q    Type
REMARK                         _______ _______ _______ _____ _____    ______ ____
ROOT
ATOM      1  C   UNL     1       4.763   5.941  18.060  0.00  0.00    +0.000 C 
ATOM      2  O   UNL     1       5.391   6.911  17.650  0.00  0.00    +0.000 OA
ATOM      3  N   UNL     1       3.460   5.994  18.513  0.00  0.00    +0.000 N 
ATOM      4  C   UNL     1       2.736   7.190  18.538  0.00  0.00    +0.000 A 
ATOM      5  C   UNL     1       2.758   8.114  17.497  0.00  0.00    +0.000 A 
ATOM      6  N   UNL     1       2.061   9.279  17.530  0.00  0.00    +0.000 NA
ATOM      7  C   UNL     1       1.392   9.551  18.684  0.00  0.00    +0.000 A 
ATOM      8  C   UNL     1       1.417   8.630  19.748  0.00  0.00    +0.000 A 
ATOM      9  N   UNL     1       2.011   7.402  19.648  0.00  0.00    +0.000 NA
ATOM     10  H   UNL     1       3.184   5.342  19.231  0.00  0.00    +0.000 HD
ENDROOT
BRANCH   7  11
ATOM     11  C   UNL     1       0.705  10.871  18.687  0.00  0.00    +0.000 A 
ATOM     12  C   UNL     1       1.385  12.088  18.845  0.00  0.00    +0.000 A 
ATOM     13  C   UNL     1       0.691  13.285  18.721  0.00  0.00    +0.000 A 
ATOM     14  N   UNL     1      -0.637  13.362  18.519  0.00  0.00    +0.000 NA
ATOM     15  C   UNL     1      -1.299  12.190  18.440  0.00  0.00    +0.000 A 
ATOM     16  C   UNL     1      -0.685  10.949  18.518  0.00  0.00    +0.000 A 
ENDBRANCH   7  11
BRANCH   8  17
ATOM     17  C   UNL     1       0.945   8.901  21.099  0.00  0.00    +0.000 A 
ATOM     18  C   UNL     1       1.544   9.345  22.261  0.00  0.00    +0.000 A 
ATOM     19  C   UNL     1       0.525   9.404  23.245  0.00  0.00    +0.000 A 
ATOM     20  C   UNL     1      -0.639   9.032  22.614  0.00  0.00    +0.000 A 
ATOM     21  O   UNL     1      -0.397   8.752  21.311  0.00  0.00    +0.000 OA
ENDBRANCH   8  17
BRANCH   1  23
ATOM     22  C   UNL     1       4.421   3.572  17.396  0.00  0.00    +0.000 C 
ATOM     23  C   UNL     1       5.362   4.536  18.114  0.00  0.00    +0.000 C 
ATOM     24  C   UNL     1       6.747   4.505  17.471  0.00  0.00    +0.000 C 
ENDBRANCH   1  23
TORSDOF 3
ENDMDL
MODEL 8
REMARK VINA RESULT:      -6.8      2.009      2.522
REMARK  Name = 
REMARK  5 active torsions:
REMARK  status: ('A' for Active; 'I' for Inactive)
REMARK    1  A    between atoms: C_1  and  C_2
REMARK    2  A    between atoms: C_2  and  C_3
REMARK    3  A    between atoms: C_2  and  C_4
REMARK    4  A    between atoms: C_10  and  C_11
REMARK    5  A    between atoms: C_17  and  C_18
REMARK                            x       y       z     vdW  Elec       q    Type
REMARK                         _______ _______ _______ _____ _____    ______ ____
ROOT
ATOM      1  C   UNL     1       0.934   9.272  19.052  0.00  0.00    +0.000 C 
ATOM      2  O   UNL     1       0.901   9.586  17.867  0.00  0.00    +0.000 OA
ATOM      3  N   UNL     1       1.758   8.294  19.573  0.00  0.00    +0.000 N 
ATOM      4  C   UNL     1       2.643   7.569  18.769  0.00  0.00    +0.000 A 
ATOM      5  C   UNL     1       3.421   8.155  17.775  0.00  0.00    +0.000 A 
ATOM      6  N   UNL     1       4.271   7.444  16.990  0.00  0.00    +0.000 NA
ATOM      7  C   UNL     1       4.269   6.095  17.163  0.00  0.00    +0.000 A 
ATOM      8  C   UNL     1       3.442   5.509  18.140  0.00  0.00    +0.000 A 
ATOM      9  N   UNL     1       2.693   6.250  19.013  0.00  0.00    +0.000 NA
ATOM     10  H   UNL     1       1.427   7.778  20.375  0.00  0.00    +0.000 HD
ENDROOT
BRANCH   7  11
ATOM     11  C   UNL     1       5.168   5.364  16.228  0.00  0.00    +0.000 A 
ATOM     12  C   UNL     1       4.698   4.638  15.124  0.00  0.00    +0.000 A 
ATOM     13  C   UNL     1       5.604   4.080  14.231  0.00  0.00    +0.000 A 
ATOM     14  N   UNL     1       6.939   4.132  14.390  0.00  0.00    +0.000 NA
ATOM     15  C   UNL     1       7.386   4.769  15.491  0.00  0.00    +0.000 A 
ATOM     16  C   UNL     1       6.557   5.384  16.417  0.00  0.00    +0.000 A 
ENDBRANCH   7  11
BRANCH   8  17
ATOM     17  C   UNL     1       3.176   4.083  18.264  0.00  0.00    +0.000 A 
ATOM     18  C   UNL     1       2.201   3.235  17.779  0.00  0.00    +0.000 A 
ATOM     19  C   UNL     1       2.510   1.941  18.265  0.00  0.00    +0.000 A 
ATOM     20  C   UNL     1       3.676   2.068  18.983  0.00  0.00    +0.000 A 
ATOM     21  O   UNL     1       4.098   3.355  18.966  0.00  0.00    +0.000 OA
ENDBRANCH   8  17
BRANCH   1  23
ATOM     22  C   UNL     1      -1.228  10.434  19.437  0.00  0.00    +0.000 C 
ATOM     23  C   UNL     1       0.054   9.942  20.106  0.00  0.00    +0.000 C 
ATOM     24  C   UNL     1      -0.276   8.975  21.241  0.00  0.00    +0.000 C 
ENDBRANCH   1  23
TORSDOF 3
ENDMDL
MODEL 9
REMARK VINA RESULT:      -6.8      1.607      1.990
REMARK  Name = 
REMARK  5 active torsions:
REMARK  status: ('A' for Active; 'I' for Inactive)
REMARK    1  A    between atoms: C_1  and  C_2
REMARK    2  A    between atoms: C_2  and  C_3
REMARK    3  A    between atoms: C_2  and  C_4
REMARK    4  A    between atoms: C_10  and  C_11
REMARK    5  A    between atoms: C_17  and  C_18
REMARK                            x       y       z     vdW  Elec       q    Type
REMARK                         _______ _______ _______ _____ _____    ______ ____
ROOT
ATOM      1  C   UNL     1       0.412   9.460  18.971  0.00  0.00    +0.000 C 
ATOM      2  O   UNL     1       0.453   9.643  17.759  0.00  0.00    +0.000 OA
ATOM      3  N   UNL     1       1.251   8.604  19.656  0.00  0.00    +0.000 N 
ATOM      4  C   UNL     1       2.240   7.861  19.004  0.00  0.00    +0.000 A 
ATOM      5  C   UNL     1       3.055   8.390  18.008  0.00  0.00    +0.000 A 
ATOM      6  N   UNL     1       4.007   7.661  17.370  0.00  0.00    +0.000 NA
ATOM      7  C   UNL     1       4.075   6.341  17.693  0.00  0.00    +0.000 A 
ATOM      8  C   UNL     1       3.212   5.807  18.669  0.00  0.00    +0.000 A 
ATOM      9  N   UNL     1       2.352   6.582  19.397  0.00  0.00    +0.000 NA
ATOM     10  H   UNL     1       0.891   8.155  20.485  0.00  0.00    +0.000 HD
ENDROOT
BRANCH   7  11
ATOM     11  C   UNL     1       5.088   5.579  16.913  0.00  0.00    +0.000 A 
ATOM     12  C   UNL     1       6.368   5.279  17.405  0.00  0.00    +0.000 A 
ATOM     13  C   UNL     1       7.216   4.465  16.666  0.00  0.00    +0.000 A 
ATOM     14  N   UNL     1       6.914   3.982  15.447  0.00  0.00    +0.000 NA
ATOM     15  C   UNL     1       5.712   4.332  14.945  0.00  0.00    +0.000 A 
ATOM     16  C   UNL     1       4.788   5.111  15.626  0.00  0.00    +0.000 A 
ENDBRANCH   7  11
BRANCH   8  17
ATOM     17  C   UNL     1       3.026   4.387  18.933  0.00  0.00    +0.000 A 
ATOM     18  C   UNL     1       2.131   3.431  18.496  0.00  0.00    +0.000 A 
ATOM     19  C   UNL     1       2.491   2.218  19.133  0.00  0.00    +0.000 A 
ATOM     20  C   UNL     1       3.607   2.496  19.886  0.00  0.00    +0.000 A 
ATOM     21  O   UNL     1       3.951   3.799  19.750  0.00  0.00    +0.000 OA
ENDBRANCH   8  17
BRANCH   1  23
ATOM     22  C   UNL     1       0.045  10.370  21.254  0.00  0.00    +0.000 C 
ATOM     23  C   UNL     1      -0.589  10.176  19.878  0.00  0.00    +0.000 C 
ATOM     24  C   UNL     1      -0.999  11.523  19.287  0.00  0.00    +0.000 C 
ENDBRANCH   1  23
TORSDOF 3
ENDMDL
