MODEL 1
REMARK VINA RESULT:      -7.3      0.000      0.000
REMARK  Name = 
REMARK  6 active torsions:
REMARK  status: ('A' for Active; 'I' for Inactive)
REMARK    1  A    between atoms: C_1  and  O_2
REMARK    2  A    between atoms: O_2  and  C_3
REMARK    3  A    between atoms: C_5  and  O_6
REMARK    4  A    between atoms: O_6  and  C_7
REMARK    5  A    between atoms: C_9  and  C_10
REMARK    6  A    between atoms: C_13  and  C_14
REMARK                            x       y       z     vdW  Elec       q    Type
REMARK                         _______ _______ _______ _____ _____    ______ ____
ROOT
ATOM      1  C   UNL     1       2.032   6.397  20.209  0.00  0.00    +0.000 A 
ATOM      2  C   UNL     1       3.032   6.085  19.360  0.00  0.00    +0.000 A 
ATOM      3  N   UNL     1       3.427   4.759  19.265  0.00  0.00    +0.000 N 
ATOM      4  C   UNL     1       4.365   4.093  18.508  0.00  0.00    +0.000 A 
ATOM      5  C   UNL     1       4.162   2.754  18.802  0.00  0.00    +0.000 A 
ATOM      6  N   UNL     1       3.182   2.584  19.750  0.00  0.00    +0.000 NA
ATOM      7  C   UNL     1       2.769   3.805  20.001  0.00  0.00    +0.000 A 
ATOM      8  C   UNL     1       1.725   4.220  20.894  0.00  0.00    +0.000 A 
ATOM      9  N   UNL     1       1.372   5.472  21.001  0.00  0.00    +0.000 NA
ENDROOT
BRANCH   1  14
ATOM     10  C   UNL     1       0.828   9.595  21.771  0.00  0.00    +0.000 A 
ATOM     11  C   UNL     1       0.806  10.443  20.660  0.00  0.00    +0.000 A 
ATOM     12  C   UNL     1       1.170   9.978  19.393  0.00  0.00    +0.000 A 
ATOM     13  C   UNL     1       1.601   8.660  19.240  0.00  0.00    +0.000 A 
ATOM     14  C   UNL     1       1.628   7.805  20.349  0.00  0.00    +0.000 A 
ATOM     15  C   UNL     1       1.240   8.277  21.611  0.00  0.00    +0.000 A 
BRANCH  10  17
ATOM     16  C   UNL     1      -0.862  10.811  22.917  0.00  0.00    +0.000 C 
ATOM     17  O   UNL     1       0.405  10.164  22.943  0.00  0.00    +0.000 OA
ENDBRANCH  10  17
BRANCH  12  18
ATOM     18  O   UNL     1       1.089  10.901  18.386  0.00  0.00    +0.000 OA
ATOM     19  C   UNL     1       0.885  12.246  18.806  0.00  0.00    +0.000 C 
ENDBRANCH  12  18
ENDBRANCH   1  14
BRANCH   4  20
ATOM     20  C   UNL     1       5.382   4.653  17.573  0.00  0.00    +0.000 A 
ATOM     21  C   UNL     1       6.290   5.717  17.859  0.00  0.00    +0.000 A 
ATOM     22  C   UNL     1       7.116   5.999  16.792  0.00  0.00    +0.000 A 
ATOM     23  S   UNL     1       6.790   4.999  15.445  0.00  0.00    +0.000 S 
ATOM     24  C   UNL     1       5.569   4.157  16.301  0.00  0.00    +0.000 A 
ENDBRANCH   4  20
TORSDOF 4
ENDMDL
MODEL 2
REMARK VINA RESULT:      -7.2      0.660      2.363
REMARK  Name = 
REMARK  6 active torsions:
REMARK  status: ('A' for Active; 'I' for Inactive)
REMARK    1  A    between atoms: C_1  and  O_2
REMARK    2  A    between atoms: O_2  and  C_3
REMARK    3  A    between atoms: C_5  and  O_6
REMARK    4  A    between atoms: O_6  and  C_7
REMARK    5  A    between atoms: C_9  and  C_10
REMARK    6  A    between atoms: C_13  and  C_14
REMARK                            x       y       z     vdW  Elec       q    Type
REMARK                         _______ _______ _______ _____ _____    ______ ____
ROOT
ATOM      1  C   UNL     1       2.091   6.298  20.063  0.00  0.00    +0.000 A 
ATOM      2  C   UNL     1       3.061   5.873  19.227  0.00  0.00    +0.000 A 
ATOM      3  N   UNL     1       3.410   4.531  19.250  0.00  0.00    +0.000 N 
ATOM      4  C   UNL     1       4.307   3.764  18.542  0.00  0.00    +0.000 A 
ATOM      5  C   UNL     1       4.067   2.467  18.965  0.00  0.00    +0.000 A 
ATOM      6  N   UNL     1       3.105   2.420  19.944  0.00  0.00    +0.000 NA
ATOM      7  C   UNL     1       2.738   3.673  20.086  0.00  0.00    +0.000 A 
ATOM      8  C   UNL     1       1.729   4.206  20.957  0.00  0.00    +0.000 A 
ATOM      9  N   UNL     1       1.420   5.474  20.952  0.00  0.00    +0.000 NA
ENDROOT
BRANCH   1  14
ATOM     10  C   UNL     1       1.640   9.843  18.906  0.00  0.00    +0.000 A 
ATOM     11  C   UNL     1       1.136  10.440  20.065  0.00  0.00    +0.000 A 
ATOM     12  C   UNL     1       0.951   9.697  21.234  0.00  0.00    +0.000 A 
ATOM     13  C   UNL     1       1.235   8.331  21.235  0.00  0.00    +0.000 A 
ATOM     14  C   UNL     1       1.738   7.725  20.077  0.00  0.00    +0.000 A 
ATOM     15  C   UNL     1       1.939   8.486  18.916  0.00  0.00    +0.000 A 
BRANCH  10  17
ATOM     16  C   UNL     1       2.273  12.005  18.150  0.00  0.00    +0.000 C 
ATOM     17  O   UNL     1       1.814  10.693  17.846  0.00  0.00    +0.000 OA
ENDBRANCH  10  17
BRANCH  12  18
ATOM     18  O   UNL     1       0.468  10.400  22.304  0.00  0.00    +0.000 OA
ATOM     19  C   UNL     1      -0.398   9.675  23.171  0.00  0.00    +0.000 C 
ENDBRANCH  12  18
ENDBRANCH   1  14
BRANCH   4  20
ATOM     20  C   UNL     1       5.320   4.199  17.538  0.00  0.00    +0.000 A 
ATOM     21  C   UNL     1       6.627   4.696  17.824  0.00  0.00    +0.000 A 
ATOM     22  C   UNL     1       7.332   5.002  16.680  0.00  0.00    +0.000 A 
ATOM     23  S   UNL     1       6.418   4.710  15.265  0.00  0.00    +0.000 S 
ATOM     24  C   UNL     1       5.091   4.132  16.180  0.00  0.00    +0.000 A 
ENDBRANCH   4  20
TORSDOF 4
ENDMDL
MODEL 3
REMARK VINA RESULT:      -6.9      1.021      2.473
REMARK  Name = 
REMARK  6 active torsions:
REMARK  status: ('A' for Active; 'I' for Inactive)
REMARK    1  A    between atoms: C_1  and  O_2
REMARK    2  A    between atoms: O_2  and  C_3
REMARK    3  A    between atoms: C_5  and  O_6
REMARK    4  A    between atoms: O_6  and  C_7
REMARK    5  A    between atoms: C_9  and  C_10
REMARK    6  A    between atoms: C_13  and  C_14
REMARK                            x       y       z     vdW  Elec       q    Type
REMARK                         _______ _______ _______ _____ _____    ______ ____
ROOT
ATOM      1  C   UNL     1       1.806   6.731  20.389  0.00  0.00    +0.000 A 
ATOM      2  C   UNL     1       3.041   6.579  19.867  0.00  0.00    +0.000 A 
ATOM      3  N   UNL     1       3.539   5.295  19.714  0.00  0.00    +0.000 N 
ATOM      4  C   UNL     1       4.710   4.778  19.208  0.00  0.00    +0.000 A 
ATOM      5  C   UNL     1       4.522   3.405  19.227  0.00  0.00    +0.000 A 
ATOM      6  N   UNL     1       3.310   3.065  19.779  0.00  0.00    +0.000 NA
ATOM      7  C   UNL     1       2.755   4.221  20.057  0.00  0.00    +0.000 A 
ATOM      8  C   UNL     1       1.457   4.466  20.621  0.00  0.00    +0.000 A 
ATOM      9  N   UNL     1       1.000   5.676  20.788  0.00  0.00    +0.000 NA
ENDROOT
BRANCH   1  14
ATOM     10  C   UNL     1       0.804  10.281  19.680  0.00  0.00    +0.000 A 
ATOM     11  C   UNL     1       0.345  10.685  20.938  0.00  0.00    +0.000 A 
ATOM     12  C   UNL     1       0.370   9.810  22.027  0.00  0.00    +0.000 A 
ATOM     13  C   UNL     1       0.821   8.502  21.851  0.00  0.00    +0.000 A 
ATOM     14  C   UNL     1       1.279   8.089  20.593  0.00  0.00    +0.000 A 
ATOM     15  C   UNL     1       1.270   8.983  19.513  0.00  0.00    +0.000 A 
BRANCH  10  17
ATOM     16  C   UNL     1       1.735  12.286  18.808  0.00  0.00    +0.000 C 
ATOM     17  O   UNL     1       0.765  11.249  18.711  0.00  0.00    +0.000 OA
ENDBRANCH  10  17
BRANCH  12  18
ATOM     18  O   UNL     1      -0.090  10.331  23.206  0.00  0.00    +0.000 OA
ATOM     19  C   UNL     1      -1.236  11.169  23.097  0.00  0.00    +0.000 C 
ENDBRANCH  12  18
ENDBRANCH   1  14
BRANCH   4  20
ATOM     20  C   UNL     1       5.925   5.502  18.737  0.00  0.00    +0.000 A 
ATOM     21  C   UNL     1       7.171   5.592  19.427  0.00  0.00    +0.000 A 
ATOM     22  C   UNL     1       8.106   6.321  18.726  0.00  0.00    +0.000 A 
ATOM     23  S   UNL     1       7.483   6.914  17.248  0.00  0.00    +0.000 S 
ATOM     24  C   UNL     1       5.971   6.157  17.524  0.00  0.00    +0.000 A 
ENDBRANCH   4  20
TORSDOF 4
ENDMDL
MODEL 4
REMARK VINA RESULT:      -6.8      4.516      6.586
REMARK  Name = 
REMARK  6 active torsions:
REMARK  status: ('A' for Active; 'I' for Inactive)
REMARK    1  A    between atoms: C_1  and  O_2
REMARK    2  A    between atoms: O_2  and  C_3
REMARK    3  A    between atoms: C_5  and  O_6
REMARK    4  A    between atoms: O_6  and  C_7
REMARK    5  A    between atoms: C_9  and  C_10
REMARK    6  A    between atoms: C_13  and  C_14
REMARK                            x       y       z     vdW  Elec       q    Type
REMARK                         _______ _______ _______ _____ _____    ______ ____
ROOT
ATOM      1  C   UNL     1      -1.632  10.836  19.296  0.00  0.00    +0.000 A 
ATOM      2  C   UNL     1      -0.708   9.854  19.337  0.00  0.00    +0.000 A 
ATOM      3  N   UNL     1       0.104   9.760  20.456  0.00  0.00    +0.000 N 
ATOM      4  C   UNL     1       1.105   8.896  20.840  0.00  0.00    +0.000 A 
ATOM      5  C   UNL     1       1.419   9.280  22.134  0.00  0.00    +0.000 A 
ATOM      6  N   UNL     1       0.695  10.378  22.529  0.00  0.00    +0.000 NA
ATOM      7  C   UNL     1      -0.077  10.634  21.499  0.00  0.00    +0.000 A 
ATOM      8  C   UNL     1      -1.072  11.662  21.372  0.00  0.00    +0.000 A 
ATOM      9  N   UNL     1      -1.819  11.765  20.307  0.00  0.00    +0.000 NA
ENDROOT
BRANCH   1  14
ATOM     10  C   UNL     1      -4.581  11.663  17.121  0.00  0.00    +0.000 A 
ATOM     11  C   UNL     1      -4.132  11.207  15.878  0.00  0.00    +0.000 A 
ATOM     12  C   UNL     1      -2.873  10.616  15.741  0.00  0.00    +0.000 A 
ATOM     13  C   UNL     1      -2.034  10.516  16.851  0.00  0.00    +0.000 A 
ATOM     14  C   UNL     1      -2.475  10.973  18.099  0.00  0.00    +0.000 A 
ATOM     15  C   UNL     1      -3.750  11.544  18.228  0.00  0.00    +0.000 A 
BRANCH  10  17
ATOM     16  C   UNL     1      -6.748  11.660  18.098  0.00  0.00    +0.000 C 
ATOM     17  O   UNL     1      -5.850  12.181  17.124  0.00  0.00    +0.000 OA
ENDBRANCH  10  17
BRANCH  12  18
ATOM     18  O   UNL     1      -2.558  10.196  14.477  0.00  0.00    +0.000 OA
ATOM     19  C   UNL     1      -3.670   9.924  13.630  0.00  0.00    +0.000 C 
ENDBRANCH  12  18
ENDBRANCH   1  14
BRANCH   4  20
ATOM     20  C   UNL     1       1.731   7.786  20.066  0.00  0.00    +0.000 A 
ATOM     21  C   UNL     1       2.314   7.891  18.768  0.00  0.00    +0.000 A 
ATOM     22  C   UNL     1       2.822   6.689  18.324  0.00  0.00    +0.000 A 
ATOM     23  S   UNL     1       2.582   5.432  19.457  0.00  0.00    +0.000 S 
ATOM     24  C   UNL     1       1.835   6.504  20.564  0.00  0.00    +0.000 A 
ENDBRANCH   4  20
TORSDOF 4
ENDMDL
MODEL 5
REMARK VINA RESULT:      -6.8      4.412      6.742
REMARK  Name = 
REMARK  6 active torsions:
REMARK  status: ('A' for Active; 'I' for Inactive)
REMARK    1  A    between atoms: C_1  and  O_2
REMARK    2  A    between atoms: O_2  and  C_3
REMARK    3  A    between atoms: C_5  and  O_6
REMARK    4  A    between atoms: O_6  and  C_7
REMARK    5  A    between atoms: C_9  and  C_10
REMARK    6  A    between atoms: C_13  and  C_14
REMARK                            x       y       z     vdW  Elec       q    Type
REMARK                         _______ _______ _______ _____ _____    ______ ____
ROOT
ATOM      1  C   UNL     1      -1.563  10.705  19.326  0.00  0.00    +0.000 A 
ATOM      2  C   UNL     1      -0.672   9.693  19.372  0.00  0.00    +0.000 A 
ATOM      3  N   UNL     1       0.168   9.605  20.472  0.00  0.00    +0.000 N 
ATOM      4  C   UNL     1       1.149   8.719  20.857  0.00  0.00    +0.000 A 
ATOM      5  C   UNL     1       1.512   9.132  22.129  0.00  0.00    +0.000 A 
ATOM      6  N   UNL     1       0.836  10.267  22.508  0.00  0.00    +0.000 NA
ATOM      7  C   UNL     1       0.045  10.517  21.491  0.00  0.00    +0.000 A 
ATOM      8  C   UNL     1      -0.918  11.574  21.358  0.00  0.00    +0.000 A 
ATOM      9  N   UNL     1      -1.690  11.670  20.311  0.00  0.00    +0.000 NA
ENDROOT
BRANCH   1  14
ATOM     10  C   UNL     1      -2.790  10.433  15.785  0.00  0.00    +0.000 A 
ATOM     11  C   UNL     1      -4.017  11.096  15.876  0.00  0.00    +0.000 A 
ATOM     12  C   UNL     1      -4.448  11.647  17.086  0.00  0.00    +0.000 A 
ATOM     13  C   UNL     1      -3.664  11.499  18.230  0.00  0.00    +0.000 A 
ATOM     14  C   UNL     1      -2.434  10.833  18.148  0.00  0.00    +0.000 A 
ATOM     15  C   UNL     1      -2.002  10.304  16.923  0.00  0.00    +0.000 A 
BRANCH  10  17
ATOM     16  C   UNL     1      -3.519   9.954  13.575  0.00  0.00    +0.000 C 
ATOM     17  O   UNL     1      -2.468   9.980  14.533  0.00  0.00    +0.000 OA
ENDBRANCH  10  17
BRANCH  12  18
ATOM     18  O   UNL     1      -5.658  12.284  17.040  0.00  0.00    +0.000 OA
ATOM     19  C   UNL     1      -6.668  11.740  17.885  0.00  0.00    +0.000 C 
ENDBRANCH  12  18
ENDBRANCH   1  14
BRANCH   4  20
ATOM     20  C   UNL     1       1.716   7.565  20.102  0.00  0.00    +0.000 A 
ATOM     21  C   UNL     1       1.689   6.198  20.512  0.00  0.00    +0.000 A 
ATOM     22  C   UNL     1       2.285   5.365  19.590  0.00  0.00    +0.000 A 
ATOM     23  S   UNL     1       2.892   6.225  18.243  0.00  0.00    +0.000 S 
ATOM     24  C   UNL     1       2.320   7.712  18.871  0.00  0.00    +0.000 A 
ENDBRANCH   4  20
TORSDOF 4
ENDMDL
MODEL 6
REMARK VINA RESULT:      -6.7      3.581      7.095
REMARK  Name = 
REMARK  6 active torsions:
REMARK  status: ('A' for Active; 'I' for Inactive)
REMARK    1  A    between atoms: C_1  and  O_2
REMARK    2  A    between atoms: O_2  and  C_3
REMARK    3  A    between atoms: C_5  and  O_6
REMARK    4  A    between atoms: O_6  and  C_7
REMARK    5  A    between atoms: C_9  and  C_10
REMARK    6  A    between atoms: C_13  and  C_14
REMARK                            x       y       z     vdW  Elec       q    Type
REMARK                         _______ _______ _______ _____ _____    ______ ____
ROOT
ATOM      1  C   UNL     1       4.172   3.859  17.613  0.00  0.00    +0.000 A 
ATOM      2  C   UNL     1       3.518   4.800  18.324  0.00  0.00    +0.000 A 
ATOM      3  N   UNL     1       2.510   4.394  19.186  0.00  0.00    +0.000 N 
ATOM      4  C   UNL     1       1.677   5.054  20.060  0.00  0.00    +0.000 A 
ATOM      5  C   UNL     1       0.988   4.045  20.715  0.00  0.00    +0.000 A 
ATOM      6  N   UNL     1       1.325   2.804  20.232  0.00  0.00    +0.000 NA
ATOM      7  C   UNL     1       2.235   3.055  19.321  0.00  0.00    +0.000 A 
ATOM      8  C   UNL     1       2.965   2.117  18.516  0.00  0.00    +0.000 A 
ATOM      9  N   UNL     1       3.896   2.503  17.687  0.00  0.00    +0.000 NA
ENDROOT
BRANCH   1  14
ATOM     10  C   UNL     1       7.039   5.780  16.130  0.00  0.00    +0.000 A 
ATOM     11  C   UNL     1       7.173   5.146  14.891  0.00  0.00    +0.000 A 
ATOM     12  C   UNL     1       6.324   4.098  14.525  0.00  0.00    +0.000 A 
ATOM     13  C   UNL     1       5.355   3.649  15.422  0.00  0.00    +0.000 A 
ATOM     14  C   UNL     1       5.216   4.278  16.666  0.00  0.00    +0.000 A 
ATOM     15  C   UNL     1       6.060   5.343  17.014  0.00  0.00    +0.000 A 
BRANCH  10  17
ATOM     16  C   UNL     1       7.656   7.631  17.487  0.00  0.00    +0.000 C 
ATOM     17  O   UNL     1       7.905   6.820  16.344  0.00  0.00    +0.000 OA
ENDBRANCH  10  17
BRANCH  12  18
ATOM     18  O   UNL     1       6.546   3.573  13.281  0.00  0.00    +0.000 OA
ATOM     19  C   UNL     1       5.391   3.439  12.459  0.00  0.00    +0.000 C 
ENDBRANCH  12  18
ENDBRANCH   1  14
BRANCH   4  20
ATOM     20  C   UNL     1       1.524   6.521  20.280  0.00  0.00    +0.000 A 
ATOM     21  C   UNL     1       0.956   7.143  21.432  0.00  0.00    +0.000 A 
ATOM     22  C   UNL     1       0.968   8.518  21.342  0.00  0.00    +0.000 A 
ATOM     23  S   UNL     1       1.643   9.061  19.868  0.00  0.00    +0.000 S 
ATOM     24  C   UNL     1       1.961   7.455  19.365  0.00  0.00    +0.000 A 
ENDBRANCH   4  20
TORSDOF 4
ENDMDL
MODEL 7
REMARK VINA RESULT:      -6.7      0.853      1.100
REMARK  Name = 
REMARK  6 active torsions:
REMARK  status: ('A' for Active; 'I' for Inactive)
REMARK    1  A    between atoms: C_1  and  O_2
REMARK    2  A    between atoms: O_2  and  C_3
REMARK    3  A    between atoms: C_5  and  O_6
REMARK    4  A    between atoms: O_6  and  C_7
REMARK    5  A    between atoms: C_9  and  C_10
REMARK    6  A    between atoms: C_13  and  C_14
REMARK                            x       y       z     vdW  Elec       q    Type
REMARK                         _______ _______ _______ _____ _____    ______ ____
ROOT
ATOM      1  C   UNL     1       2.191   6.151  20.149  0.00  0.00    +0.000 A 
ATOM      2  C   UNL     1       3.062   5.771  19.192  0.00  0.00    +0.000 A 
ATOM      3  N   UNL     1       3.517   4.461  19.197  0.00  0.00    +0.000 N 
ATOM      4  C   UNL     1       4.363   3.740  18.384  0.00  0.00    +0.000 A 
ATOM      5  C   UNL     1       4.292   2.444  18.870  0.00  0.00    +0.000 A 
ATOM      6  N   UNL     1       3.486   2.360  19.980  0.00  0.00    +0.000 NA
ATOM      7  C   UNL     1       3.044   3.585  20.143  0.00  0.00    +0.000 A 
ATOM      8  C   UNL     1       2.131   4.072  21.139  0.00  0.00    +0.000 A 
ATOM      9  N   UNL     1       1.722   5.311  21.147  0.00  0.00    +0.000 NA
ENDROOT
BRANCH   1  14
ATOM     10  C   UNL     1       1.031   9.466  21.482  0.00  0.00    +0.000 A 
ATOM     11  C   UNL     1       0.803  10.166  20.293  0.00  0.00    +0.000 A 
ATOM     12  C   UNL     1       1.013   9.561  19.051  0.00  0.00    +0.000 A 
ATOM     13  C   UNL     1       1.495   8.254  18.993  0.00  0.00    +0.000 A 
ATOM     14  C   UNL     1       1.729   7.546  20.179  0.00  0.00    +0.000 A 
ATOM     15  C   UNL     1       1.494   8.157  21.420  0.00  0.00    +0.000 A 
BRANCH  10  17
ATOM     16  C   UNL     1      -0.225   9.585  23.496  0.00  0.00    +0.000 C 
ATOM     17  O   UNL     1       0.745  10.161  22.628  0.00  0.00    +0.000 OA
ENDBRANCH  10  17
BRANCH  12  18
ATOM     18  O   UNL     1       0.737  10.347  17.965  0.00  0.00    +0.000 OA
ATOM     19  C   UNL     1      -0.643  10.619  17.742  0.00  0.00    +0.000 C 
ENDBRANCH  12  18
ENDBRANCH   1  14
BRANCH   4  20
ATOM     20  C   UNL     1       5.183   4.213  17.233  0.00  0.00    +0.000 A 
ATOM     21  C   UNL     1       4.735   4.357  15.885  0.00  0.00    +0.000 A 
ATOM     22  C   UNL     1       5.727   4.829  15.053  0.00  0.00    +0.000 A 
ATOM     23  S   UNL     1       7.198   5.082  15.885  0.00  0.00    +0.000 S 
ATOM     24  C   UNL     1       6.499   4.600  17.372  0.00  0.00    +0.000 A 
ENDBRANCH   4  20
TORSDOF 4
ENDMDL
MODEL 8
REMARK VINA RESULT:      -6.6      3.722      7.291
REMARK  Name = 
REMARK  6 active torsions:
REMARK  status: ('A' for Active; 'I' for Inactive)
REMARK    1  A    between atoms: C_1  and  O_2
REMARK    2  A    between atoms: O_2  and  C_3
REMARK    3  A    between atoms: C_5  and  O_6
REMARK    4  A    between atoms: O_6  and  C_7
REMARK    5  A    between atoms: C_9  and  C_10
REMARK    6  A    between atoms: C_13  and  C_14
REMARK                            x       y       z     vdW  Elec       q    Type
REMARK                         _______ _______ _______ _____ _____    ______ ____
ROOT
ATOM      1  C   UNL     1       4.109   3.993  17.582  0.00  0.00    +0.000 A 
ATOM      2  C   UNL     1       3.473   4.922  18.324  0.00  0.00    +0.000 A 
ATOM      3  N   UNL     1       2.451   4.508  19.165  0.00  0.00    +0.000 N 
ATOM      4  C   UNL     1       1.627   5.155  20.058  0.00  0.00    +0.000 A 
ATOM      5  C   UNL     1       0.911   4.138  20.671  0.00  0.00    +0.000 A 
ATOM      6  N   UNL     1       1.223   2.908  20.144  0.00  0.00    +0.000 NA
ATOM      7  C   UNL     1       2.145   3.172  19.248  0.00  0.00    +0.000 A 
ATOM      8  C   UNL     1       2.858   2.247  18.414  0.00  0.00    +0.000 A 
ATOM      9  N   UNL     1       3.802   2.641  17.604  0.00  0.00    +0.000 NA
ENDROOT
BRANCH   1  14
ATOM     10  C   UNL     1       6.328   4.111  14.553  0.00  0.00    +0.000 A 
ATOM     11  C   UNL     1       7.190   5.158  14.894  0.00  0.00    +0.000 A 
ATOM     12  C   UNL     1       7.064   5.823  16.116  0.00  0.00    +0.000 A 
ATOM     13  C   UNL     1       6.039   5.467  16.993  0.00  0.00    +0.000 A 
ATOM     14  C   UNL     1       5.169   4.422  16.657  0.00  0.00    +0.000 A 
ATOM     15  C   UNL     1       5.319   3.747  15.437  0.00  0.00    +0.000 A 
BRANCH  10  17
ATOM     16  C   UNL     1       5.505   3.441  12.426  0.00  0.00    +0.000 C 
ATOM     17  O   UNL     1       6.588   3.516  13.346  0.00  0.00    +0.000 OA
ENDBRANCH  10  17
BRANCH  12  18
ATOM     18  O   UNL     1       7.979   6.816  16.339  0.00  0.00    +0.000 OA
ATOM     19  C   UNL     1       7.730   7.631  17.480  0.00  0.00    +0.000 C 
ENDBRANCH  12  18
ENDBRANCH   1  14
BRANCH   4  20
ATOM     20  C   UNL     1       1.506   6.615  20.331  0.00  0.00    +0.000 A 
ATOM     21  C   UNL     1       1.962   7.669  19.483  0.00  0.00    +0.000 A 
ATOM     22  C   UNL     1       1.694   8.915  20.007  0.00  0.00    +0.000 A 
ATOM     23  S   UNL     1       0.912   8.819  21.524  0.00  0.00    +0.000 S 
ATOM     24  C   UNL     1       0.892   7.108  21.463  0.00  0.00    +0.000 A 
ENDBRANCH   4  20
TORSDOF 4
ENDMDL
MODEL 9
REMARK VINA RESULT:      -6.4      4.122      7.805
REMARK  Name = 
REMARK  6 active torsions:
REMARK  status: ('A' for Active; 'I' for Inactive)
REMARK    1  A    between atoms: C_1  and  O_2
REMARK    2  A    between atoms: O_2  and  C_3
REMARK    3  A    between atoms: C_5  and  O_6
REMARK    4  A    between atoms: O_6  and  C_7
REMARK    5  A    between atoms: C_9  and  C_10
REMARK    6  A    between atoms: C_13  and  C_14
REMARK                            x       y       z     vdW  Elec       q    Type
REMARK                         _______ _______ _______ _____ _____    ______ ____
ROOT
ATOM      1  C   UNL     1       1.231   8.390  20.557  0.00  0.00    +0.000 A 
ATOM      2  C   UNL     1       0.314   8.978  19.761  0.00  0.00    +0.000 A 
ATOM      3  N   UNL     1      -0.359  10.091  20.242  0.00  0.00    +0.000 N 
ATOM      4  C   UNL     1      -1.310  10.934  19.713  0.00  0.00    +0.000 A 
ATOM      5  C   UNL     1      -1.466  11.926  20.669  0.00  0.00    +0.000 A 
ATOM      6  N   UNL     1      -0.696  11.686  21.781  0.00  0.00    +0.000 NA
ATOM      7  C   UNL     1      -0.051  10.581  21.487  0.00  0.00    +0.000 A 
ATOM      8  C   UNL     1       0.925   9.888  22.280  0.00  0.00    +0.000 A 
ATOM      9  N   UNL     1       1.540   8.827  21.836  0.00  0.00    +0.000 NA
ENDROOT
BRANCH   1  14
ATOM     10  C   UNL     1       3.266   6.118  18.364  0.00  0.00    +0.000 A 
ATOM     11  C   UNL     1       3.212   4.926  19.093  0.00  0.00    +0.000 A 
ATOM     12  C   UNL     1       2.503   4.849  20.295  0.00  0.00    +0.000 A 
ATOM     13  C   UNL     1       1.874   5.987  20.798  0.00  0.00    +0.000 A 
ATOM     14  C   UNL     1       1.925   7.186  20.076  0.00  0.00    +0.000 A 
ATOM     15  C   UNL     1       2.622   7.245  18.860  0.00  0.00    +0.000 A 
BRANCH  10  17
ATOM     16  C   UNL     1       5.245   6.647  17.160  0.00  0.00    +0.000 C 
ATOM     17  O   UNL     1       3.956   6.044  17.183  0.00  0.00    +0.000 OA
ENDBRANCH  10  17
BRANCH  12  18
ATOM     18  O   UNL     1       2.513   3.623  20.902  0.00  0.00    +0.000 OA
ATOM     19  C   UNL     1       1.258   2.950  20.940  0.00  0.00    +0.000 C 
ENDBRANCH  12  18
ENDBRANCH   1  14
BRANCH   4  20
ATOM     20  C   UNL     1      -2.028  10.836  18.410  0.00  0.00    +0.000 A 
ATOM     21  C   UNL     1      -1.604  10.086  17.272  0.00  0.00    +0.000 A 
ATOM     22  C   UNL     1      -2.490  10.185  16.222  0.00  0.00    +0.000 A 
ATOM     23  S   UNL     1      -3.821  11.191  16.596  0.00  0.00    +0.000 S 
ATOM     24  C   UNL     1      -3.234  11.463  18.182  0.00  0.00    +0.000 A 
ENDBRANCH   4  20
TORSDOF 4
ENDMDL
