MODEL 1
REMARK VINA RESULT:      -8.9      0.000      0.000
REMARK  Name = 
REMARK  6 active torsions:
REMARK  status: ('A' for Active; 'I' for Inactive)
REMARK    1  A    between atoms: C_1  and  C_2
REMARK    2  A    between atoms: C_2  and  C_3
REMARK    3  A    between atoms: C_2  and  C_4
REMARK    4  A    between atoms: C_2  and  C_5
REMARK    5  A    between atoms: C_11  and  C_12
REMARK    6  A    between atoms: C_16  and  C_17
REMARK                            x       y       z     vdW  Elec       q    Type
REMARK                         _______ _______ _______ _____ _____    ______ ____
ROOT
ATOM      1  C   UNL     1       0.974   9.516  20.276  0.00  0.00    +0.000 A 
ATOM      2  N   UNL     1       0.921  10.519  19.414  0.00  0.00    +0.000 NA
ATOM      3  N   UNL     1       1.560  10.161  18.260  0.00  0.00    +0.000 NA
ATOM      4  C   UNL     1       1.999   8.937  18.415  0.00  0.00    +0.000 A 
ATOM      5  C   UNL     1       2.745   8.090  17.559  0.00  0.00    +0.000 A 
ATOM      6  C   UNL     1       3.068   6.851  17.971  0.00  0.00    +0.000 A 
ATOM      7  C   UNL     1       2.632   6.330  19.270  0.00  0.00    +0.000 A 
ATOM      8  C   UNL     1       1.935   7.153  20.083  0.00  0.00    +0.000 A 
ATOM      9  N   UNL     1       1.633   8.452  19.668  0.00  0.00    +0.000 N 
ENDROOT
BRANCH   7  10
ATOM     10  C   UNL     1       2.921   5.010  19.720  0.00  0.00    +0.000 A 
ATOM     11  O   UNL     1       2.241   4.428  20.775  0.00  0.00    +0.000 OA
ATOM     12  C   UNL     1       2.788   3.199  20.922  0.00  0.00    +0.000 A 
ATOM     13  N   UNL     1       3.751   2.917  20.083  0.00  0.00    +0.000 NA
ATOM     14  C   UNL     1       3.856   4.055  19.308  0.00  0.00    +0.000 A 
BRANCH  14  15
ATOM     15  C   UNL     1       4.838   4.176  18.237  0.00  0.00    +0.000 A 
ATOM     16  C   UNL     1       4.571   3.719  16.936  0.00  0.00    +0.000 A 
ATOM     17  C   UNL     1       5.517   3.854  15.917  0.00  0.00    +0.000 A 
ATOM     18  C   UNL     1       6.729   4.475  16.186  0.00  0.00    +0.000 A 
ATOM     19  F   UNL     1       7.626   4.619  15.202  0.00  0.00    +0.000 F 
ATOM     20  C   UNL     1       7.017   4.953  17.454  0.00  0.00    +0.000 A 
ATOM     21  C   UNL     1       6.075   4.797  18.471  0.00  0.00    +0.000 A 
ATOM     22  F   UNL     1       6.401   5.249  19.692  0.00  0.00    +0.000 F 
ENDBRANCH  14  15
ENDBRANCH   7  10
BRANCH   1  24
ATOM     23  C   UNL     1      -0.663   8.462  21.834  0.00  0.00    +0.000 C 
ATOM     24  C   UNL     1       0.405   9.577  21.682  0.00  0.00    +0.000 C 
ATOM     25  C   UNL     1      -0.300  10.915  21.957  0.00  0.00    +0.000 C 
ATOM     26  C   UNL     1       1.496   9.320  22.734  0.00  0.00    +0.000 C 
ENDBRANCH   1  24
TORSDOF 3
ENDMDL
MODEL 2
REMARK VINA RESULT:      -8.8      0.938      1.327
REMARK  Name = 
REMARK  6 active torsions:
REMARK  status: ('A' for Active; 'I' for Inactive)
REMARK    1  A    between atoms: C_1  and  C_2
REMARK    2  A    between atoms: C_2  and  C_3
REMARK    3  A    between atoms: C_2  and  C_4
REMARK    4  A    between atoms: C_2  and  C_5
REMARK    5  A    between atoms: C_11  and  C_12
REMARK    6  A    between atoms: C_16  and  C_17
REMARK                            x       y       z     vdW  Elec       q    Type
REMARK                         _______ _______ _______ _____ _____    ______ ____
ROOT
ATOM      1  C   UNL     1       0.933   9.562  20.356  0.00  0.00    +0.000 A 
ATOM      2  N   UNL     1       0.874  10.572  19.503  0.00  0.00    +0.000 NA
ATOM      3  N   UNL     1       1.505  10.222  18.342  0.00  0.00    +0.000 NA
ATOM      4  C   UNL     1       1.944   8.997  18.485  0.00  0.00    +0.000 A 
ATOM      5  C   UNL     1       2.683   8.156  17.617  0.00  0.00    +0.000 A 
ATOM      6  C   UNL     1       3.007   6.913  18.016  0.00  0.00    +0.000 A 
ATOM      7  C   UNL     1       2.580   6.383  19.315  0.00  0.00    +0.000 A 
ATOM      8  C   UNL     1       1.890   7.200  20.139  0.00  0.00    +0.000 A 
ATOM      9  N   UNL     1       1.586   8.503  19.735  0.00  0.00    +0.000 N 
ENDROOT
BRANCH   7  10
ATOM     10  C   UNL     1       2.871   5.059  19.752  0.00  0.00    +0.000 A 
ATOM     11  O   UNL     1       2.189   4.465  20.800  0.00  0.00    +0.000 OA
ATOM     12  C   UNL     1       2.738   3.236  20.936  0.00  0.00    +0.000 A 
ATOM     13  N   UNL     1       3.704   2.964  20.097  0.00  0.00    +0.000 NA
ATOM     14  C   UNL     1       3.809   4.110  19.333  0.00  0.00    +0.000 A 
BRANCH  14  15
ATOM     15  C   UNL     1       4.794   4.244  18.266  0.00  0.00    +0.000 A 
ATOM     16  C   UNL     1       6.109   4.665  18.524  0.00  0.00    +0.000 A 
ATOM     17  C   UNL     1       7.045   4.774  17.493  0.00  0.00    +0.000 A 
ATOM     18  C   UNL     1       6.680   4.435  16.198  0.00  0.00    +0.000 A 
ATOM     19  F   UNL     1       7.585   4.524  15.216  0.00  0.00    +0.000 F 
ATOM     20  C   UNL     1       5.396   4.000  15.912  0.00  0.00    +0.000 A 
ATOM     21  C   UNL     1       4.461   3.912  16.943  0.00  0.00    +0.000 A 
ATOM     22  F   UNL     1       3.221   3.512  16.623  0.00  0.00    +0.000 F 
ENDBRANCH  14  15
ENDBRANCH   7  10
BRANCH   1  24
ATOM     23  C   UNL     1      -0.694   8.498  21.918  0.00  0.00    +0.000 C 
ATOM     24  C   UNL     1       0.373   9.613  21.767  0.00  0.00    +0.000 C 
ATOM     25  C   UNL     1      -0.329  10.949  22.057  0.00  0.00    +0.000 C 
ATOM     26  C   UNL     1       1.471   9.348  22.809  0.00  0.00    +0.000 C 
ENDBRANCH   1  24
TORSDOF 3
ENDMDL
MODEL 3
REMARK VINA RESULT:      -8.1      2.966      5.213
REMARK  Name = 
REMARK  6 active torsions:
REMARK  status: ('A' for Active; 'I' for Inactive)
REMARK    1  A    between atoms: C_1  and  C_2
REMARK    2  A    between atoms: C_2  and  C_3
REMARK    3  A    between atoms: C_2  and  C_4
REMARK    4  A    between atoms: C_2  and  C_5
REMARK    5  A    between atoms: C_11  and  C_12
REMARK    6  A    between atoms: C_16  and  C_17
REMARK                            x       y       z     vdW  Elec       q    Type
REMARK                         _______ _______ _______ _____ _____    ______ ____
ROOT
ATOM      1  C   UNL     1       2.083   4.294  20.133  0.00  0.00    +0.000 A 
ATOM      2  N   UNL     1       1.193   5.056  20.748  0.00  0.00    +0.000 NA
ATOM      3  N   UNL     1       1.294   6.337  20.282  0.00  0.00    +0.000 NA
ATOM      4  C   UNL     1       2.241   6.356  19.379  0.00  0.00    +0.000 A 
ATOM      5  C   UNL     1       2.778   7.412  18.602  0.00  0.00    +0.000 A 
ATOM      6  C   UNL     1       3.765   7.153  17.725  0.00  0.00    +0.000 A 
ATOM      7  C   UNL     1       4.276   5.795  17.515  0.00  0.00    +0.000 A 
ATOM      8  C   UNL     1       3.766   4.800  18.273  0.00  0.00    +0.000 A 
ATOM      9  N   UNL     1       2.767   5.079  19.210  0.00  0.00    +0.000 N 
ENDROOT
BRANCH   7  10
ATOM     10  C   UNL     1       5.290   5.479  16.568  0.00  0.00    +0.000 A 
ATOM     11  O   UNL     1       5.088   4.559  15.554  0.00  0.00    +0.000 OA
ATOM     12  C   UNL     1       6.256   4.511  14.872  0.00  0.00    +0.000 A 
ATOM     13  N   UNL     1       7.198   5.294  15.331  0.00  0.00    +0.000 NA
ATOM     14  C   UNL     1       6.608   5.919  16.412  0.00  0.00    +0.000 A 
BRANCH  14  15
ATOM     15  C   UNL     1       7.327   6.884  17.236  0.00  0.00    +0.000 A 
ATOM     16  C   UNL     1       7.380   8.247  16.902  0.00  0.00    +0.000 A 
ATOM     17  C   UNL     1       8.061   9.160  17.709  0.00  0.00    +0.000 A 
ATOM     18  C   UNL     1       8.672   8.721  18.876  0.00  0.00    +0.000 A 
ATOM     19  F   UNL     1       9.308   9.603  19.656  0.00  0.00    +0.000 F 
ATOM     20  C   UNL     1       8.624   7.386  19.244  0.00  0.00    +0.000 A 
ATOM     21  C   UNL     1       7.958   6.476  18.423  0.00  0.00    +0.000 A 
ATOM     22  F   UNL     1       7.956   5.188  18.799  0.00  0.00    +0.000 F 
ENDBRANCH  14  15
ENDBRANCH   7  10
BRANCH   1  24
ATOM     23  C   UNL     1       1.530   2.470  21.740  0.00  0.00    +0.000 C 
ATOM     24  C   UNL     1       2.287   2.820  20.433  0.00  0.00    +0.000 C 
ATOM     25  C   UNL     1       3.768   2.481  20.666  0.00  0.00    +0.000 C 
ATOM     26  C   UNL     1       1.707   1.941  19.313  0.00  0.00    +0.000 C 
ENDBRANCH   1  24
TORSDOF 3
ENDMDL
MODEL 4
REMARK VINA RESULT:      -7.7      3.021      4.878
REMARK  Name = 
REMARK  6 active torsions:
REMARK  status: ('A' for Active; 'I' for Inactive)
REMARK    1  A    between atoms: C_1  and  C_2
REMARK    2  A    between atoms: C_2  and  C_3
REMARK    3  A    between atoms: C_2  and  C_4
REMARK    4  A    between atoms: C_2  and  C_5
REMARK    5  A    between atoms: C_11  and  C_12
REMARK    6  A    between atoms: C_16  and  C_17
REMARK                            x       y       z     vdW  Elec       q    Type
REMARK                         _______ _______ _______ _____ _____    ______ ____
ROOT
ATOM      1  C   UNL     1      -1.036  10.868  19.809  0.00  0.00    +0.000 A 
ATOM      2  N   UNL     1      -1.473  11.287  20.986  0.00  0.00    +0.000 NA
ATOM      3  N   UNL     1      -0.817  10.616  21.979  0.00  0.00    +0.000 NA
ATOM      4  C   UNL     1       0.026   9.791  21.409  0.00  0.00    +0.000 A 
ATOM      5  C   UNL     1       0.930   8.846  21.952  0.00  0.00    +0.000 A 
ATOM      6  C   UNL     1       1.700   8.115  21.126  0.00  0.00    +0.000 A 
ATOM      7  C   UNL     1       1.663   8.298  19.672  0.00  0.00    +0.000 A 
ATOM      8  C   UNL     1       0.786   9.192  19.166  0.00  0.00    +0.000 A 
ATOM      9  N   UNL     1      -0.039   9.923  20.025  0.00  0.00    +0.000 N 
ENDROOT
BRANCH   7  10
ATOM     10  C   UNL     1       2.493   7.571  18.771  0.00  0.00    +0.000 A 
ATOM     11  O   UNL     1       3.172   8.190  17.736  0.00  0.00    +0.000 OA
ATOM     12  C   UNL     1       3.833   7.197  17.096  0.00  0.00    +0.000 A 
ATOM     13  N   UNL     1       3.657   6.002  17.596  0.00  0.00    +0.000 NA
ATOM     14  C   UNL     1       2.806   6.213  18.662  0.00  0.00    +0.000 A 
BRANCH  14  15
ATOM     15  C   UNL     1       2.332   5.121  19.504  0.00  0.00    +0.000 A 
ATOM     16  C   UNL     1       2.748   4.983  20.839  0.00  0.00    +0.000 A 
ATOM     17  C   UNL     1       2.274   3.940  21.637  0.00  0.00    +0.000 A 
ATOM     18  C   UNL     1       1.356   3.040  21.113  0.00  0.00    +0.000 A 
ATOM     19  F   UNL     1       0.891   2.051  21.887  0.00  0.00    +0.000 F 
ATOM     20  C   UNL     1       0.912   3.156  19.806  0.00  0.00    +0.000 A 
ATOM     21  C   UNL     1       1.405   4.190  19.009  0.00  0.00    +0.000 A 
ATOM     22  F   UNL     1       0.972   4.255  17.741  0.00  0.00    +0.000 F 
ENDBRANCH  14  15
ENDBRANCH   7  10
BRANCH   1  24
ATOM     23  C   UNL     1      -3.060  11.776  18.670  0.00  0.00    +0.000 C 
ATOM     24  C   UNL     1      -1.577  11.364  18.481  0.00  0.00    +0.000 C 
ATOM     25  C   UNL     1      -1.549  10.267  17.405  0.00  0.00    +0.000 C 
ATOM     26  C   UNL     1      -0.809  12.606  17.998  0.00  0.00    +0.000 C 
ENDBRANCH   1  24
TORSDOF 3
ENDMDL
MODEL 5
REMARK VINA RESULT:      -7.6      3.923      7.272
REMARK  Name = 
REMARK  6 active torsions:
REMARK  status: ('A' for Active; 'I' for Inactive)
REMARK    1  A    between atoms: C_1  and  C_2
REMARK    2  A    between atoms: C_2  and  C_3
REMARK    3  A    between atoms: C_2  and  C_4
REMARK    4  A    between atoms: C_2  and  C_5
REMARK    5  A    between atoms: C_11  and  C_12
REMARK    6  A    between atoms: C_16  and  C_17
REMARK                            x       y       z     vdW  Elec       q    Type
REMARK                         _______ _______ _______ _____ _____    ______ ____
ROOT
ATOM      1  C   UNL     1       2.685   4.721  19.156  0.00  0.00    +0.000 A 
ATOM      2  N   UNL     1       3.452   4.513  18.098  0.00  0.00    +0.000 NA
ATOM      3  N   UNL     1       3.666   5.698  17.452  0.00  0.00    +0.000 NA
ATOM      4  C   UNL     1       3.033   6.631  18.118  0.00  0.00    +0.000 A 
ATOM      5  C   UNL     1       2.892   8.021  17.885  0.00  0.00    +0.000 A 
ATOM      6  C   UNL     1       2.177   8.767  18.746  0.00  0.00    +0.000 A 
ATOM      7  C   UNL     1       1.571   8.191  19.950  0.00  0.00    +0.000 A 
ATOM      8  C   UNL     1       1.699   6.861  20.152  0.00  0.00    +0.000 A 
ATOM      9  N   UNL     1       2.412   6.083  19.236  0.00  0.00    +0.000 N 
ENDROOT
BRANCH   7  10
ATOM     10  C   UNL     1       0.842   8.958  20.903  0.00  0.00    +0.000 A 
ATOM     11  O   UNL     1       1.059   8.836  22.265  0.00  0.00    +0.000 OA
ATOM     12  C   UNL     1       0.190   9.696  22.846  0.00  0.00    +0.000 A 
ATOM     13  N   UNL     1      -0.570  10.361  22.015  0.00  0.00    +0.000 NA
ATOM     14  C   UNL     1      -0.175   9.908  20.772  0.00  0.00    +0.000 A 
BRANCH  14  15
ATOM     15  C   UNL     1      -0.790  10.389  19.540  0.00  0.00    +0.000 A 
ATOM     16  C   UNL     1      -1.583   9.553  18.736  0.00  0.00    +0.000 A 
ATOM     17  C   UNL     1      -2.177  10.032  17.567  0.00  0.00    +0.000 A 
ATOM     18  C   UNL     1      -2.006  11.362  17.206  0.00  0.00    +0.000 A 
ATOM     19  F   UNL     1      -2.591  11.821  16.093  0.00  0.00    +0.000 F 
ATOM     20  C   UNL     1      -1.244  12.217  17.986  0.00  0.00    +0.000 A 
ATOM     21  C   UNL     1      -0.638  11.726  19.142  0.00  0.00    +0.000 A 
ATOM     22  F   UNL     1       0.113  12.578  19.857  0.00  0.00    +0.000 F 
ENDBRANCH  14  15
ENDBRANCH   7  10
BRANCH   1  24
ATOM     23  C   UNL     1       2.981   2.318  19.751  0.00  0.00    +0.000 C 
ATOM     24  C   UNL     1       2.207   3.620  20.084  0.00  0.00    +0.000 C 
ATOM     25  C   UNL     1       0.712   3.315  19.890  0.00  0.00    +0.000 C 
ATOM     26  C   UNL     1       2.495   3.967  21.553  0.00  0.00    +0.000 C 
ENDBRANCH   1  24
TORSDOF 3
ENDMDL
MODEL 6
REMARK VINA RESULT:      -7.3      6.753      9.238
REMARK  Name = 
REMARK  6 active torsions:
REMARK  status: ('A' for Active; 'I' for Inactive)
REMARK    1  A    between atoms: C_1  and  C_2
REMARK    2  A    between atoms: C_2  and  C_3
REMARK    3  A    between atoms: C_2  and  C_4
REMARK    4  A    between atoms: C_2  and  C_5
REMARK    5  A    between atoms: C_11  and  C_12
REMARK    6  A    between atoms: C_16  and  C_17
REMARK                            x       y       z     vdW  Elec       q    Type
REMARK                         _______ _______ _______ _____ _____    ______ ____
ROOT
ATOM      1  C   UNL     1      -3.912  11.476  18.011  0.00  0.00    +0.000 A 
ATOM      2  N   UNL     1      -5.123  11.260  17.523  0.00  0.00    +0.000 NA
ATOM      3  N   UNL     1      -6.058  11.650  18.440  0.00  0.00    +0.000 NA
ATOM      4  C   UNL     1      -5.418  12.109  19.486  0.00  0.00    +0.000 A 
ATOM      5  C   UNL     1      -5.882  12.614  20.726  0.00  0.00    +0.000 A 
ATOM      6  C   UNL     1      -4.993  13.033  21.645  0.00  0.00    +0.000 A 
ATOM      7  C   UNL     1      -3.550  13.024  21.385  0.00  0.00    +0.000 A 
ATOM      8  C   UNL     1      -3.120  12.526  20.205  0.00  0.00    +0.000 A 
ATOM      9  N   UNL     1      -4.045  12.057  19.268  0.00  0.00    +0.000 N 
ENDROOT
BRANCH   7  10
ATOM     10  C   UNL     1      -2.585  13.497  22.318  0.00  0.00    +0.000 A 
ATOM     11  O   UNL     1      -2.710  14.724  22.947  0.00  0.00    +0.000 OA
ATOM     12  C   UNL     1      -1.618  14.837  23.738  0.00  0.00    +0.000 A 
ATOM     13  N   UNL     1      -0.794  13.823  23.692  0.00  0.00    +0.000 NA
ATOM     14  C   UNL     1      -1.386  12.957  22.794  0.00  0.00    +0.000 A 
BRANCH  14  15
ATOM     15  C   UNL     1      -0.779  11.681  22.431  0.00  0.00    +0.000 A 
ATOM     16  C   UNL     1      -1.011  10.515  23.178  0.00  0.00    +0.000 A 
ATOM     17  C   UNL     1      -0.434   9.298  22.809  0.00  0.00    +0.000 A 
ATOM     18  C   UNL     1       0.359   9.232  21.671  0.00  0.00    +0.000 A 
ATOM     19  F   UNL     1       0.896   8.060  21.312  0.00  0.00    +0.000 F 
ATOM     20  C   UNL     1       0.593  10.360  20.902  0.00  0.00    +0.000 A 
ATOM     21  C   UNL     1       0.029  11.576  21.287  0.00  0.00    +0.000 A 
ATOM     22  F   UNL     1       0.301  12.652  20.532  0.00  0.00    +0.000 F 
ENDBRANCH  14  15
ENDBRANCH   7  10
BRANCH   1  24
ATOM     23  C   UNL     1      -2.144   9.733  17.780  0.00  0.00    +0.000 C 
ATOM     24  C   UNL     1      -2.630  11.119  17.281  0.00  0.00    +0.000 C 
ATOM     25  C   UNL     1      -1.504  12.123  17.576  0.00  0.00    +0.000 C 
ATOM     26  C   UNL     1      -2.866  11.009  15.766  0.00  0.00    +0.000 C 
ENDBRANCH   1  24
TORSDOF 3
ENDMDL
MODEL 7
REMARK VINA RESULT:      -7.3      2.174      3.302
REMARK  Name = 
REMARK  6 active torsions:
REMARK  status: ('A' for Active; 'I' for Inactive)
REMARK    1  A    between atoms: C_1  and  C_2
REMARK    2  A    between atoms: C_2  and  C_3
REMARK    3  A    between atoms: C_2  and  C_4
REMARK    4  A    between atoms: C_2  and  C_5
REMARK    5  A    between atoms: C_11  and  C_12
REMARK    6  A    between atoms: C_16  and  C_17
REMARK                            x       y       z     vdW  Elec       q    Type
REMARK                         _______ _______ _______ _____ _____    ______ ____
ROOT
ATOM      1  C   UNL     1       1.231   9.173  19.730  0.00  0.00    +0.000 A 
ATOM      2  N   UNL     1       0.870   9.519  20.956  0.00  0.00    +0.000 NA
ATOM      3  N   UNL     1       1.001   8.444  21.789  0.00  0.00    +0.000 NA
ATOM      4  C   UNL     1       1.447   7.442  21.074  0.00  0.00    +0.000 A 
ATOM      5  C   UNL     1       1.735   6.098  21.415  0.00  0.00    +0.000 A 
ATOM      6  C   UNL     1       2.196   5.258  20.470  0.00  0.00    +0.000 A 
ATOM      7  C   UNL     1       2.454   5.706  19.098  0.00  0.00    +0.000 A 
ATOM      8  C   UNL     1       2.161   6.986  18.782  0.00  0.00    +0.000 A 
ATOM      9  N   UNL     1       1.647   7.846  19.757  0.00  0.00    +0.000 N 
ENDROOT
BRANCH   7  10
ATOM     10  C   UNL     1       2.980   4.856  18.084  0.00  0.00    +0.000 A 
ATOM     11  O   UNL     1       2.205   3.897  17.455  0.00  0.00    +0.000 OA
ATOM     12  C   UNL     1       3.033   3.285  16.576  0.00  0.00    +0.000 A 
ATOM     13  N   UNL     1       4.261   3.735  16.567  0.00  0.00    +0.000 NA
ATOM     14  C   UNL     1       4.253   4.735  17.519  0.00  0.00    +0.000 A 
BRANCH  14  15
ATOM     15  C   UNL     1       5.448   5.504  17.846  0.00  0.00    +0.000 A 
ATOM     16  C   UNL     1       6.298   5.134  18.901  0.00  0.00    +0.000 A 
ATOM     17  C   UNL     1       7.447   5.872  19.192  0.00  0.00    +0.000 A 
ATOM     18  C   UNL     1       7.770   6.974  18.411  0.00  0.00    +0.000 A 
ATOM     19  F   UNL     1       8.881   7.668  18.683  0.00  0.00    +0.000 F 
ATOM     20  C   UNL     1       6.962   7.356  17.353  0.00  0.00    +0.000 A 
ATOM     21  C   UNL     1       5.806   6.624  17.080  0.00  0.00    +0.000 A 
ATOM     22  F   UNL     1       5.035   7.041  16.064  0.00  0.00    +0.000 F 
ENDBRANCH  14  15
ENDBRANCH   7  10
BRANCH   1  24
ATOM     23  C   UNL     1       1.299  11.567  19.037  0.00  0.00    +0.000 C 
ATOM     24  C   UNL     1       1.171  10.105  18.535  0.00  0.00    +0.000 C 
ATOM     25  C   UNL     1      -0.172  10.002  17.794  0.00  0.00    +0.000 C 
ATOM     26  C   UNL     1       2.337   9.844  17.567  0.00  0.00    +0.000 C 
ENDBRANCH   1  24
TORSDOF 3
ENDMDL
MODEL 8
REMARK VINA RESULT:      -7.2      3.074      4.871
REMARK  Name = 
REMARK  6 active torsions:
REMARK  status: ('A' for Active; 'I' for Inactive)
REMARK    1  A    between atoms: C_1  and  C_2
REMARK    2  A    between atoms: C_2  and  C_3
REMARK    3  A    between atoms: C_2  and  C_4
REMARK    4  A    between atoms: C_2  and  C_5
REMARK    5  A    between atoms: C_11  and  C_12
REMARK    6  A    between atoms: C_16  and  C_17
REMARK                            x       y       z     vdW  Elec       q    Type
REMARK                         _______ _______ _______ _____ _____    ______ ____
ROOT
ATOM      1  C   UNL     1      -0.461  11.423  20.329  0.00  0.00    +0.000 A 
ATOM      2  N   UNL     1      -1.047  11.628  21.498  0.00  0.00    +0.000 NA
ATOM      3  N   UNL     1      -0.789  10.573  22.327  0.00  0.00    +0.000 NA
ATOM      4  C   UNL     1      -0.041   9.725  21.667  0.00  0.00    +0.000 A 
ATOM      5  C   UNL     1       0.493   8.464  22.026  0.00  0.00    +0.000 A 
ATOM      6  C   UNL     1       1.249   7.788  21.143  0.00  0.00    +0.000 A 
ATOM      7  C   UNL     1       1.577   8.340  19.824  0.00  0.00    +0.000 A 
ATOM      8  C   UNL     1       1.050   9.537  19.488  0.00  0.00    +0.000 A 
ATOM      9  N   UNL     1       0.234  10.220  20.395  0.00  0.00    +0.000 N 
ENDROOT
BRANCH   7  10
ATOM     10  C   UNL     1       2.407   7.671  18.881  0.00  0.00    +0.000 A 
ATOM     11  O   UNL     1       3.054   8.348  17.862  0.00  0.00    +0.000 OA
ATOM     12  C   UNL     1       3.727   7.399  17.170  0.00  0.00    +0.000 A 
ATOM     13  N   UNL     1       3.588   6.180  17.622  0.00  0.00    +0.000 NA
ATOM     14  C   UNL     1       2.750   6.327  18.711  0.00  0.00    +0.000 A 
BRANCH  14  15
ATOM     15  C   UNL     1       2.317   5.189  19.514  0.00  0.00    +0.000 A 
ATOM     16  C   UNL     1       2.743   5.018  20.841  0.00  0.00    +0.000 A 
ATOM     17  C   UNL     1       2.307   3.931  21.602  0.00  0.00    +0.000 A 
ATOM     18  C   UNL     1       1.417   3.020  21.049  0.00  0.00    +0.000 A 
ATOM     19  F   UNL     1       0.989   1.989  21.788  0.00  0.00    +0.000 F 
ATOM     20  C   UNL     1       0.964   3.169  19.748  0.00  0.00    +0.000 A 
ATOM     21  C   UNL     1       1.418   4.247  18.988  0.00  0.00    +0.000 A 
ATOM     22  F   UNL     1       0.978   4.343  17.725  0.00  0.00    +0.000 F 
ENDBRANCH  14  15
ENDBRANCH   7  10
BRANCH   1  24
ATOM     23  C   UNL     1       0.852  12.653  18.603  0.00  0.00    +0.000 C 
ATOM     24  C   UNL     1      -0.572  12.371  19.149  0.00  0.00    +0.000 C 
ATOM     25  C   UNL     1      -1.174  13.725  19.556  0.00  0.00    +0.000 C 
ATOM     26  C   UNL     1      -1.389  11.743  18.008  0.00  0.00    +0.000 C 
ENDBRANCH   1  24
TORSDOF 3
ENDMDL
MODEL 9
REMARK VINA RESULT:      -7.2      2.866      4.197
REMARK  Name = 
REMARK  6 active torsions:
REMARK  status: ('A' for Active; 'I' for Inactive)
REMARK    1  A    between atoms: C_1  and  C_2
REMARK    2  A    between atoms: C_2  and  C_3
REMARK    3  A    between atoms: C_2  and  C_4
REMARK    4  A    between atoms: C_2  and  C_5
REMARK    5  A    between atoms: C_11  and  C_12
REMARK    6  A    between atoms: C_16  and  C_17
REMARK                            x       y       z     vdW  Elec       q    Type
REMARK                         _______ _______ _______ _____ _____    ______ ____
ROOT
ATOM      1  C   UNL     1       0.217  10.209  20.075  0.00  0.00    +0.000 A 
ATOM      2  N   UNL     1      -0.379  10.203  21.257  0.00  0.00    +0.000 NA
ATOM      3  N   UNL     1      -0.048   9.059  21.927  0.00  0.00    +0.000 NA
ATOM      4  C   UNL     1       0.754   8.367  21.156  0.00  0.00    +0.000 A 
ATOM      5  C   UNL     1       1.372   7.105  21.333  0.00  0.00    +0.000 A 
ATOM      6  C   UNL     1       2.169   6.617  20.366  0.00  0.00    +0.000 A 
ATOM      7  C   UNL     1       2.456   7.376  19.144  0.00  0.00    +0.000 A 
ATOM      8  C   UNL     1       1.848   8.571  18.981  0.00  0.00    +0.000 A 
ATOM      9  N   UNL     1       0.991   9.058  19.971  0.00  0.00    +0.000 N 
ENDROOT
BRANCH   7  10
ATOM     10  C   UNL     1       3.327   6.907  18.120  0.00  0.00    +0.000 A 
ATOM     11  O   UNL     1       4.068   7.772  17.333  0.00  0.00    +0.000 OA
ATOM     12  C   UNL     1       4.754   6.981  16.476  0.00  0.00    +0.000 A 
ATOM     13  N   UNL     1       4.540   5.698  16.614  0.00  0.00    +0.000 NA
ATOM     14  C   UNL     1       3.633   5.625  17.653  0.00  0.00    +0.000 A 
BRANCH  14  15
ATOM     15  C   UNL     1       3.104   4.354  18.133  0.00  0.00    +0.000 A 
ATOM     16  C   UNL     1       3.900   3.447  18.851  0.00  0.00    +0.000 A 
ATOM     17  C   UNL     1       3.374   2.239  19.316  0.00  0.00    +0.000 A 
ATOM     18  C   UNL     1       2.037   1.942  19.090  0.00  0.00    +0.000 A 
ATOM     19  F   UNL     1       1.533   0.791  19.552  0.00  0.00    +0.000 F 
ATOM     20  C   UNL     1       1.220   2.822  18.399  0.00  0.00    +0.000 A 
ATOM     21  C   UNL     1       1.757   4.018  17.921  0.00  0.00    +0.000 A 
ATOM     22  F   UNL     1       0.942   4.832  17.234  0.00  0.00    +0.000 F 
ENDBRANCH  14  15
ENDBRANCH   7  10
BRANCH   1  24
ATOM     23  C   UNL     1      -0.727  12.486  19.700  0.00  0.00    +0.000 C 
ATOM     24  C   UNL     1       0.039  11.308  19.044  0.00  0.00    +0.000 C 
ATOM     25  C   UNL     1      -0.800  10.839  17.844  0.00  0.00    +0.000 C 
ATOM     26  C   UNL     1       1.398  11.848  18.568  0.00  0.00    +0.000 C 
ENDBRANCH   1  24
TORSDOF 3
ENDMDL
