MODEL 1
REMARK VINA RESULT:      -7.4      0.000      0.000
REMARK  Name = 
REMARK  8 active torsions:
REMARK  status: ('A' for Active; 'I' for Inactive)
REMARK    1  A    between atoms: C_2  and  C_13
REMARK    2  A    between atoms: N_3  and  C_4
REMARK    3  A    between atoms: C_4  and  C_5
REMARK    4  A    between atoms: C_16  and  C_17
REMARK    5  A    between atoms: C_17  and  C_18
REMARK    6  A    between atoms: C_18  and  N_19
REMARK    7  A    between atoms: N_19  and  C_20
REMARK    8  A    between atoms: C_20  and  C_21
REMARK                            x       y       z     vdW  Elec       q    Type
REMARK                         _______ _______ _______ _____ _____    ______ ____
ROOT
ATOM      1  C   UNL     1       2.276   6.125  19.218  0.00  0.00    +0.000 A 
ATOM      2  C   UNL     1       2.849   5.837  20.444  0.00  0.00    +0.000 A 
ATOM      3  S   UNL     1       2.344   4.299  20.995  0.00  0.00    +0.000 S 
ATOM      4  C   UNL     1       1.397   4.111  19.572  0.00  0.00    +0.000 A 
ATOM      5  N   UNL     1       1.428   5.124  18.730  0.00  0.00    +0.000 NA
ENDROOT
BRANCH   1   7
ATOM      6  O   UNL     1       3.496   7.486  17.713  0.00  0.00    +0.000 OA
ATOM      7  C   UNL     1       2.537   7.359  18.473  0.00  0.00    +0.000 C 
ATOM      8  N   UNL     1       1.627   8.360  18.694  0.00  0.00    +0.000 N 
ATOM      9  H   UNL     1       0.971   8.257  19.467  0.00  0.00    +0.000 HD
BRANCH   8  10
ATOM     10  C   UNL     1       1.756   9.644  18.045  0.00  0.00    +0.000 C 
BRANCH  10  11
ATOM     11  C   UNL     1       0.799  10.677  18.589  0.00  0.00    +0.000 A 
ATOM     12  N   UNL     1       1.308  11.679  19.364  0.00  0.00    +0.000 NA
ATOM     13  C   UNL     1       0.432  12.622  19.794  0.00  0.00    +0.000 A 
ATOM     14  C   UNL     1      -0.919  12.614  19.487  0.00  0.00    +0.000 A 
ATOM     15  F   UNL     1      -1.725  13.581  19.944  0.00  0.00    +0.000 F 
ATOM     16  C   UNL     1      -1.426  11.597  18.695  0.00  0.00    +0.000 A 
ATOM     17  C   UNL     1      -0.551  10.621  18.237  0.00  0.00    +0.000 A 
ATOM     18  F   UNL     1      -1.019   9.637  17.456  0.00  0.00    +0.000 F 
ENDBRANCH  10  11
ENDBRANCH   8  10
ENDBRANCH   1   7
BRANCH   4  19
ATOM     19  C   UNL     1       0.594   2.862  19.360  0.00  0.00    +0.000 C 
BRANCH  19  20
ATOM     20  C   UNL     1       1.335   1.895  18.430  0.00  0.00    +0.000 C 
BRANCH  20  21
ATOM     21  N   UNL     1       2.310   2.605  17.587  0.00  0.00    +0.000 NA
ATOM     22  H   UNL     1       2.261   3.607  17.784  0.00  0.00    +0.000 HD
BRANCH  21  23
ATOM     23  C   UNL     1       3.670   2.160  17.917  0.00  0.00    +0.000 C 
BRANCH  23  24
ATOM     24  C   UNL     1       4.609   3.318  17.978  0.00  0.00    +0.000 A 
ATOM     25  N   UNL     1       5.334   3.700  19.011  0.00  0.00    +0.000 NA
ATOM     26  C   UNL     1       6.088   4.757  18.560  0.00  0.00    +0.000 A 
ATOM     27  C   UNL     1       7.052   5.521  19.231  0.00  0.00    +0.000 A 
ATOM     28  C   UNL     1       7.705   6.545  18.531  0.00  0.00    +0.000 A 
ATOM     29  C   UNL     1       7.397   6.805  17.193  0.00  0.00    +0.000 A 
ATOM     30  C   UNL     1       6.431   6.058  16.509  0.00  0.00    +0.000 A 
ATOM     31  C   UNL     1       5.802   5.040  17.229  0.00  0.00    +0.000 A 
ATOM     32  N   UNL     1       4.841   4.123  16.890  0.00  0.00    +0.000 N 
ATOM     33  H   UNL     1       4.378   4.036  15.997  0.00  0.00    +0.000 HD
ENDBRANCH  23  24
ENDBRANCH  21  23
ENDBRANCH  20  21
ENDBRANCH  19  20
ENDBRANCH   4  19
TORSDOF 8
ENDMDL
MODEL 2
REMARK VINA RESULT:      -7.3      1.298      1.587
REMARK  Name = 
REMARK  8 active torsions:
REMARK  status: ('A' for Active; 'I' for Inactive)
REMARK    1  A    between atoms: C_2  and  C_13
REMARK    2  A    between atoms: N_3  and  C_4
REMARK    3  A    between atoms: C_4  and  C_5
REMARK    4  A    between atoms: C_16  and  C_17
REMARK    5  A    between atoms: C_17  and  C_18
REMARK    6  A    between atoms: C_18  and  N_19
REMARK    7  A    between atoms: N_19  and  C_20
REMARK    8  A    between atoms: C_20  and  C_21
REMARK                            x       y       z     vdW  Elec       q    Type
REMARK                         _______ _______ _______ _____ _____    ______ ____
ROOT
ATOM      1  C   UNL     1       2.170   6.002  19.466  0.00  0.00    +0.000 A 
ATOM      2  C   UNL     1       2.386   5.739  20.808  0.00  0.00    +0.000 A 
ATOM      3  S   UNL     1       2.092   4.088  21.149  0.00  0.00    +0.000 S 
ATOM      4  C   UNL     1       1.697   3.828  19.496  0.00  0.00    +0.000 A 
ATOM      5  N   UNL     1       1.760   4.891  18.721  0.00  0.00    +0.000 NA
ENDROOT
BRANCH   1   7
ATOM      6  O   UNL     1       3.196   7.529  17.977  0.00  0.00    +0.000 OA
ATOM      7  C   UNL     1       2.366   7.321  18.860  0.00  0.00    +0.000 C 
ATOM      8  N   UNL     1       1.548   8.303  19.358  0.00  0.00    +0.000 N 
ATOM      9  H   UNL     1       1.019   8.109  20.207  0.00  0.00    +0.000 HD
BRANCH   8  10
ATOM     10  C   UNL     1       1.630   9.660  18.873  0.00  0.00    +0.000 C 
BRANCH  10  11
ATOM     11  C   UNL     1       0.287  10.347  18.814  0.00  0.00    +0.000 A 
ATOM     12  N   UNL     1      -0.594   9.954  17.847  0.00  0.00    +0.000 NA
ATOM     13  C   UNL     1      -1.812  10.551  17.854  0.00  0.00    +0.000 A 
ATOM     14  C   UNL     1      -2.192  11.513  18.776  0.00  0.00    +0.000 A 
ATOM     15  F   UNL     1      -3.414  12.058  18.723  0.00  0.00    +0.000 F 
ATOM     16  C   UNL     1      -1.295  11.901  19.757  0.00  0.00    +0.000 A 
ATOM     17  C   UNL     1      -0.043  11.303  19.777  0.00  0.00    +0.000 A 
ATOM     18  F   UNL     1       0.834  11.653  20.728  0.00  0.00    +0.000 F 
ENDBRANCH  10  11
ENDBRANCH   8  10
ENDBRANCH   1   7
BRANCH   4  19
ATOM     19  C   UNL     1       1.299   2.461  19.023  0.00  0.00    +0.000 C 
BRANCH  19  20
ATOM     20  C   UNL     1       2.329   1.911  18.030  0.00  0.00    +0.000 C 
BRANCH  20  21
ATOM     21  N   UNL     1       3.668   2.464  18.288  0.00  0.00    +0.000 NA
ATOM     22  H   UNL     1       4.326   1.696  18.445  0.00  0.00    +0.000 HD
BRANCH  21  23
ATOM     23  C   UNL     1       4.135   3.205  17.109  0.00  0.00    +0.000 C 
BRANCH  23  24
ATOM     24  C   UNL     1       5.105   4.269  17.499  0.00  0.00    +0.000 A 
ATOM     25  N   UNL     1       5.988   4.222  18.478  0.00  0.00    +0.000 NA
ATOM     26  C   UNL     1       6.695   5.397  18.392  0.00  0.00    +0.000 A 
ATOM     27  C   UNL     1       7.770   5.855  19.167  0.00  0.00    +0.000 A 
ATOM     28  C   UNL     1       8.340   7.098  18.858  0.00  0.00    +0.000 A 
ATOM     29  C   UNL     1       7.842   7.871  17.805  0.00  0.00    +0.000 A 
ATOM     30  C   UNL     1       6.764   7.433  17.027  0.00  0.00    +0.000 A 
ATOM     31  C   UNL     1       6.222   6.188  17.352  0.00  0.00    +0.000 A 
ATOM     32  N   UNL     1       5.195   5.456  16.814  0.00  0.00    +0.000 N 
ATOM     33  H   UNL     1       4.601   5.725  16.043  0.00  0.00    +0.000 HD
ENDBRANCH  23  24
ENDBRANCH  21  23
ENDBRANCH  20  21
ENDBRANCH  19  20
ENDBRANCH   4  19
TORSDOF 8
ENDMDL
MODEL 3
REMARK VINA RESULT:      -7.3      3.938      9.955
REMARK  Name = 
REMARK  8 active torsions:
REMARK  status: ('A' for Active; 'I' for Inactive)
REMARK    1  A    between atoms: C_2  and  C_13
REMARK    2  A    between atoms: N_3  and  C_4
REMARK    3  A    between atoms: C_4  and  C_5
REMARK    4  A    between atoms: C_16  and  C_17
REMARK    5  A    between atoms: C_17  and  C_18
REMARK    6  A    between atoms: C_18  and  N_19
REMARK    7  A    between atoms: N_19  and  C_20
REMARK    8  A    between atoms: C_20  and  C_21
REMARK                            x       y       z     vdW  Elec       q    Type
REMARK                         _______ _______ _______ _____ _____    ______ ____
ROOT
ATOM      1  C   UNL     1       1.996   7.166  19.753  0.00  0.00    +0.000 A 
ATOM      2  C   UNL     1       1.553   7.501  21.020  0.00  0.00    +0.000 A 
ATOM      3  S   UNL     1       0.945   9.100  21.038  0.00  0.00    +0.000 S 
ATOM      4  C   UNL     1       1.308   9.246  19.364  0.00  0.00    +0.000 A 
ATOM      5  N   UNL     1       1.861   8.187  18.807  0.00  0.00    +0.000 NA
ENDROOT
BRANCH   1   7
ATOM      6  O   UNL     1       1.857   4.939  18.961  0.00  0.00    +0.000 OA
ATOM      7  C   UNL     1       2.547   5.852  19.411  0.00  0.00    +0.000 C 
ATOM      8  N   UNL     1       3.895   5.725  19.634  0.00  0.00    +0.000 N 
ATOM      9  H   UNL     1       4.367   6.447  20.175  0.00  0.00    +0.000 HD
BRANCH   8  10
ATOM     10  C   UNL     1       4.583   4.485  19.361  0.00  0.00    +0.000 C 
BRANCH  10  11
ATOM     11  C   UNL     1       5.354   4.514  18.064  0.00  0.00    +0.000 A 
ATOM     12  N   UNL     1       6.670   4.876  18.106  0.00  0.00    +0.000 NA
ATOM     13  C   UNL     1       7.350   4.841  16.933  0.00  0.00    +0.000 A 
ATOM     14  C   UNL     1       6.784   4.461  15.726  0.00  0.00    +0.000 A 
ATOM     15  F   UNL     1       7.518   4.446  14.607  0.00  0.00    +0.000 F 
ATOM     16  C   UNL     1       5.451   4.089  15.693  0.00  0.00    +0.000 A 
ATOM     17  C   UNL     1       4.731   4.111  16.881  0.00  0.00    +0.000 A 
ATOM     18  F   UNL     1       3.443   3.739  16.872  0.00  0.00    +0.000 F 
ENDBRANCH  10  11
ENDBRANCH   8  10
ENDBRANCH   1   7
BRANCH   4  19
ATOM     19  C   UNL     1       1.008  10.522  18.636  0.00  0.00    +0.000 C 
BRANCH  19  20
ATOM     20  C   UNL     1      -0.476  10.883  18.767  0.00  0.00    +0.000 C 
BRANCH  20  21
ATOM     21  N   UNL     1      -1.246  10.414  17.605  0.00  0.00    +0.000 NA
ATOM     22  H   UNL     1      -1.858   9.647  17.893  0.00  0.00    +0.000 HD
BRANCH  21  23
ATOM     23  C   UNL     1      -2.104  11.496  17.106  0.00  0.00    +0.000 C 
BRANCH  23  24
ATOM     24  C   UNL     1      -3.413  11.511  17.822  0.00  0.00    +0.000 A 
ATOM     25  N   UNL     1      -4.452  10.730  17.597  0.00  0.00    +0.000 NA
ATOM     26  C   UNL     1      -5.380  11.069  18.552  0.00  0.00    +0.000 A 
ATOM     27  C   UNL     1      -6.653  10.534  18.795  0.00  0.00    +0.000 A 
ATOM     28  C   UNL     1      -7.405  11.047  19.860  0.00  0.00    +0.000 A 
ATOM     29  C   UNL     1      -6.903  12.077  20.660  0.00  0.00    +0.000 A 
ATOM     30  C   UNL     1      -5.638  12.629  20.427  0.00  0.00    +0.000 A 
ATOM     31  C   UNL     1      -4.907  12.093  19.365  0.00  0.00    +0.000 A 
ATOM     32  N   UNL     1      -3.661  12.371  18.863  0.00  0.00    +0.000 N 
ATOM     33  H   UNL     1      -3.021  13.077  19.195  0.00  0.00    +0.000 HD
ENDBRANCH  23  24
ENDBRANCH  21  23
ENDBRANCH  20  21
ENDBRANCH  19  20
ENDBRANCH   4  19
TORSDOF 8
ENDMDL
MODEL 4
REMARK VINA RESULT:      -7.1      2.281      3.027
REMARK  Name = 
REMARK  8 active torsions:
REMARK  status: ('A' for Active; 'I' for Inactive)
REMARK    1  A    between atoms: C_2  and  C_13
REMARK    2  A    between atoms: N_3  and  C_4
REMARK    3  A    between atoms: C_4  and  C_5
REMARK    4  A    between atoms: C_16  and  C_17
REMARK    5  A    between atoms: C_17  and  C_18
REMARK    6  A    between atoms: C_18  and  N_19
REMARK    7  A    between atoms: N_19  and  C_20
REMARK    8  A    between atoms: C_20  and  C_21
REMARK                            x       y       z     vdW  Elec       q    Type
REMARK                         _______ _______ _______ _____ _____    ______ ____
ROOT
ATOM      1  C   UNL     1       1.517   8.111  20.407  0.00  0.00    +0.000 A 
ATOM      2  C   UNL     1       2.085   8.103  19.145  0.00  0.00    +0.000 A 
ATOM      3  S   UNL     1       2.541   6.514  18.705  0.00  0.00    +0.000 S 
ATOM      4  C   UNL     1       1.957   5.938  20.216  0.00  0.00    +0.000 A 
ATOM      5  N   UNL     1       1.461   6.856  21.022  0.00  0.00    +0.000 NA
ENDROOT
BRANCH   1   7
ATOM      6  O   UNL     1       0.661   9.349  22.235  0.00  0.00    +0.000 OA
ATOM      7  C   UNL     1       1.000   9.321  21.053  0.00  0.00    +0.000 C 
ATOM      8  N   UNL     1       0.926  10.417  20.231  0.00  0.00    +0.000 N 
ATOM      9  H   UNL     1       1.046  10.280  19.229  0.00  0.00    +0.000 HD
BRANCH   8  10
ATOM     10  C   UNL     1       0.423  11.680  20.716  0.00  0.00    +0.000 C 
BRANCH  10  11
ATOM     11  C   UNL     1       1.294  12.850  20.324  0.00  0.00    +0.000 A 
ATOM     12  N   UNL     1       2.307  13.207  21.166  0.00  0.00    +0.000 NA
ATOM     13  C   UNL     1       3.105  14.227  20.761  0.00  0.00    +0.000 A 
ATOM     14  C   UNL     1       2.943  14.901  19.561  0.00  0.00    +0.000 A 
ATOM     15  F   UNL     1       3.772  15.896  19.224  0.00  0.00    +0.000 F 
ATOM     16  C   UNL     1       1.916  14.527  18.710  0.00  0.00    +0.000 A 
ATOM     17  C   UNL     1       1.087  13.484  19.097  0.00  0.00    +0.000 A 
ATOM     18  F   UNL     1       0.097  13.096  18.280  0.00  0.00    +0.000 F 
ENDBRANCH  10  11
ENDBRANCH   8  10
ENDBRANCH   1   7
BRANCH   4  19
ATOM     19  C   UNL     1       2.045   4.479  20.552  0.00  0.00    +0.000 C 
BRANCH  19  20
ATOM     20  C   UNL     1       1.920   3.625  19.285  0.00  0.00    +0.000 C 
BRANCH  20  21
ATOM     21  N   UNL     1       2.817   2.460  19.336  0.00  0.00    +0.000 NA
ATOM     22  H   UNL     1       2.260   1.609  19.447  0.00  0.00    +0.000 HD
BRANCH  21  23
ATOM     23  C   UNL     1       3.548   2.340  18.068  0.00  0.00    +0.000 C 
BRANCH  23  24
ATOM     24  C   UNL     1       4.572   3.417  17.939  0.00  0.00    +0.000 A 
ATOM     25  N   UNL     1       4.752   4.226  16.913  0.00  0.00    +0.000 NA
ATOM     26  C   UNL     1       5.753   5.086  17.294  0.00  0.00    +0.000 A 
ATOM     27  C   UNL     1       6.321   6.164  16.601  0.00  0.00    +0.000 A 
ATOM     28  C   UNL     1       7.328   6.911  17.227  0.00  0.00    +0.000 A 
ATOM     29  C   UNL     1       7.766   6.583  18.513  0.00  0.00    +0.000 A 
ATOM     30  C   UNL     1       7.217   5.505  19.217  0.00  0.00    +0.000 A 
ATOM     31  C   UNL     1       6.210   4.784  18.572  0.00  0.00    +0.000 A 
ATOM     32  N   UNL     1       5.456   3.703  18.951  0.00  0.00    +0.000 N 
ATOM     33  H   UNL     1       5.521   3.198  19.822  0.00  0.00    +0.000 HD
ENDBRANCH  23  24
ENDBRANCH  21  23
ENDBRANCH  20  21
ENDBRANCH  19  20
ENDBRANCH   4  19
TORSDOF 8
ENDMDL
MODEL 5
REMARK VINA RESULT:      -7.1      2.518      3.587
REMARK  Name = 
REMARK  8 active torsions:
REMARK  status: ('A' for Active; 'I' for Inactive)
REMARK    1  A    between atoms: C_2  and  C_13
REMARK    2  A    between atoms: N_3  and  C_4
REMARK    3  A    between atoms: C_4  and  C_5
REMARK    4  A    between atoms: C_16  and  C_17
REMARK    5  A    between atoms: C_17  and  C_18
REMARK    6  A    between atoms: C_18  and  N_19
REMARK    7  A    between atoms: N_19  and  C_20
REMARK    8  A    between atoms: C_20  and  C_21
REMARK                            x       y       z     vdW  Elec       q    Type
REMARK                         _______ _______ _______ _____ _____    ______ ____
ROOT
ATOM      1  C   UNL     1       1.199   9.286  19.001  0.00  0.00    +0.000 A 
ATOM      2  C   UNL     1       1.857   9.072  17.802  0.00  0.00    +0.000 A 
ATOM      3  S   UNL     1       2.780   7.635  17.874  0.00  0.00    +0.000 S 
ATOM      4  C   UNL     1       2.250   7.386  19.491  0.00  0.00    +0.000 A 
ATOM      5  N   UNL     1       1.444   8.311  19.974  0.00  0.00    +0.000 NA
ENDROOT
BRANCH   1   7
ATOM      6  O   UNL     1      -0.027  10.778  20.371  0.00  0.00    +0.000 OA
ATOM      7  C   UNL     1       0.306  10.422  19.241  0.00  0.00    +0.000 C 
ATOM      8  N   UNL     1      -0.129  11.055  18.105  0.00  0.00    +0.000 N 
ATOM      9  H   UNL     1       0.032  10.602  17.206  0.00  0.00    +0.000 HD
BRANCH   8  10
ATOM     10  C   UNL     1      -1.027  12.184  18.175  0.00  0.00    +0.000 C 
BRANCH  10  11
ATOM     11  C   UNL     1      -2.480  11.784  18.098  0.00  0.00    +0.000 A 
ATOM     12  N   UNL     1      -3.286  12.081  19.159  0.00  0.00    +0.000 NA
ATOM     13  C   UNL     1      -4.598  11.758  19.037  0.00  0.00    +0.000 A 
ATOM     14  C   UNL     1      -5.142  11.159  17.912  0.00  0.00    +0.000 A 
ATOM     15  F   UNL     1      -6.448  10.871  17.861  0.00  0.00    +0.000 F 
ATOM     16  C   UNL     1      -4.319  10.866  16.838  0.00  0.00    +0.000 A 
ATOM     17  C   UNL     1      -2.972  11.190  16.933  0.00  0.00    +0.000 A 
ATOM     18  F   UNL     1      -2.162  10.930  15.898  0.00  0.00    +0.000 F 
ENDBRANCH  10  11
ENDBRANCH   8  10
ENDBRANCH   1   7
BRANCH   4  19
ATOM     19  C   UNL     1       2.714   6.186  20.261  0.00  0.00    +0.000 C 
BRANCH  19  20
ATOM     20  C   UNL     1       1.816   4.978  19.974  0.00  0.00    +0.000 C 
BRANCH  20  21
ATOM     21  N   UNL     1       2.452   3.724  20.406  0.00  0.00    +0.000 NA
ATOM     22  H   UNL     1       1.840   3.249  21.075  0.00  0.00    +0.000 HD
BRANCH  21  23
ATOM     23  C   UNL     1       2.621   2.828  19.255  0.00  0.00    +0.000 C 
BRANCH  23  24
ATOM     24  C   UNL     1       3.686   3.331  18.340  0.00  0.00    +0.000 A 
ATOM     25  N   UNL     1       3.577   3.575  17.049  0.00  0.00    +0.000 NA
ATOM     26  C   UNL     1       4.792   4.090  16.668  0.00  0.00    +0.000 A 
ATOM     27  C   UNL     1       5.219   4.548  15.413  0.00  0.00    +0.000 A 
ATOM     28  C   UNL     1       6.520   5.054  15.289  0.00  0.00    +0.000 A 
ATOM     29  C   UNL     1       7.379   5.095  16.390  0.00  0.00    +0.000 A 
ATOM     30  C   UNL     1       6.974   4.633  17.648  0.00  0.00    +0.000 A 
ATOM     31  C   UNL     1       5.671   4.142  17.744  0.00  0.00    +0.000 A 
ATOM     32  N   UNL     1       4.948   3.632  18.792  0.00  0.00    +0.000 N 
ATOM     33  H   UNL     1       5.270   3.500  19.740  0.00  0.00    +0.000 HD
ENDBRANCH  23  24
ENDBRANCH  21  23
ENDBRANCH  20  21
ENDBRANCH  19  20
ENDBRANCH   4  19
TORSDOF 8
ENDMDL
MODEL 6
REMARK VINA RESULT:      -7.1      2.185      4.227
REMARK  Name = 
REMARK  8 active torsions:
REMARK  status: ('A' for Active; 'I' for Inactive)
REMARK    1  A    between atoms: C_2  and  C_13
REMARK    2  A    between atoms: N_3  and  C_4
REMARK    3  A    between atoms: C_4  and  C_5
REMARK    4  A    between atoms: C_16  and  C_17
REMARK    5  A    between atoms: C_17  and  C_18
REMARK    6  A    between atoms: C_18  and  N_19
REMARK    7  A    between atoms: N_19  and  C_20
REMARK    8  A    between atoms: C_20  and  C_21
REMARK                            x       y       z     vdW  Elec       q    Type
REMARK                         _______ _______ _______ _____ _____    ______ ____
ROOT
ATOM      1  C   UNL     1       1.716   8.797  18.582  0.00  0.00    +0.000 A 
ATOM      2  C   UNL     1       1.855   7.874  19.605  0.00  0.00    +0.000 A 
ATOM      3  S   UNL     1       3.040   6.708  19.202  0.00  0.00    +0.000 S 
ATOM      4  C   UNL     1       3.293   7.500  17.697  0.00  0.00    +0.000 A 
ATOM      5  N   UNL     1       2.544   8.562  17.479  0.00  0.00    +0.000 NA
ENDROOT
BRANCH   1   7
ATOM      6  O   UNL     1      -0.183  10.037  17.904  0.00  0.00    +0.000 OA
ATOM      7  C   UNL     1       0.797   9.936  18.641  0.00  0.00    +0.000 C 
ATOM      8  N   UNL     1       1.118  10.878  19.584  0.00  0.00    +0.000 N 
ATOM      9  H   UNL     1       2.034  10.827  20.028  0.00  0.00    +0.000 HD
BRANCH   8  10
ATOM     10  C   UNL     1       0.317  12.068  19.754  0.00  0.00    +0.000 C 
BRANCH  10  11
ATOM     11  C   UNL     1      -0.661  11.960  20.898  0.00  0.00    +0.000 A 
ATOM     12  N   UNL     1      -0.310  11.198  21.975  0.00  0.00    +0.000 NA
ATOM     13  C   UNL     1      -1.186  11.163  23.009  0.00  0.00    +0.000 A 
ATOM     14  C   UNL     1      -2.389  11.851  23.022  0.00  0.00    +0.000 A 
ATOM     15  F   UNL     1      -3.204  11.773  24.081  0.00  0.00    +0.000 F 
ATOM     16  C   UNL     1      -2.736  12.626  21.929  0.00  0.00    +0.000 A 
ATOM     17  C   UNL     1      -1.854  12.684  20.857  0.00  0.00    +0.000 A 
ATOM     18  F   UNL     1      -2.164  13.442  19.795  0.00  0.00    +0.000 F 
ENDBRANCH  10  11
ENDBRANCH   8  10
ENDBRANCH   1   7
BRANCH   4  19
ATOM     19  C   UNL     1       4.303   6.967  16.725  0.00  0.00    +0.000 C 
BRANCH  19  20
ATOM     20  C   UNL     1       5.652   6.741  17.417  0.00  0.00    +0.000 C 
BRANCH  20  21
ATOM     21  N   UNL     1       6.467   5.754  16.691  0.00  0.00    +0.000 NA
ATOM     22  H   UNL     1       7.341   6.193  16.391  0.00  0.00    +0.000 HD
BRANCH  21  23
ATOM     23  C   UNL     1       6.819   4.645  17.587  0.00  0.00    +0.000 C 
BRANCH  23  24
ATOM     24  C   UNL     1       5.595   3.978  18.117  0.00  0.00    +0.000 A 
ATOM     25  N   UNL     1       5.241   3.853  19.381  0.00  0.00    +0.000 NA
ATOM     26  C   UNL     1       4.012   3.239  19.359  0.00  0.00    +0.000 A 
ATOM     27  C   UNL     1       3.164   2.893  20.421  0.00  0.00    +0.000 A 
ATOM     28  C   UNL     1       1.935   2.286  20.129  0.00  0.00    +0.000 A 
ATOM     29  C   UNL     1       1.563   2.023  18.808  0.00  0.00    +0.000 A 
ATOM     30  C   UNL     1       2.401   2.353  17.736  0.00  0.00    +0.000 A 
ATOM     31  C   UNL     1       3.615   2.964  18.056  0.00  0.00    +0.000 A 
ATOM     32  N   UNL     1       4.652   3.424  17.286  0.00  0.00    +0.000 N 
ATOM     33  H   UNL     1       4.723   3.379  16.280  0.00  0.00    +0.000 HD
ENDBRANCH  23  24
ENDBRANCH  21  23
ENDBRANCH  20  21
ENDBRANCH  19  20
ENDBRANCH   4  19
TORSDOF 8
ENDMDL
MODEL 7
REMARK VINA RESULT:      -7.0      4.330      9.987
REMARK  Name = 
REMARK  8 active torsions:
REMARK  status: ('A' for Active; 'I' for Inactive)
REMARK    1  A    between atoms: C_2  and  C_13
REMARK    2  A    between atoms: N_3  and  C_4
REMARK    3  A    between atoms: C_4  and  C_5
REMARK    4  A    between atoms: C_16  and  C_17
REMARK    5  A    between atoms: C_17  and  C_18
REMARK    6  A    between atoms: C_18  and  N_19
REMARK    7  A    between atoms: N_19  and  C_20
REMARK    8  A    between atoms: C_20  and  C_21
REMARK                            x       y       z     vdW  Elec       q    Type
REMARK                         _______ _______ _______ _____ _____    ______ ____
ROOT
ATOM      1  C   UNL     1       2.792   7.321  18.731  0.00  0.00    +0.000 A 
ATOM      2  C   UNL     1       2.516   8.172  17.675  0.00  0.00    +0.000 A 
ATOM      3  S   UNL     1       1.421   9.392  18.161  0.00  0.00    +0.000 S 
ATOM      4  C   UNL     1       1.381   8.714  19.741  0.00  0.00    +0.000 A 
ATOM      5  N   UNL     1       2.120   7.637  19.916  0.00  0.00    +0.000 NA
ENDROOT
BRANCH   1   7
ATOM      6  O   UNL     1       3.503   5.107  19.178  0.00  0.00    +0.000 OA
ATOM      7  C   UNL     1       3.719   6.190  18.636  0.00  0.00    +0.000 C 
ATOM      8  N   UNL     1       4.846   6.438  17.895  0.00  0.00    +0.000 N 
ATOM      9  H   UNL     1       5.051   7.401  17.632  0.00  0.00    +0.000 HD
BRANCH   8  10
ATOM     10  C   UNL     1       5.863   5.428  17.721  0.00  0.00    +0.000 C 
BRANCH  10  11
ATOM     11  C   UNL     1       6.102   5.079  16.272  0.00  0.00    +0.000 A 
ATOM     12  N   UNL     1       7.242   5.540  15.679  0.00  0.00    +0.000 NA
ATOM     13  C   UNL     1       7.456   5.165  14.394  0.00  0.00    +0.000 A 
ATOM     14  C   UNL     1       6.592   4.353  13.675  0.00  0.00    +0.000 A 
ATOM     15  F   UNL     1       6.870   4.020  12.408  0.00  0.00    +0.000 F 
ATOM     16  C   UNL     1       5.441   3.884  14.285  0.00  0.00    +0.000 A 
ATOM     17  C   UNL     1       5.200   4.249  15.603  0.00  0.00    +0.000 A 
ATOM     18  F   UNL     1       4.099   3.792  16.217  0.00  0.00    +0.000 F 
ENDBRANCH  10  11
ENDBRANCH   8  10
ENDBRANCH   1   7
BRANCH   4  19
ATOM     19  C   UNL     1       0.533   9.339  20.808  0.00  0.00    +0.000 C 
BRANCH  19  20
ATOM     20  C   UNL     1       1.145   9.102  22.193  0.00  0.00    +0.000 C 
BRANCH  20  21
ATOM     21  N   UNL     1       0.407   9.830  23.236  0.00  0.00    +0.000 NA
ATOM     22  H   UNL     1       0.836  10.748  23.375  0.00  0.00    +0.000 HD
BRANCH  21  23
ATOM     23  C   UNL     1      -0.977  10.056  22.800  0.00  0.00    +0.000 C 
BRANCH  23  24
ATOM     24  C   UNL     1      -1.418  11.444  23.123  0.00  0.00    +0.000 A 
ATOM     25  N   UNL     1      -0.678  12.535  23.121  0.00  0.00    +0.000 NA
ATOM     26  C   UNL     1      -1.541  13.566  23.405  0.00  0.00    +0.000 A 
ATOM     27  C   UNL     1      -1.294  14.942  23.498  0.00  0.00    +0.000 A 
ATOM     28  C   UNL     1      -2.365  15.800  23.784  0.00  0.00    +0.000 A 
ATOM     29  C   UNL     1      -3.653  15.294  23.981  0.00  0.00    +0.000 A 
ATOM     30  C   UNL     1      -3.917  13.922  23.901  0.00  0.00    +0.000 A 
ATOM     31  C   UNL     1      -2.832  13.092  23.607  0.00  0.00    +0.000 A 
ATOM     32  N   UNL     1      -2.722  11.735  23.444  0.00  0.00    +0.000 N 
ATOM     33  H   UNL     1      -3.462  11.054  23.533  0.00  0.00    +0.000 HD
ENDBRANCH  23  24
ENDBRANCH  21  23
ENDBRANCH  20  21
ENDBRANCH  19  20
ENDBRANCH   4  19
TORSDOF 8
ENDMDL
MODEL 8
REMARK VINA RESULT:      -7.0      1.628      2.084
REMARK  Name = 
REMARK  8 active torsions:
REMARK  status: ('A' for Active; 'I' for Inactive)
REMARK    1  A    between atoms: C_2  and  C_13
REMARK    2  A    between atoms: N_3  and  C_4
REMARK    3  A    between atoms: C_4  and  C_5
REMARK    4  A    between atoms: C_16  and  C_17
REMARK    5  A    between atoms: C_17  and  C_18
REMARK    6  A    between atoms: C_18  and  N_19
REMARK    7  A    between atoms: N_19  and  C_20
REMARK    8  A    between atoms: C_20  and  C_21
REMARK                            x       y       z     vdW  Elec       q    Type
REMARK                         _______ _______ _______ _____ _____    ______ ____
ROOT
ATOM      1  C   UNL     1       2.108   6.658  19.010  0.00  0.00    +0.000 A 
ATOM      2  C   UNL     1       2.036   6.344  20.356  0.00  0.00    +0.000 A 
ATOM      3  S   UNL     1       1.833   4.659  20.568  0.00  0.00    +0.000 S 
ATOM      4  C   UNL     1       1.853   4.452  18.862  0.00  0.00    +0.000 A 
ATOM      5  N   UNL     1       1.988   5.557  18.155  0.00  0.00    +0.000 NA
ENDROOT
BRANCH   1   7
ATOM      6  O   UNL     1       3.178   8.301  17.684  0.00  0.00    +0.000 OA
ATOM      7  C   UNL     1       2.309   8.019  18.507  0.00  0.00    +0.000 C 
ATOM      8  N   UNL     1       1.449   8.951  19.029  0.00  0.00    +0.000 N 
ATOM      9  H   UNL     1       0.882   8.690  19.835  0.00  0.00    +0.000 HD
BRANCH   8  10
ATOM     10  C   UNL     1       1.530  10.341  18.644  0.00  0.00    +0.000 C 
BRANCH  10  11
ATOM     11  C   UNL     1       0.959  11.274  19.684  0.00  0.00    +0.000 A 
ATOM     12  N   UNL     1      -0.131  10.857  20.393  0.00  0.00    +0.000 NA
ATOM     13  C   UNL     1      -0.588  11.694  21.357  0.00  0.00    +0.000 A 
ATOM     14  C   UNL     1      -0.011  12.920  21.648  0.00  0.00    +0.000 A 
ATOM     15  F   UNL     1      -0.515  13.694  22.618  0.00  0.00    +0.000 F 
ATOM     16  C   UNL     1       1.097  13.333  20.929  0.00  0.00    +0.000 A 
ATOM     17  C   UNL     1       1.590  12.493  19.939  0.00  0.00    +0.000 A 
ATOM     18  F   UNL     1       2.672  12.867  19.242  0.00  0.00    +0.000 F 
ENDBRANCH  10  11
ENDBRANCH   8  10
ENDBRANCH   1   7
BRANCH   4  19
ATOM     19  C   UNL     1       1.708   3.083  18.267  0.00  0.00    +0.000 C 
BRANCH  19  20
ATOM     20  C   UNL     1       2.494   2.052  19.084  0.00  0.00    +0.000 C 
BRANCH  20  21
ATOM     21  N   UNL     1       3.942   2.176  18.850  0.00  0.00    +0.000 NA
ATOM     22  H   UNL     1       4.369   1.247  18.879  0.00  0.00    +0.000 HD
BRANCH  21  23
ATOM     23  C   UNL     1       4.184   2.727  17.511  0.00  0.00    +0.000 C 
BRANCH  23  24
ATOM     24  C   UNL     1       5.118   3.889  17.573  0.00  0.00    +0.000 A 
ATOM     25  N   UNL     1       5.110   4.958  16.802  0.00  0.00    +0.000 NA
ATOM     26  C   UNL     1       6.103   5.772  17.291  0.00  0.00    +0.000 A 
ATOM     27  C   UNL     1       6.508   7.045  16.869  0.00  0.00    +0.000 A 
ATOM     28  C   UNL     1       7.547   7.684  17.559  0.00  0.00    +0.000 A 
ATOM     29  C   UNL     1       8.174   7.063  18.643  0.00  0.00    +0.000 A 
ATOM     30  C   UNL     1       7.788   5.787  19.074  0.00  0.00    +0.000 A 
ATOM     31  C   UNL     1       6.745   5.179  18.372  0.00  0.00    +0.000 A 
ATOM     32  N   UNL     1       6.113   3.970  18.516  0.00  0.00    +0.000 N 
ATOM     33  H   UNL     1       6.325   3.256  19.197  0.00  0.00    +0.000 HD
ENDBRANCH  23  24
ENDBRANCH  21  23
ENDBRANCH  20  21
ENDBRANCH  19  20
ENDBRANCH   4  19
TORSDOF 8
ENDMDL
MODEL 9
REMARK VINA RESULT:      -7.0      2.426      3.520
REMARK  Name = 
REMARK  8 active torsions:
REMARK  status: ('A' for Active; 'I' for Inactive)
REMARK    1  A    between atoms: C_2  and  C_13
REMARK    2  A    between atoms: N_3  and  C_4
REMARK    3  A    between atoms: C_4  and  C_5
REMARK    4  A    between atoms: C_16  and  C_17
REMARK    5  A    between atoms: C_17  and  C_18
REMARK    6  A    between atoms: C_18  and  N_19
REMARK    7  A    between atoms: N_19  and  C_20
REMARK    8  A    between atoms: C_20  and  C_21
REMARK                            x       y       z     vdW  Elec       q    Type
REMARK                         _______ _______ _______ _____ _____    ______ ____
ROOT
ATOM      1  C   UNL     1       2.153   7.120  18.987  0.00  0.00    +0.000 A 
ATOM      2  C   UNL     1       2.002   6.786  20.322  0.00  0.00    +0.000 A 
ATOM      3  S   UNL     1       2.434   5.151  20.582  0.00  0.00    +0.000 S 
ATOM      4  C   UNL     1       2.792   4.989  18.909  0.00  0.00    +0.000 A 
ATOM      5  N   UNL     1       2.598   6.069  18.178  0.00  0.00    +0.000 NA
ENDROOT
BRANCH   1   7
ATOM      6  O   UNL     1       2.290   8.825  17.351  0.00  0.00    +0.000 OA
ATOM      7  C   UNL     1       1.888   8.458  18.454  0.00  0.00    +0.000 C 
ATOM      8  N   UNL     1       1.156   9.267  19.285  0.00  0.00    +0.000 N 
ATOM      9  H   UNL     1       1.015   8.970  20.250  0.00  0.00    +0.000 HD
BRANCH   8  10
ATOM     10  C   UNL     1       0.826  10.621  18.908  0.00  0.00    +0.000 C 
BRANCH  10  11
ATOM     11  C   UNL     1      -0.633  10.796  18.561  0.00  0.00    +0.000 A 
ATOM     12  N   UNL     1      -1.180   9.952  17.639  0.00  0.00    +0.000 NA
ATOM     13  C   UNL     1      -2.505  10.098  17.387  0.00  0.00    +0.000 A 
ATOM     14  C   UNL     1      -3.307  11.040  18.013  0.00  0.00    +0.000 A 
ATOM     15  F   UNL     1      -4.610  11.126  17.717  0.00  0.00    +0.000 F 
ATOM     16  C   UNL     1      -2.746  11.889  18.952  0.00  0.00    +0.000 A 
ATOM     17  C   UNL     1      -1.392  11.757  19.232  0.00  0.00    +0.000 A 
ATOM     18  F   UNL     1      -0.833  12.559  20.150  0.00  0.00    +0.000 F 
ENDBRANCH  10  11
ENDBRANCH   8  10
ENDBRANCH   1   7
BRANCH   4  19
ATOM     19  C   UNL     1       3.278   3.679  18.365  0.00  0.00    +0.000 C 
BRANCH  19  20
ATOM     20  C   UNL     1       4.796   3.709  18.158  0.00  0.00    +0.000 C 
BRANCH  20  21
ATOM     21  N   UNL     1       5.327   5.075  18.288  0.00  0.00    +0.000 NA
ATOM     22  H   UNL     1       5.369   5.328  19.278  0.00  0.00    +0.000 HD
BRANCH  21  23
ATOM     23  C   UNL     1       6.699   5.127  17.766  0.00  0.00    +0.000 C 
BRANCH  23  24
ATOM     24  C   UNL     1       6.715   4.930  16.287  0.00  0.00    +0.000 A 
ATOM     25  N   UNL     1       7.574   5.438  15.426  0.00  0.00    +0.000 NA
ATOM     26  C   UNL     1       7.225   4.912  14.205  0.00  0.00    +0.000 A 
ATOM     27  C   UNL     1       7.820   5.092  12.948  0.00  0.00    +0.000 A 
ATOM     28  C   UNL     1       7.279   4.417  11.846  0.00  0.00    +0.000 A 
ATOM     29  C   UNL     1       6.164   3.587  11.992  0.00  0.00    +0.000 A 
ATOM     30  C   UNL     1       5.552   3.403  13.237  0.00  0.00    +0.000 A 
ATOM     31  C   UNL     1       6.117   4.081  14.319  0.00  0.00    +0.000 A 
ATOM     32  N   UNL     1       5.798   4.128  15.652  0.00  0.00    +0.000 N 
ATOM     33  H   UNL     1       5.031   3.655  16.106  0.00  0.00    +0.000 HD
ENDBRANCH  23  24
ENDBRANCH  21  23
ENDBRANCH  20  21
ENDBRANCH  19  20
ENDBRANCH   4  19
TORSDOF 8
ENDMDL
