MODEL 1
REMARK VINA RESULT:      -6.7      0.000      0.000
REMARK  Name = 
REMARK  2 active torsions:
REMARK  status: ('A' for Active; 'I' for Inactive)
REMARK    1  A    between atoms: C_3  and  N_4
REMARK    2  A    between atoms: C_10  and  N_11
REMARK                            x       y       z     vdW  Elec       q    Type
REMARK                         _______ _______ _______ _____ _____    ______ ____
ROOT
ATOM      1  C   UNL     1       2.957   7.337  17.960  0.00  0.00    +0.000 A 
ATOM      2  C   UNL     1       2.350   6.414  18.812  0.00  0.00    +0.000 A 
ATOM      3  C   UNL     1       2.915   5.145  18.975  0.00  0.00    +0.000 A 
ATOM      4  C   UNL     1       4.053   4.787  18.231  0.00  0.00    +0.000 A 
ATOM      5  C   UNL     1       4.651   5.708  17.356  0.00  0.00    +0.000 A 
ATOM      6  C   UNL     1       4.107   6.993  17.243  0.00  0.00    +0.000 A 
ENDROOT
BRANCH   3   7
ATOM      7  N   UNL     1       2.378   4.239  19.928  0.00  0.00    +0.000 N 
ATOM      8  C   UNL     1       1.799   3.015  19.669  0.00  0.00    +0.000 A 
ATOM      9  C   UNL     1       1.530   2.455  20.895  0.00  0.00    +0.000 A 
ATOM     10  N   UNL     1       1.875   3.309  21.903  0.00  0.00    +0.000 NA
ATOM     11  C   UNL     1       2.373   4.367  21.300  0.00  0.00    +0.000 A 
ENDBRANCH   3   7
BRANCH   5  12
ATOM     12  N   UNL     1       5.798   5.337  16.597  0.00  0.00    +0.000 N 
ATOM     13  C   UNL     1       6.954   4.743  17.040  0.00  0.00    +0.000 A 
ATOM     14  N   UNL     1       7.788   4.554  16.044  0.00  0.00    +0.000 NA
ATOM     15  N   UNL     1       7.190   5.029  14.908  0.00  0.00    +0.000 NA
ATOM     16  C   UNL     1       6.009   5.492  15.249  0.00  0.00    +0.000 A 
ENDBRANCH   5  12
TORSDOF 2
ENDMDL
MODEL 2
REMARK VINA RESULT:      -6.6      0.790      1.036
REMARK  Name = 
REMARK  2 active torsions:
REMARK  status: ('A' for Active; 'I' for Inactive)
REMARK    1  A    between atoms: C_3  and  N_4
REMARK    2  A    between atoms: C_10  and  N_11
REMARK                            x       y       z     vdW  Elec       q    Type
REMARK                         _______ _______ _______ _____ _____    ______ ____
ROOT
ATOM      1  C   UNL     1       3.031   7.261  18.149  0.00  0.00    +0.000 A 
ATOM      2  C   UNL     1       2.607   6.309  19.077  0.00  0.00    +0.000 A 
ATOM      3  C   UNL     1       3.219   5.052  19.110  0.00  0.00    +0.000 A 
ATOM      4  C   UNL     1       4.212   4.735  18.167  0.00  0.00    +0.000 A 
ATOM      5  C   UNL     1       4.623   5.684  17.218  0.00  0.00    +0.000 A 
ATOM      6  C   UNL     1       4.040   6.957  17.230  0.00  0.00    +0.000 A 
ENDROOT
BRANCH   3   7
ATOM      7  N   UNL     1       2.881   4.118  20.126  0.00  0.00    +0.000 N 
ATOM      8  C   UNL     1       3.325   2.817  20.232  0.00  0.00    +0.000 A 
ATOM      9  C   UNL     1       2.826   2.341  21.421  0.00  0.00    +0.000 A 
ATOM     10  N   UNL     1       2.048   3.283  22.029  0.00  0.00    +0.000 NA
ATOM     11  C   UNL     1       2.093   4.330  21.235  0.00  0.00    +0.000 A 
ENDBRANCH   3   7
BRANCH   5  12
ATOM     12  N   UNL     1       5.622   5.354  16.259  0.00  0.00    +0.000 N 
ATOM     13  C   UNL     1       5.503   4.555  15.148  0.00  0.00    +0.000 A 
ATOM     14  N   UNL     1       6.644   4.487  14.502  0.00  0.00    +0.000 NA
ATOM     15  N   UNL     1       7.552   5.251  15.185  0.00  0.00    +0.000 NA
ATOM     16  C   UNL     1       6.935   5.760  16.226  0.00  0.00    +0.000 A 
ENDBRANCH   5  12
TORSDOF 2
ENDMDL
MODEL 3
REMARK VINA RESULT:      -6.6      0.542      5.804
REMARK  Name = 
REMARK  2 active torsions:
REMARK  status: ('A' for Active; 'I' for Inactive)
REMARK    1  A    between atoms: C_3  and  N_4
REMARK    2  A    between atoms: C_10  and  N_11
REMARK                            x       y       z     vdW  Elec       q    Type
REMARK                         _______ _______ _______ _____ _____    ______ ____
ROOT
ATOM      1  C   UNL     1       2.992   7.266  18.170  0.00  0.00    +0.000 A 
ATOM      2  C   UNL     1       4.118   6.898  17.431  0.00  0.00    +0.000 A 
ATOM      3  C   UNL     1       4.631   5.603  17.548  0.00  0.00    +0.000 A 
ATOM      4  C   UNL     1       4.049   4.701  18.455  0.00  0.00    +0.000 A 
ATOM      5  C   UNL     1       2.930   5.076  19.215  0.00  0.00    +0.000 A 
ATOM      6  C   UNL     1       2.393   6.360  19.049  0.00  0.00    +0.000 A 
ENDROOT
BRANCH   3   7
ATOM      7  N   UNL     1       5.701   5.179  16.714  0.00  0.00    +0.000 N 
ATOM      8  C   UNL     1       5.703   5.126  15.337  0.00  0.00    +0.000 A 
ATOM      9  C   UNL     1       6.978   4.762  14.973  0.00  0.00    +0.000 A 
ATOM     10  N   UNL     1       7.750   4.538  16.077  0.00  0.00    +0.000 NA
ATOM     11  C   UNL     1       6.964   4.788  17.101  0.00  0.00    +0.000 A 
ENDBRANCH   3   7
BRANCH   5  12
ATOM     12  N   UNL     1       2.349   4.162  20.139  0.00  0.00    +0.000 N 
ATOM     13  C   UNL     1       1.397   3.202  19.900  0.00  0.00    +0.000 A 
ATOM     14  N   UNL     1       1.110   2.550  21.003  0.00  0.00    +0.000 NA
ATOM     15  N   UNL     1       1.877   3.077  22.007  0.00  0.00    +0.000 NA
ATOM     16  C   UNL     1       2.608   4.034  21.482  0.00  0.00    +0.000 A 
ENDBRANCH   5  12
TORSDOF 2
ENDMDL
MODEL 4
REMARK VINA RESULT:      -6.6      1.123      5.810
REMARK  Name = 
REMARK  2 active torsions:
REMARK  status: ('A' for Active; 'I' for Inactive)
REMARK    1  A    between atoms: C_3  and  N_4
REMARK    2  A    between atoms: C_10  and  N_11
REMARK                            x       y       z     vdW  Elec       q    Type
REMARK                         _______ _______ _______ _____ _____    ______ ____
ROOT
ATOM      1  C   UNL     1       3.203   7.549  17.853  0.00  0.00    +0.000 A 
ATOM      2  C   UNL     1       4.298   7.159  17.080  0.00  0.00    +0.000 A 
ATOM      3  C   UNL     1       4.576   5.799  16.909  0.00  0.00    +0.000 A 
ATOM      4  C   UNL     1       3.791   4.838  17.569  0.00  0.00    +0.000 A 
ATOM      5  C   UNL     1       2.702   5.231  18.365  0.00  0.00    +0.000 A 
ATOM      6  C   UNL     1       2.402   6.594  18.484  0.00  0.00    +0.000 A 
ENDROOT
BRANCH   3   7
ATOM      7  N   UNL     1       5.612   5.386  16.030  0.00  0.00    +0.000 N 
ATOM      8  C   UNL     1       5.465   4.687  14.851  0.00  0.00    +0.000 A 
ATOM      9  C   UNL     1       6.720   4.610  14.295  0.00  0.00    +0.000 A 
ATOM     10  N   UNL     1       7.646   5.192  15.112  0.00  0.00    +0.000 NA
ATOM     11  C   UNL     1       6.961   5.641  16.142  0.00  0.00    +0.000 A 
ENDBRANCH   3   7
BRANCH   5  12
ATOM     12  N   UNL     1       1.916   4.254  19.038  0.00  0.00    +0.000 N 
ATOM     13  C   UNL     1       1.615   4.180  20.376  0.00  0.00    +0.000 A 
ATOM     14  N   UNL     1       0.861   3.134  20.624  0.00  0.00    +0.000 NA
ATOM     15  N   UNL     1       0.647   2.487  19.437  0.00  0.00    +0.000 NA
ATOM     16  C   UNL     1       1.279   3.160  18.502  0.00  0.00    +0.000 A 
ENDBRANCH   5  12
TORSDOF 2
ENDMDL
MODEL 5
REMARK VINA RESULT:      -6.6      0.593      1.326
REMARK  Name = 
REMARK  2 active torsions:
REMARK  status: ('A' for Active; 'I' for Inactive)
REMARK    1  A    between atoms: C_3  and  N_4
REMARK    2  A    between atoms: C_10  and  N_11
REMARK                            x       y       z     vdW  Elec       q    Type
REMARK                         _______ _______ _______ _____ _____    ______ ____
ROOT
ATOM      1  C   UNL     1       3.042   7.435  17.964  0.00  0.00    +0.000 A 
ATOM      2  C   UNL     1       2.351   6.483  18.715  0.00  0.00    +0.000 A 
ATOM      3  C   UNL     1       2.831   5.171  18.782  0.00  0.00    +0.000 A 
ATOM      4  C   UNL     1       3.970   4.806  18.042  0.00  0.00    +0.000 A 
ATOM      5  C   UNL     1       4.653   5.758  17.268  0.00  0.00    +0.000 A 
ATOM      6  C   UNL     1       4.192   7.081  17.252  0.00  0.00    +0.000 A 
ENDROOT
BRANCH   3   7
ATOM      7  N   UNL     1       2.208   4.224  19.637  0.00  0.00    +0.000 N 
ATOM      8  C   UNL     1       2.240   4.208  21.015  0.00  0.00    +0.000 A 
ATOM      9  C   UNL     1       1.413   3.181  21.402  0.00  0.00    +0.000 A 
ATOM     10  N   UNL     1       0.911   2.528  20.313  0.00  0.00    +0.000 NA
ATOM     11  C   UNL     1       1.404   3.165  19.274  0.00  0.00    +0.000 A 
ENDBRANCH   3   7
BRANCH   5  12
ATOM     12  N   UNL     1       5.799   5.382  16.514  0.00  0.00    +0.000 N 
ATOM     13  C   UNL     1       6.004   5.503  15.161  0.00  0.00    +0.000 A 
ATOM     14  N   UNL     1       7.189   5.045  14.829  0.00  0.00    +0.000 NA
ATOM     15  N   UNL     1       7.797   4.604  15.973  0.00  0.00    +0.000 NA
ATOM     16  C   UNL     1       6.963   4.808  16.966  0.00  0.00    +0.000 A 
ENDBRANCH   5  12
TORSDOF 2
ENDMDL
MODEL 6
REMARK VINA RESULT:      -6.5      0.986      1.287
REMARK  Name = 
REMARK  2 active torsions:
REMARK  status: ('A' for Active; 'I' for Inactive)
REMARK    1  A    between atoms: C_3  and  N_4
REMARK    2  A    between atoms: C_10  and  N_11
REMARK                            x       y       z     vdW  Elec       q    Type
REMARK                         _______ _______ _______ _____ _____    ______ ____
ROOT
ATOM      1  C   UNL     1       2.979   7.627  18.057  0.00  0.00    +0.000 A 
ATOM      2  C   UNL     1       2.197   6.598  18.582  0.00  0.00    +0.000 A 
ATOM      3  C   UNL     1       2.556   5.266  18.351  0.00  0.00    +0.000 A 
ATOM      4  C   UNL     1       3.666   4.975  17.539  0.00  0.00    +0.000 A 
ATOM      5  C   UNL     1       4.441   6.010  16.992  0.00  0.00    +0.000 A 
ATOM      6  C   UNL     1       4.101   7.339  17.275  0.00  0.00    +0.000 A 
ENDROOT
BRANCH   3   7
ATOM      7  N   UNL     1       1.840   4.212  18.978  0.00  0.00    +0.000 N 
ATOM      8  C   UNL     1       1.426   3.035  18.394  0.00  0.00    +0.000 A 
ATOM      9  C   UNL     1       0.874   2.283  19.404  0.00  0.00    +0.000 A 
ATOM     10  N   UNL     1       0.885   2.974  20.582  0.00  0.00    +0.000 NA
ATOM     11  C   UNL     1       1.461   4.123  20.299  0.00  0.00    +0.000 A 
ENDBRANCH   3   7
BRANCH   5  12
ATOM     12  N   UNL     1       5.559   5.709  16.163  0.00  0.00    +0.000 N 
ATOM     13  C   UNL     1       5.558   5.280  14.858  0.00  0.00    +0.000 A 
ATOM     14  N   UNL     1       6.786   5.108  14.426  0.00  0.00    +0.000 NA
ATOM     15  N   UNL     1       7.633   5.424  15.453  0.00  0.00    +0.000 NA
ATOM     16  C   UNL     1       6.894   5.778  16.479  0.00  0.00    +0.000 A 
ENDBRANCH   5  12
TORSDOF 2
ENDMDL
MODEL 7
REMARK VINA RESULT:      -6.5      2.121      3.474
REMARK  Name = 
REMARK  2 active torsions:
REMARK  status: ('A' for Active; 'I' for Inactive)
REMARK    1  A    between atoms: C_3  and  N_4
REMARK    2  A    between atoms: C_10  and  N_11
REMARK                            x       y       z     vdW  Elec       q    Type
REMARK                         _______ _______ _______ _____ _____    ______ ____
ROOT
ATOM      1  C   UNL     1       2.413   4.037  18.103  0.00  0.00    +0.000 A 
ATOM      2  C   UNL     1       1.947   5.266  18.570  0.00  0.00    +0.000 A 
ATOM      3  C   UNL     1       2.678   6.430  18.311  0.00  0.00    +0.000 A 
ATOM      4  C   UNL     1       3.909   6.344  17.637  0.00  0.00    +0.000 A 
ATOM      5  C   UNL     1       4.390   5.105  17.186  0.00  0.00    +0.000 A 
ATOM      6  C   UNL     1       3.622   3.954  17.405  0.00  0.00    +0.000 A 
ENDROOT
BRANCH   3   7
ATOM      7  N   UNL     1       2.156   7.699  18.675  0.00  0.00    +0.000 N 
ATOM      8  C   UNL     1       1.922   8.768  17.836  0.00  0.00    +0.000 A 
ATOM      9  C   UNL     1       1.318   9.732  18.607  0.00  0.00    +0.000 A 
ATOM     10  N   UNL     1       1.216   9.318  19.904  0.00  0.00    +0.000 NA
ATOM     11  C   UNL     1       1.727   8.107  19.919  0.00  0.00    +0.000 A 
ENDBRANCH   3   7
BRANCH   5  12
ATOM     12  N   UNL     1       5.642   5.022  16.512  0.00  0.00    +0.000 N 
ATOM     13  C   UNL     1       6.809   4.450  16.955  0.00  0.00    +0.000 A 
ATOM     14  N   UNL     1       7.755   4.569  16.052  0.00  0.00    +0.000 NA
ATOM     15  N   UNL     1       7.223   5.234  14.981  0.00  0.00    +0.000 NA
ATOM     16  C   UNL     1       5.968   5.499  15.266  0.00  0.00    +0.000 A 
ENDBRANCH   5  12
TORSDOF 2
ENDMDL
MODEL 8
REMARK VINA RESULT:      -6.4      2.208      3.669
REMARK  Name = 
REMARK  2 active torsions:
REMARK  status: ('A' for Active; 'I' for Inactive)
REMARK    1  A    between atoms: C_3  and  N_4
REMARK    2  A    between atoms: C_10  and  N_11
REMARK                            x       y       z     vdW  Elec       q    Type
REMARK                         _______ _______ _______ _____ _____    ______ ____
ROOT
ATOM      1  C   UNL     1       2.271   3.979  17.779  0.00  0.00    +0.000 A 
ATOM      2  C   UNL     1       1.795   5.199  18.259  0.00  0.00    +0.000 A 
ATOM      3  C   UNL     1       2.614   6.331  18.211  0.00  0.00    +0.000 A 
ATOM      4  C   UNL     1       3.934   6.217  17.738  0.00  0.00    +0.000 A 
ATOM      5  C   UNL     1       4.422   4.984  17.276  0.00  0.00    +0.000 A 
ATOM      6  C   UNL     1       3.572   3.870  17.280  0.00  0.00    +0.000 A 
ENDROOT
BRANCH   3   7
ATOM      7  N   UNL     1       2.102   7.603  18.583  0.00  0.00    +0.000 N 
ATOM      8  C   UNL     1       1.722   8.001  19.847  0.00  0.00    +0.000 A 
ATOM      9  C   UNL     1       1.399   9.333  19.743  0.00  0.00    +0.000 A 
ATOM     10  N   UNL     1       1.517   9.760  18.452  0.00  0.00    +0.000 NA
ATOM     11  C   UNL     1       1.932   8.709  17.780  0.00  0.00    +0.000 A 
ENDBRANCH   3   7
BRANCH   5  12
ATOM     12  N   UNL     1       5.761   4.872  16.807  0.00  0.00    +0.000 N 
ATOM     13  C   UNL     1       6.235   5.071  15.534  0.00  0.00    +0.000 A 
ATOM     14  N   UNL     1       7.533   4.875  15.487  0.00  0.00    +0.000 NA
ATOM     15  N   UNL     1       7.946   4.537  16.748  0.00  0.00    +0.000 NA
ATOM     16  C   UNL     1       6.885   4.537  17.523  0.00  0.00    +0.000 A 
ENDBRANCH   5  12
TORSDOF 2
ENDMDL
MODEL 9
REMARK VINA RESULT:      -6.3      2.051      3.248
REMARK  Name = 
REMARK  2 active torsions:
REMARK  status: ('A' for Active; 'I' for Inactive)
REMARK    1  A    between atoms: C_3  and  N_4
REMARK    2  A    between atoms: C_10  and  N_11
REMARK                            x       y       z     vdW  Elec       q    Type
REMARK                         _______ _______ _______ _____ _____    ______ ____
ROOT
ATOM      1  C   UNL     1       2.238   3.672  17.696  0.00  0.00    +0.000 A 
ATOM      2  C   UNL     1       1.776   4.808  18.362  0.00  0.00    +0.000 A 
ATOM      3  C   UNL     1       2.598   5.935  18.463  0.00  0.00    +0.000 A 
ATOM      4  C   UNL     1       3.906   5.892  17.949  0.00  0.00    +0.000 A 
ATOM      5  C   UNL     1       4.380   4.742  17.299  0.00  0.00    +0.000 A 
ATOM      6  C   UNL     1       3.528   3.639  17.157  0.00  0.00    +0.000 A 
ENDROOT
BRANCH   3   7
ATOM      7  N   UNL     1       2.098   7.137  19.031  0.00  0.00    +0.000 N 
ATOM      8  C   UNL     1       1.730   7.339  20.344  0.00  0.00    +0.000 A 
ATOM      9  C   UNL     1       1.417   8.673  20.450  0.00  0.00    +0.000 A 
ATOM     10  N   UNL     1       1.528   9.292  19.239  0.00  0.00    +0.000 NA
ATOM     11  C   UNL     1       1.930   8.354  18.409  0.00  0.00    +0.000 A 
ENDBRANCH   3   7
BRANCH   5  12
ATOM     12  N   UNL     1       5.708   4.701  16.789  0.00  0.00    +0.000 N 
ATOM     13  C   UNL     1       6.880   4.521  17.482  0.00  0.00    +0.000 A 
ATOM     14  N   UNL     1       7.909   4.541  16.667  0.00  0.00    +0.000 NA
ATOM     15  N   UNL     1       7.429   4.740  15.401  0.00  0.00    +0.000 NA
ATOM     16  C   UNL     1       6.122   4.835  15.485  0.00  0.00    +0.000 A 
ENDBRANCH   5  12
TORSDOF 2
ENDMDL
