MODEL 1
REMARK VINA RESULT:      -6.5      0.000      0.000
REMARK  Name = 
REMARK  2 active torsions:
REMARK  status: ('A' for Active; 'I' for Inactive)
REMARK    1  A    between atoms: C_2  and  OXT_3
REMARK    2  A    between atoms: C_2  and  CA_4
REMARK                            x       y       z     vdW  Elec       q    Type
REMARK                         _______ _______ _______ _____ _____    ______ ____
ROOT
ATOM      1  CA  UNL     1       5.862   4.485  17.410  0.00  0.00    +0.000 A 
ATOM      2  C   UNL     1       4.605   4.741  16.869  0.00  0.00    +0.000 A 
ATOM      3  C   UNL     1       3.641   4.104  17.684  0.00  0.00    +0.000 A 
ATOM      4  C   UNL     1       4.319   3.498  18.717  0.00  0.00    +0.000 A 
ATOM      5  N   UNL     1       5.655   3.715  18.544  0.00  0.00    +0.000 N 
ATOM      6  C   UNL     1       3.707   2.727  19.832  0.00  0.00    +0.000 C 
ATOM      7  C   UNL     1       2.292   2.280  19.415  0.00  0.00    +0.000 C 
ATOM      8  C   UNL     1       1.489   3.431  18.777  0.00  0.00    +0.000 C 
ATOM      9  C   UNL     1       2.164   3.995  17.512  0.00  0.00    +0.000 C 
ATOM     10  H   UNL     1       6.404   3.361  19.128  0.00  0.00    +0.000 HD
ENDROOT
BRANCH   1  12
ATOM     11  O   UNL     1       7.462   5.728  16.200  0.00  0.00    +0.000 OA
ATOM     12  C   UNL     1       7.199   4.840  16.997  0.00  0.00    +0.000 C 
BRANCH  12  13
ATOM     13  OXT UNL     1       8.156   4.085  17.582  0.00  0.00    +0.000 OA
ATOM     14  HXT UNL     1       7.824   3.231  17.904  0.00  0.00    +0.000 HD
ENDBRANCH  12  13
ENDBRANCH   1  12
TORSDOF 2
ENDMDL
MODEL 2
REMARK VINA RESULT:      -6.4      1.666      1.666
REMARK  Name = 
REMARK  2 active torsions:
REMARK  status: ('A' for Active; 'I' for Inactive)
REMARK    1  A    between atoms: C_2  and  OXT_3
REMARK    2  A    between atoms: C_2  and  CA_4
REMARK                            x       y       z     vdW  Elec       q    Type
REMARK                         _______ _______ _______ _____ _____    ______ ____
ROOT
ATOM      1  CA  UNL     1       5.936   5.184  18.894  0.00  0.00    +0.000 A 
ATOM      2  C   UNL     1       4.736   5.773  18.505  0.00  0.00    +0.000 A 
ATOM      3  C   UNL     1       3.772   4.748  18.360  0.00  0.00    +0.000 A 
ATOM      4  C   UNL     1       4.389   3.563  18.689  0.00  0.00    +0.000 A 
ATOM      5  N   UNL     1       5.693   3.823  18.995  0.00  0.00    +0.000 N 
ATOM      6  C   UNL     1       3.751   2.219  18.701  0.00  0.00    +0.000 C 
ATOM      7  C   UNL     1       2.479   2.261  17.833  0.00  0.00    +0.000 C 
ATOM      8  C   UNL     1       1.612   3.498  18.140  0.00  0.00    +0.000 C 
ATOM      9  C   UNL     1       2.360   4.822  17.890  0.00  0.00    +0.000 C 
ATOM     10  H   UNL     1       6.402   3.142  19.241  0.00  0.00    +0.000 HD
ENDROOT
BRANCH   1  12
ATOM     11  O   UNL     1       7.885   6.404  18.365  0.00  0.00    +0.000 OA
ATOM     12  C   UNL     1       7.253   5.717  19.152  0.00  0.00    +0.000 C 
BRANCH  12  13
ATOM     13  OXT UNL     1       7.735   5.378  20.370  0.00  0.00    +0.000 OA
ATOM     14  HXT UNL     1       7.107   5.547  21.090  0.00  0.00    +0.000 HD
ENDBRANCH  12  13
ENDBRANCH   1  12
TORSDOF 2
ENDMDL
MODEL 3
REMARK VINA RESULT:      -6.2      1.161      1.161
REMARK  Name = 
REMARK  2 active torsions:
REMARK  status: ('A' for Active; 'I' for Inactive)
REMARK    1  A    between atoms: C_2  and  OXT_3
REMARK    2  A    between atoms: C_2  and  CA_4
REMARK                            x       y       z     vdW  Elec       q    Type
REMARK                         _______ _______ _______ _____ _____    ______ ____
ROOT
ATOM      1  CA  UNL     1       5.603   4.603  16.612  0.00  0.00    +0.000 A 
ATOM      2  C   UNL     1       4.517   5.415  16.924  0.00  0.00    +0.000 A 
ATOM      3  C   UNL     1       3.516   4.602  17.504  0.00  0.00    +0.000 A 
ATOM      4  C   UNL     1       4.016   3.322  17.562  0.00  0.00    +0.000 A 
ATOM      5  N   UNL     1       5.265   3.320  17.012  0.00  0.00    +0.000 N 
ATOM      6  C   UNL     1       3.316   2.133  18.118  0.00  0.00    +0.000 C 
ATOM      7  C   UNL     1       1.802   2.418  18.160  0.00  0.00    +0.000 C 
ATOM      8  C   UNL     1       1.492   3.808  18.751  0.00  0.00    +0.000 C 
ATOM      9  C   UNL     1       2.134   4.951  17.942  0.00  0.00    +0.000 C 
ATOM     10  H   UNL     1       5.866   2.514  16.884  0.00  0.00    +0.000 HD
ENDROOT
BRANCH   1  12
ATOM     11  O   UNL     1       7.008   5.409  14.896  0.00  0.00    +0.000 OA
ATOM     12  C   UNL     1       6.876   4.865  15.982  0.00  0.00    +0.000 C 
BRANCH  12  13
ATOM     13  OXT UNL     1       7.931   4.442  16.715  0.00  0.00    +0.000 OA
ATOM     14  HXT UNL     1       8.127   3.499  16.592  0.00  0.00    +0.000 HD
ENDBRANCH  12  13
ENDBRANCH   1  12
TORSDOF 2
ENDMDL
MODEL 4
REMARK VINA RESULT:      -6.2      1.356      1.430
REMARK  Name = 
REMARK  2 active torsions:
REMARK  status: ('A' for Active; 'I' for Inactive)
REMARK    1  A    between atoms: C_2  and  OXT_3
REMARK    2  A    between atoms: C_2  and  CA_4
REMARK                            x       y       z     vdW  Elec       q    Type
REMARK                         _______ _______ _______ _____ _____    ______ ____
ROOT
ATOM      1  CA  UNL     1       6.089   4.724  18.058  0.00  0.00    +0.000 A 
ATOM      2  C   UNL     1       5.158   5.694  18.416  0.00  0.00    +0.000 A 
ATOM      3  C   UNL     1       4.159   5.073  19.203  0.00  0.00    +0.000 A 
ATOM      4  C   UNL     1       4.512   3.750  19.334  0.00  0.00    +0.000 A 
ATOM      5  N   UNL     1       5.664   3.537  18.634  0.00  0.00    +0.000 N 
ATOM      6  C   UNL     1       3.764   2.718  20.100  0.00  0.00    +0.000 C 
ATOM      7  C   UNL     1       2.314   3.197  20.303  0.00  0.00    +0.000 C 
ATOM      8  C   UNL     1       2.252   4.663  20.775  0.00  0.00    +0.000 C 
ATOM      9  C   UNL     1       2.902   5.636  19.772  0.00  0.00    +0.000 C 
ATOM     10  H   UNL     1       6.144   2.652  18.519  0.00  0.00    +0.000 HD
ENDROOT
BRANCH   1  12
ATOM     11  O   UNL     1       7.390   5.392  16.207  0.00  0.00    +0.000 OA
ATOM     12  C   UNL     1       7.282   4.761  17.246  0.00  0.00    +0.000 C 
BRANCH  12  13
ATOM     13  OXT UNL     1       8.292   4.015  17.750  0.00  0.00    +0.000 OA
ATOM     14  HXT UNL     1       8.977   4.546  18.188  0.00  0.00    +0.000 HD
ENDBRANCH  12  13
ENDBRANCH   1  12
TORSDOF 2
ENDMDL
MODEL 5
REMARK VINA RESULT:      -6.2      1.168      1.583
REMARK  Name = 
REMARK  2 active torsions:
REMARK  status: ('A' for Active; 'I' for Inactive)
REMARK    1  A    between atoms: C_2  and  OXT_3
REMARK    2  A    between atoms: C_2  and  CA_4
REMARK                            x       y       z     vdW  Elec       q    Type
REMARK                         _______ _______ _______ _____ _____    ______ ____
ROOT
ATOM      1  CA  UNL     1       6.036   4.502  17.660  0.00  0.00    +0.000 A 
ATOM      2  C   UNL     1       5.448   5.071  18.785  0.00  0.00    +0.000 A 
ATOM      3  C   UNL     1       4.106   4.628  18.849  0.00  0.00    +0.000 A 
ATOM      4  C   UNL     1       3.909   3.779  17.785  0.00  0.00    +0.000 A 
ATOM      5  N   UNL     1       5.064   3.715  17.062  0.00  0.00    +0.000 N 
ATOM      6  C   UNL     1       2.649   3.057  17.465  0.00  0.00    +0.000 C 
ATOM      7  C   UNL     1       1.475   3.759  18.174  0.00  0.00    +0.000 C 
ATOM      8  C   UNL     1       1.797   4.074  19.649  0.00  0.00    +0.000 C 
ATOM      9  C   UNL     1       3.021   4.997  19.803  0.00  0.00    +0.000 C 
ATOM     10  H   UNL     1       5.210   3.196  16.204  0.00  0.00    +0.000 HD
ENDROOT
BRANCH   1  12
ATOM     11  O   UNL     1       7.590   5.195  16.025  0.00  0.00    +0.000 OA
ATOM     12  C   UNL     1       7.351   4.617  17.074  0.00  0.00    +0.000 C 
BRANCH  12  13
ATOM     13  OXT UNL     1       8.315   4.013  17.805  0.00  0.00    +0.000 OA
ATOM     14  HXT UNL     1       7.993   3.240  18.297  0.00  0.00    +0.000 HD
ENDBRANCH  12  13
ENDBRANCH   1  12
TORSDOF 2
ENDMDL
MODEL 6
REMARK VINA RESULT:      -6.1      1.331      1.412
REMARK  Name = 
REMARK  2 active torsions:
REMARK  status: ('A' for Active; 'I' for Inactive)
REMARK    1  A    between atoms: C_2  and  OXT_3
REMARK    2  A    between atoms: C_2  and  CA_4
REMARK                            x       y       z     vdW  Elec       q    Type
REMARK                         _______ _______ _______ _____ _____    ______ ____
ROOT
ATOM      1  CA  UNL     1       5.823   4.820  17.089  0.00  0.00    +0.000 A 
ATOM      2  C   UNL     1       4.902   3.888  16.620  0.00  0.00    +0.000 A 
ATOM      3  C   UNL     1       3.712   4.034  17.370  0.00  0.00    +0.000 A 
ATOM      4  C   UNL     1       3.916   5.065  18.258  0.00  0.00    +0.000 A 
ATOM      5  N   UNL     1       5.190   5.527  18.100  0.00  0.00    +0.000 N 
ATOM      6  C   UNL     1       2.924   5.586  19.236  0.00  0.00    +0.000 C 
ATOM      7  C   UNL     1       1.838   4.517  19.465  0.00  0.00    +0.000 C 
ATOM      8  C   UNL     1       1.330   3.917  18.139  0.00  0.00    +0.000 C 
ATOM      9  C   UNL     1       2.451   3.239  17.328  0.00  0.00    +0.000 C 
ATOM     10  H   UNL     1       5.637   6.259  18.639  0.00  0.00    +0.000 HD
ENDROOT
BRANCH   1  12
ATOM     11  O   UNL     1       7.552   6.098  16.118  0.00  0.00    +0.000 OA
ATOM     12  C   UNL     1       7.194   5.109  16.738  0.00  0.00    +0.000 C 
BRANCH  12  13
ATOM     13  OXT UNL     1       8.064   4.165  17.164  0.00  0.00    +0.000 OA
ATOM     14  HXT UNL     1       8.297   4.257  18.102  0.00  0.00    +0.000 HD
ENDBRANCH  12  13
ENDBRANCH   1  12
TORSDOF 2
ENDMDL
MODEL 7
REMARK VINA RESULT:      -6.0      1.173      1.275
REMARK  Name = 
REMARK  2 active torsions:
REMARK  status: ('A' for Active; 'I' for Inactive)
REMARK    1  A    between atoms: C_2  and  OXT_3
REMARK    2  A    between atoms: C_2  and  CA_4
REMARK                            x       y       z     vdW  Elec       q    Type
REMARK                         _______ _______ _______ _____ _____    ______ ____
ROOT
ATOM      1  CA  UNL     1       5.958   4.496  17.947  0.00  0.00    +0.000 A 
ATOM      2  C   UNL     1       4.989   3.951  17.111  0.00  0.00    +0.000 A 
ATOM      3  C   UNL     1       3.749   3.997  17.790  0.00  0.00    +0.000 A 
ATOM      4  C   UNL     1       3.977   4.592  19.010  0.00  0.00    +0.000 A 
ATOM      5  N   UNL     1       5.307   4.878  19.110  0.00  0.00    +0.000 N 
ATOM      6  C   UNL     1       2.953   4.869  20.052  0.00  0.00    +0.000 C 
ATOM      7  C   UNL     1       1.726   3.971  19.802  0.00  0.00    +0.000 C 
ATOM      8  C   UNL     1       1.300   3.977  18.320  0.00  0.00    +0.000 C 
ATOM      9  C   UNL     1       2.414   3.475  17.381  0.00  0.00    +0.000 C 
ATOM     10  H   UNL     1       5.777   5.287  19.909  0.00  0.00    +0.000 HD
ENDROOT
BRANCH   1  12
ATOM     11  O   UNL     1       8.005   4.501  16.773  0.00  0.00    +0.000 OA
ATOM     12  C   UNL     1       7.384   4.678  17.810  0.00  0.00    +0.000 C 
BRANCH  12  13
ATOM     13  OXT UNL     1       7.985   5.069  18.957  0.00  0.00    +0.000 OA
ATOM     14  HXT UNL     1       8.802   4.580  19.145  0.00  0.00    +0.000 HD
ENDBRANCH  12  13
ENDBRANCH   1  12
TORSDOF 2
ENDMDL
MODEL 8
REMARK VINA RESULT:      -5.9      1.466      1.595
REMARK  Name = 
REMARK  2 active torsions:
REMARK  status: ('A' for Active; 'I' for Inactive)
REMARK    1  A    between atoms: C_2  and  OXT_3
REMARK    2  A    between atoms: C_2  and  CA_4
REMARK                            x       y       z     vdW  Elec       q    Type
REMARK                         _______ _______ _______ _____ _____    ______ ____
ROOT
ATOM      1  CA  UNL     1       5.760   4.749  18.786  0.00  0.00    +0.000 A 
ATOM      2  C   UNL     1       4.706   5.491  19.309  0.00  0.00    +0.000 A 
ATOM      3  C   UNL     1       3.619   4.612  19.528  0.00  0.00    +0.000 A 
ATOM      4  C   UNL     1       4.037   3.353  19.165  0.00  0.00    +0.000 A 
ATOM      5  N   UNL     1       5.319   3.437  18.705  0.00  0.00    +0.000 N 
ATOM      6  C   UNL     1       3.229   2.106  19.246  0.00  0.00    +0.000 C 
ATOM      7  C   UNL     1       1.736   2.480  19.315  0.00  0.00    +0.000 C 
ATOM      8  C   UNL     1       1.470   3.607  20.334  0.00  0.00    +0.000 C 
ATOM      9  C   UNL     1       2.234   4.902  19.997  0.00  0.00    +0.000 C 
ATOM     10  H   UNL     1       5.877   2.677  18.335  0.00  0.00    +0.000 HD
ENDROOT
BRANCH   1  12
ATOM     11  O   UNL     1       7.541   6.239  18.368  0.00  0.00    +0.000 OA
ATOM     12  C   UNL     1       7.087   5.106  18.342  0.00  0.00    +0.000 C 
BRANCH  12  13
ATOM     13  OXT UNL     1       7.797   4.050  17.882  0.00  0.00    +0.000 OA
ATOM     14  HXT UNL     1       8.112   4.170  16.971  0.00  0.00    +0.000 HD
ENDBRANCH  12  13
ENDBRANCH   1  12
TORSDOF 2
ENDMDL
MODEL 9
REMARK VINA RESULT:      -5.9      1.837      2.130
REMARK  Name = 
REMARK  2 active torsions:
REMARK  status: ('A' for Active; 'I' for Inactive)
REMARK    1  A    between atoms: C_2  and  OXT_3
REMARK    2  A    between atoms: C_2  and  CA_4
REMARK                            x       y       z     vdW  Elec       q    Type
REMARK                         _______ _______ _______ _____ _____    ______ ____
ROOT
ATOM      1  CA  UNL     1       5.130   4.896  19.004  0.00  0.00    +0.000 A 
ATOM      2  C   UNL     1       4.622   3.737  18.427  0.00  0.00    +0.000 A 
ATOM      3  C   UNL     1       3.304   3.551  18.906  0.00  0.00    +0.000 A 
ATOM      4  C   UNL     1       3.023   4.609  19.740  0.00  0.00    +0.000 A 
ATOM      5  N   UNL     1       4.126   5.409  19.811  0.00  0.00    +0.000 N 
ATOM      6  C   UNL     1       1.740   4.842  20.455  0.00  0.00    +0.000 C 
ATOM      7  C   UNL     1       0.963   3.514  20.536  0.00  0.00    +0.000 C 
ATOM      8  C   UNL     1       0.936   2.778  19.182  0.00  0.00    +0.000 C 
ATOM      9  C   UNL     1       2.347   2.433  18.667  0.00  0.00    +0.000 C 
ATOM     10  H   UNL     1       4.229   6.245  20.375  0.00  0.00    +0.000 HD
ENDROOT
BRANCH   1  12
ATOM     11  O   UNL     1       6.778   6.231  17.970  0.00  0.00    +0.000 OA
ATOM     12  C   UNL     1       6.412   5.555  18.919  0.00  0.00    +0.000 C 
BRANCH  12  13
ATOM     13  OXT UNL     1       7.190   5.351  20.007  0.00  0.00    +0.000 OA
ATOM     14  HXT UNL     1       6.869   4.634  20.577  0.00  0.00    +0.000 HD
ENDBRANCH  12  13
ENDBRANCH   1  12
TORSDOF 2
ENDMDL
