MODEL 1
REMARK VINA RESULT:      -8.4      0.000      0.000
REMARK  Name = 
REMARK  3 active torsions:
REMARK  status: ('A' for Active; 'I' for Inactive)
REMARK    1  A    between atoms: C_6  and  C_7
REMARK    2  A    between atoms: N_12  and  C_13
REMARK    3  A    between atoms: C_13  and  C_14
REMARK                            x       y       z     vdW  Elec       q    Type
REMARK                         _______ _______ _______ _____ _____    ______ ____
ROOT
ATOM      1  C   UNL     1       3.932   4.107  18.925  0.00  0.00    +0.000 C 
ATOM      2  C   UNL     1       3.838   2.928  17.931  0.00  0.00    +0.000 C 
ATOM      3  C   UNL     1       2.642   2.038  18.226  0.00  0.00    +0.000 C 
ATOM      4  C   UNL     1       1.377   2.878  18.265  0.00  0.00    +0.000 C 
ATOM      5  C   UNL     1       1.516   4.041  19.247  0.00  0.00    +0.000 C 
ATOM      6  N   UNL     1       2.673   4.913  18.949  0.00  0.00    +0.000 NA
ENDROOT
BRANCH   1  12
ATOM      7  N   UNL     1       8.322   5.569  20.123  0.00  0.00    +0.000 N 
ATOM      8  C   UNL     1       7.301   5.574  19.195  0.00  0.00    +0.000 A 
ATOM      9  N   UNL     1       7.479   6.299  18.089  0.00  0.00    +0.000 NA
ATOM     10  C   UNL     1       6.459   6.314  17.213  0.00  0.00    +0.000 A 
ATOM     11  C   UNL     1       5.277   5.645  17.414  0.00  0.00    +0.000 A 
ATOM     12  C   UNL     1       5.183   4.920  18.588  0.00  0.00    +0.000 A 
ATOM     13  N   UNL     1       6.189   4.895  19.495  0.00  0.00    +0.000 NA
ATOM     14  H   UNL     1       8.884   6.400  20.000  0.00  0.00    +0.000 HD
ATOM     15  H   UNL     1       7.942   5.396  21.042  0.00  0.00    +0.000 HD
ENDBRANCH   1  12
BRANCH   6  16
ATOM     16  C   UNL     1       2.780   5.978  19.982  0.00  0.00    +0.000 C 
BRANCH  16  17
ATOM     17  C   UNL     1       2.215   7.320  19.554  0.00  0.00    +0.000 A 
ATOM     18  C   UNL     1       2.385   7.778  18.236  0.00  0.00    +0.000 A 
ATOM     19  C   UNL     1       1.865   9.011  17.836  0.00  0.00    +0.000 A 
ATOM     20  C   UNL     1       1.165   9.800  18.748  0.00  0.00    +0.000 A 
ATOM     21  C   UNL     1       0.988   9.345  20.048  0.00  0.00    +0.000 A 
ATOM     22  F   UNL     1       0.308  10.100  20.923  0.00  0.00    +0.000 F 
ATOM     23  C   UNL     1       1.501   8.118  20.460  0.00  0.00    +0.000 A 
ENDBRANCH  16  17
ENDBRANCH   6  16
TORSDOF 3
ENDMDL
MODEL 2
REMARK VINA RESULT:      -8.3      0.937      1.407
REMARK  Name = 
REMARK  3 active torsions:
REMARK  status: ('A' for Active; 'I' for Inactive)
REMARK    1  A    between atoms: C_6  and  C_7
REMARK    2  A    between atoms: N_12  and  C_13
REMARK    3  A    between atoms: C_13  and  C_14
REMARK                            x       y       z     vdW  Elec       q    Type
REMARK                         _______ _______ _______ _____ _____    ______ ____
ROOT
ATOM      1  C   UNL     1       3.821   4.102  18.861  0.00  0.00    +0.000 C 
ATOM      2  C   UNL     1       3.675   3.027  17.759  0.00  0.00    +0.000 C 
ATOM      3  C   UNL     1       2.517   2.085  18.044  0.00  0.00    +0.000 C 
ATOM      4  C   UNL     1       1.245   2.888  18.255  0.00  0.00    +0.000 C 
ATOM      5  C   UNL     1       1.435   3.949  19.339  0.00  0.00    +0.000 C 
ATOM      6  N   UNL     1       2.555   4.872  19.054  0.00  0.00    +0.000 NA
ENDROOT
BRANCH   1  12
ATOM      7  N   UNL     1       8.246   5.561  19.920  0.00  0.00    +0.000 N 
ATOM      8  C   UNL     1       7.170   5.623  19.060  0.00  0.00    +0.000 A 
ATOM      9  N   UNL     1       7.265   6.448  18.015  0.00  0.00    +0.000 NA
ATOM     10  C   UNL     1       6.193   6.514  17.207  0.00  0.00    +0.000 A 
ATOM     11  C   UNL     1       5.039   5.800  17.417  0.00  0.00    +0.000 A 
ATOM     12  C   UNL     1       5.032   4.972  18.525  0.00  0.00    +0.000 A 
ATOM     13  N   UNL     1       6.093   4.892  19.364  0.00  0.00    +0.000 NA
ATOM     14  H   UNL     1       8.783   6.414  19.840  0.00  0.00    +0.000 HD
ATOM     15  H   UNL     1       7.928   5.298  20.842  0.00  0.00    +0.000 HD
ENDBRANCH   1  12
BRANCH   6  16
ATOM     16  C   UNL     1       2.717   5.829  20.181  0.00  0.00    +0.000 C 
BRANCH  16  17
ATOM     17  C   UNL     1       2.091   7.189  19.939  0.00  0.00    +0.000 A 
ATOM     18  C   UNL     1       1.352   7.825  20.951  0.00  0.00    +0.000 A 
ATOM     19  C   UNL     1       0.775   9.079  20.735  0.00  0.00    +0.000 A 
ATOM     20  C   UNL     1       0.933   9.714  19.504  0.00  0.00    +0.000 A 
ATOM     21  C   UNL     1       1.671   9.092  18.505  0.00  0.00    +0.000 A 
ATOM     22  F   UNL     1       1.830   9.707  17.325  0.00  0.00    +0.000 F 
ATOM     23  C   UNL     1       2.251   7.843  18.708  0.00  0.00    +0.000 A 
ENDBRANCH  16  17
ENDBRANCH   6  16
TORSDOF 3
ENDMDL
MODEL 3
REMARK VINA RESULT:      -8.0      1.397      1.748
REMARK  Name = 
REMARK  3 active torsions:
REMARK  status: ('A' for Active; 'I' for Inactive)
REMARK    1  A    between atoms: C_6  and  C_7
REMARK    2  A    between atoms: N_12  and  C_13
REMARK    3  A    between atoms: C_13  and  C_14
REMARK                            x       y       z     vdW  Elec       q    Type
REMARK                         _______ _______ _______ _____ _____    ______ ____
ROOT
ATOM      1  C   UNL     1       3.540   3.782  18.672  0.00  0.00    +0.000 C 
ATOM      2  C   UNL     1       3.003   2.583  17.859  0.00  0.00    +0.000 C 
ATOM      3  C   UNL     1       1.899   1.849  18.602  0.00  0.00    +0.000 C 
ATOM      4  C   UNL     1       0.808   2.829  18.994  0.00  0.00    +0.000 C 
ATOM      5  C   UNL     1       1.380   4.007  19.783  0.00  0.00    +0.000 C 
ATOM      6  N   UNL     1       2.446   4.728  19.052  0.00  0.00    +0.000 NA
ENDROOT
BRANCH   1  12
ATOM      7  N   UNL     1       8.224   4.275  17.862  0.00  0.00    +0.000 N 
ATOM      8  C   UNL     1       6.934   4.615  17.509  0.00  0.00    +0.000 A 
ATOM      9  N   UNL     1       6.780   5.494  16.516  0.00  0.00    +0.000 NA
ATOM     10  C   UNL     1       5.516   5.833  16.208  0.00  0.00    +0.000 A 
ATOM     11  C   UNL     1       4.417   5.336  16.864  0.00  0.00    +0.000 A 
ATOM     12  C   UNL     1       4.674   4.432  17.879  0.00  0.00    +0.000 A 
ATOM     13  N   UNL     1       5.937   4.079  18.219  0.00  0.00    +0.000 NA
ATOM     14  H   UNL     1       8.851   5.014  17.574  0.00  0.00    +0.000 HD
ATOM     15  H   UNL     1       8.246   3.999  18.833  0.00  0.00    +0.000 HD
ENDBRANCH   1  12
BRANCH   6  16
ATOM     16  C   UNL     1       2.995   5.814  19.906  0.00  0.00    +0.000 C 
BRANCH  16  17
ATOM     17  C   UNL     1       2.265   7.137  19.779  0.00  0.00    +0.000 A 
ATOM     18  C   UNL     1       1.523   7.650  20.857  0.00  0.00    +0.000 A 
ATOM     19  C   UNL     1       0.851   8.869  20.746  0.00  0.00    +0.000 A 
ATOM     20  C   UNL     1       0.915   9.594  19.557  0.00  0.00    +0.000 A 
ATOM     21  C   UNL     1       1.656   9.094  18.493  0.00  0.00    +0.000 A 
ATOM     22  F   UNL     1       1.724   9.794  17.353  0.00  0.00    +0.000 F 
ATOM     23  C   UNL     1       2.330   7.880  18.591  0.00  0.00    +0.000 A 
ENDBRANCH  16  17
ENDBRANCH   6  16
TORSDOF 3
ENDMDL
MODEL 4
REMARK VINA RESULT:      -7.9      1.111      1.688
REMARK  Name = 
REMARK  3 active torsions:
REMARK  status: ('A' for Active; 'I' for Inactive)
REMARK    1  A    between atoms: C_6  and  C_7
REMARK    2  A    between atoms: N_12  and  C_13
REMARK    3  A    between atoms: C_13  and  C_14
REMARK                            x       y       z     vdW  Elec       q    Type
REMARK                         _______ _______ _______ _____ _____    ______ ____
ROOT
ATOM      1  C   UNL     1       3.642   4.057  18.889  0.00  0.00    +0.000 C 
ATOM      2  C   UNL     1       3.407   2.833  17.977  0.00  0.00    +0.000 C 
ATOM      3  C   UNL     1       2.307   1.933  18.516  0.00  0.00    +0.000 C 
ATOM      4  C   UNL     1       1.046   2.749  18.743  0.00  0.00    +0.000 C 
ATOM      5  C   UNL     1       1.323   3.958  19.637  0.00  0.00    +0.000 C 
ATOM      6  N   UNL     1       2.386   4.838  19.104  0.00  0.00    +0.000 NA
ENDROOT
BRANCH   1  12
ATOM      7  N   UNL     1       5.421   6.636  15.281  0.00  0.00    +0.000 N 
ATOM      8  C   UNL     1       5.593   6.133  16.553  0.00  0.00    +0.000 A 
ATOM      9  N   UNL     1       6.752   6.389  17.164  0.00  0.00    +0.000 NA
ATOM     10  C   UNL     1       6.909   5.864  18.392  0.00  0.00    +0.000 A 
ATOM     11  C   UNL     1       5.960   5.090  19.013  0.00  0.00    +0.000 A 
ATOM     12  C   UNL     1       4.792   4.879  18.304  0.00  0.00    +0.000 A 
ATOM     13  N   UNL     1       4.608   5.385  17.061  0.00  0.00    +0.000 NA
ATOM     14  H   UNL     1       6.327   6.800  14.865  0.00  0.00    +0.000 HD
ATOM     15  H   UNL     1       4.774   6.052  14.771  0.00  0.00    +0.000 HD
ENDBRANCH   1  12
BRANCH   6  16
ATOM     16  C   UNL     1       2.642   5.951  20.056  0.00  0.00    +0.000 C 
BRANCH  16  17
ATOM     17  C   UNL     1       2.139   7.303  19.586  0.00  0.00    +0.000 A 
ATOM     18  C   UNL     1       2.342   7.718  18.258  0.00  0.00    +0.000 A 
ATOM     19  C   UNL     1       1.879   8.960  17.819  0.00  0.00    +0.000 A 
ATOM     20  C   UNL     1       1.203   9.802  18.701  0.00  0.00    +0.000 A 
ATOM     21  C   UNL     1       0.992   9.390  20.011  0.00  0.00    +0.000 A 
ATOM     22  F   UNL     1       0.335  10.195  20.857  0.00  0.00    +0.000 F 
ATOM     23  C   UNL     1       1.449   8.154  20.461  0.00  0.00    +0.000 A 
ENDBRANCH  16  17
ENDBRANCH   6  16
TORSDOF 3
ENDMDL
MODEL 5
REMARK VINA RESULT:      -7.9      1.657      2.051
REMARK  Name = 
REMARK  3 active torsions:
REMARK  status: ('A' for Active; 'I' for Inactive)
REMARK    1  A    between atoms: C_6  and  C_7
REMARK    2  A    between atoms: N_12  and  C_13
REMARK    3  A    between atoms: C_13  and  C_14
REMARK                            x       y       z     vdW  Elec       q    Type
REMARK                         _______ _______ _______ _____ _____    ______ ____
ROOT
ATOM      1  C   UNL     1       3.937   3.707  18.420  0.00  0.00    +0.000 C 
ATOM      2  C   UNL     1       3.356   2.410  17.815  0.00  0.00    +0.000 C 
ATOM      3  C   UNL     1       2.109   1.954  18.555  0.00  0.00    +0.000 C 
ATOM      4  C   UNL     1       1.099   3.087  18.601  0.00  0.00    +0.000 C 
ATOM      5  C   UNL     1       1.716   4.355  19.191  0.00  0.00    +0.000 C 
ATOM      6  N   UNL     1       2.922   4.804  18.461  0.00  0.00    +0.000 NA
ENDROOT
BRANCH   1  12
ATOM      7  N   UNL     1       6.263   4.041  14.259  0.00  0.00    +0.000 N 
ATOM      8  C   UNL     1       6.277   4.236  15.624  0.00  0.00    +0.000 A 
ATOM      9  N   UNL     1       7.402   4.706  16.167  0.00  0.00    +0.000 NA
ATOM     10  C   UNL     1       7.403   4.860  17.502  0.00  0.00    +0.000 A 
ATOM     11  C   UNL     1       6.331   4.549  18.302  0.00  0.00    +0.000 A 
ATOM     12  C   UNL     1       5.209   4.068  17.652  0.00  0.00    +0.000 A 
ATOM     13  N   UNL     1       5.182   3.892  16.309  0.00  0.00    +0.000 NA
ATOM     14  H   UNL     1       7.212   3.930  13.931  0.00  0.00    +0.000 HD
ATOM     15  H   UNL     1       5.603   3.313  14.028  0.00  0.00    +0.000 HD
ENDBRANCH   1  12
BRANCH   6  16
ATOM     16  C   UNL     1       3.500   5.998  19.131  0.00  0.00    +0.000 C 
BRANCH  16  17
ATOM     17  C   UNL     1       2.628   7.238  19.058  0.00  0.00    +0.000 A 
ATOM     18  C   UNL     1       2.484   7.938  17.848  0.00  0.00    +0.000 A 
ATOM     19  C   UNL     1       1.680   9.078  17.774  0.00  0.00    +0.000 A 
ATOM     20  C   UNL     1       1.008   9.530  18.908  0.00  0.00    +0.000 A 
ATOM     21  C   UNL     1       1.142   8.835  20.103  0.00  0.00    +0.000 A 
ATOM     22  F   UNL     1       0.489   9.265  21.192  0.00  0.00    +0.000 F 
ATOM     23  C   UNL     1       1.939   7.697  20.190  0.00  0.00    +0.000 A 
ENDBRANCH  16  17
ENDBRANCH   6  16
TORSDOF 3
ENDMDL
MODEL 6
REMARK VINA RESULT:      -7.8      1.477      2.216
REMARK  Name = 
REMARK  3 active torsions:
REMARK  status: ('A' for Active; 'I' for Inactive)
REMARK    1  A    between atoms: C_6  and  C_7
REMARK    2  A    between atoms: N_12  and  C_13
REMARK    3  A    between atoms: C_13  and  C_14
REMARK                            x       y       z     vdW  Elec       q    Type
REMARK                         _______ _______ _______ _____ _____    ______ ____
ROOT
ATOM      1  C   UNL     1       3.627   3.994  18.786  0.00  0.00    +0.000 C 
ATOM      2  C   UNL     1       3.337   2.866  17.770  0.00  0.00    +0.000 C 
ATOM      3  C   UNL     1       2.259   1.920  18.274  0.00  0.00    +0.000 C 
ATOM      4  C   UNL     1       1.017   2.711  18.644  0.00  0.00    +0.000 C 
ATOM      5  C   UNL     1       1.347   3.826  19.637  0.00  0.00    +0.000 C 
ATOM      6  N   UNL     1       2.388   4.752  19.140  0.00  0.00    +0.000 NA
ENDROOT
BRANCH   1  12
ATOM      7  N   UNL     1       5.301   6.784  15.286  0.00  0.00    +0.000 N 
ATOM      8  C   UNL     1       5.502   6.222  16.530  0.00  0.00    +0.000 A 
ATOM      9  N   UNL     1       6.664   6.471  17.137  0.00  0.00    +0.000 NA
ATOM     10  C   UNL     1       6.849   5.890  18.335  0.00  0.00    +0.000 A 
ATOM     11  C   UNL     1       5.925   5.066  18.929  0.00  0.00    +0.000 A 
ATOM     12  C   UNL     1       4.751   4.866  18.226  0.00  0.00    +0.000 A 
ATOM     13  N   UNL     1       4.539   5.430  17.013  0.00  0.00    +0.000 NA
ATOM     14  H   UNL     1       6.198   6.986  14.867  0.00  0.00    +0.000 HD
ATOM     15  H   UNL     1       4.659   6.212  14.757  0.00  0.00    +0.000 HD
ENDBRANCH   1  12
BRANCH   6  16
ATOM     16  C   UNL     1       2.700   5.765  20.183  0.00  0.00    +0.000 C 
BRANCH  16  17
ATOM     17  C   UNL     1       2.101   7.134  19.923  0.00  0.00    +0.000 A 
ATOM     18  C   UNL     1       1.357   7.788  20.920  0.00  0.00    +0.000 A 
ATOM     19  C   UNL     1       0.804   9.050  20.687  0.00  0.00    +0.000 A 
ATOM     20  C   UNL     1       0.991   9.674  19.456  0.00  0.00    +0.000 A 
ATOM     21  C   UNL     1       1.734   9.034  18.471  0.00  0.00    +0.000 A 
ATOM     22  F   UNL     1       1.920   9.638  17.290  0.00  0.00    +0.000 F 
ATOM     23  C   UNL     1       2.289   7.777  18.691  0.00  0.00    +0.000 A 
ENDBRANCH  16  17
ENDBRANCH   6  16
TORSDOF 3
ENDMDL
MODEL 7
REMARK VINA RESULT:      -7.6      1.690      3.990
REMARK  Name = 
REMARK  3 active torsions:
REMARK  status: ('A' for Active; 'I' for Inactive)
REMARK    1  A    between atoms: C_6  and  C_7
REMARK    2  A    between atoms: N_12  and  C_13
REMARK    3  A    between atoms: C_13  and  C_14
REMARK                            x       y       z     vdW  Elec       q    Type
REMARK                         _______ _______ _______ _____ _____    ______ ____
ROOT
ATOM      1  C   UNL     1       4.404   4.750  17.941  0.00  0.00    +0.000 C 
ATOM      2  C   UNL     1       5.707   4.134  18.498  0.00  0.00    +0.000 C 
ATOM      3  C   UNL     1       6.939   4.736  17.841  0.00  0.00    +0.000 C 
ATOM      4  C   UNL     1       6.899   6.248  17.972  0.00  0.00    +0.000 C 
ATOM      5  C   UNL     1       5.590   6.817  17.426  0.00  0.00    +0.000 C 
ATOM      6  N   UNL     1       4.393   6.238  18.075  0.00  0.00    +0.000 NA
ENDROOT
BRANCH   1  12
ATOM      7  N   UNL     1       2.211   3.343  21.947  0.00  0.00    +0.000 N 
ATOM      8  C   UNL     1       2.190   3.424  20.571  0.00  0.00    +0.000 A 
ATOM      9  N   UNL     1       1.149   2.879  19.938  0.00  0.00    +0.000 NA
ATOM     10  C   UNL     1       1.164   2.944  18.595  0.00  0.00    +0.000 A 
ATOM     11  C   UNL     1       2.183   3.518  17.876  0.00  0.00    +0.000 A 
ATOM     12  C   UNL     1       3.219   4.057  18.616  0.00  0.00    +0.000 A 
ATOM     13  N   UNL     1       3.238   3.997  19.969  0.00  0.00    +0.000 NA
ATOM     14  H   UNL     1       1.633   2.567  22.241  0.00  0.00    +0.000 HD
ATOM     15  H   UNL     1       3.166   3.360  22.273  0.00  0.00    +0.000 HD
ENDBRANCH   1  12
BRANCH   6  16
ATOM     16  C   UNL     1       3.163   6.790  17.448  0.00  0.00    +0.000 C 
BRANCH  16  17
ATOM     17  C   UNL     1       2.380   7.736  18.337  0.00  0.00    +0.000 A 
ATOM     18  C   UNL     1       1.812   8.908  17.808  0.00  0.00    +0.000 A 
ATOM     19  C   UNL     1       1.087   9.781  18.622  0.00  0.00    +0.000 A 
ATOM     20  C   UNL     1       0.917   9.492  19.975  0.00  0.00    +0.000 A 
ATOM     21  C   UNL     1       1.469   8.329  20.499  0.00  0.00    +0.000 A 
ATOM     22  F   UNL     1       1.299   8.047  21.798  0.00  0.00    +0.000 F 
ATOM     23  C   UNL     1       2.194   7.451  19.698  0.00  0.00    +0.000 A 
ENDBRANCH  16  17
ENDBRANCH   6  16
TORSDOF 3
ENDMDL
MODEL 8
REMARK VINA RESULT:      -7.6      1.769      2.374
REMARK  Name = 
REMARK  3 active torsions:
REMARK  status: ('A' for Active; 'I' for Inactive)
REMARK    1  A    between atoms: C_6  and  C_7
REMARK    2  A    between atoms: N_12  and  C_13
REMARK    3  A    between atoms: C_13  and  C_14
REMARK                            x       y       z     vdW  Elec       q    Type
REMARK                         _______ _______ _______ _____ _____    ______ ____
ROOT
ATOM      1  C   UNL     1       3.874   3.626  18.530  0.00  0.00    +0.000 C 
ATOM      2  C   UNL     1       3.292   2.389  17.810  0.00  0.00    +0.000 C 
ATOM      3  C   UNL     1       2.034   1.880  18.496  0.00  0.00    +0.000 C 
ATOM      4  C   UNL     1       1.030   3.011  18.627  0.00  0.00    +0.000 C 
ATOM      5  C   UNL     1       1.648   4.220  19.330  0.00  0.00    +0.000 C 
ATOM      6  N   UNL     1       2.864   4.721  18.654  0.00  0.00    +0.000 NA
ENDROOT
BRANCH   1  12
ATOM      7  N   UNL     1       6.342   4.046  14.459  0.00  0.00    +0.000 N 
ATOM      8  C   UNL     1       6.293   4.248  15.823  0.00  0.00    +0.000 A 
ATOM      9  N   UNL     1       7.373   4.775  16.404  0.00  0.00    +0.000 NA
ATOM     10  C   UNL     1       7.314   4.937  17.738  0.00  0.00    +0.000 A 
ATOM     11  C   UNL     1       6.228   4.579  18.498  0.00  0.00    +0.000 A 
ATOM     12  C   UNL     1       5.156   4.042  17.809  0.00  0.00    +0.000 A 
ATOM     13  N   UNL     1       5.190   3.857  16.467  0.00  0.00    +0.000 NA
ATOM     14  H   UNL     1       7.307   3.978  14.169  0.00  0.00    +0.000 HD
ATOM     15  H   UNL     1       5.726   3.285  14.209  0.00  0.00    +0.000 HD
ENDBRANCH   1  12
BRANCH   6  16
ATOM     16  C   UNL     1       3.442   5.851  19.429  0.00  0.00    +0.000 C 
BRANCH  16  17
ATOM     17  C   UNL     1       2.567   7.089  19.473  0.00  0.00    +0.000 A 
ATOM     18  C   UNL     1       1.869   7.429  20.645  0.00  0.00    +0.000 A 
ATOM     19  C   UNL     1       1.064   8.570  20.692  0.00  0.00    +0.000 A 
ATOM     20  C   UNL     1       0.950   9.387  19.569  0.00  0.00    +0.000 A 
ATOM     21  C   UNL     1       1.646   9.059  18.412  0.00  0.00    +0.000 A 
ATOM     22  F   UNL     1       1.543   9.849  17.335  0.00  0.00    +0.000 F 
ATOM     23  C   UNL     1       2.452   7.925  18.353  0.00  0.00    +0.000 A 
ENDBRANCH  16  17
ENDBRANCH   6  16
TORSDOF 3
ENDMDL
MODEL 9
REMARK VINA RESULT:      -7.5      1.723      4.079
REMARK  Name = 
REMARK  3 active torsions:
REMARK  status: ('A' for Active; 'I' for Inactive)
REMARK    1  A    between atoms: C_6  and  C_7
REMARK    2  A    between atoms: N_12  and  C_13
REMARK    3  A    between atoms: C_13  and  C_14
REMARK                            x       y       z     vdW  Elec       q    Type
REMARK                         _______ _______ _______ _____ _____    ______ ____
ROOT
ATOM      1  C   UNL     1       4.320   4.731  17.930  0.00  0.00    +0.000 C 
ATOM      2  C   UNL     1       5.639   4.104  18.434  0.00  0.00    +0.000 C 
ATOM      3  C   UNL     1       6.851   4.723  17.757  0.00  0.00    +0.000 C 
ATOM      4  C   UNL     1       6.814   6.232  17.925  0.00  0.00    +0.000 C 
ATOM      5  C   UNL     1       5.489   6.811  17.429  0.00  0.00    +0.000 C 
ATOM      6  N   UNL     1       4.312   6.216  18.099  0.00  0.00    +0.000 NA
ENDROOT
BRANCH   1  12
ATOM      7  N   UNL     1       2.209   3.288  21.968  0.00  0.00    +0.000 N 
ATOM      8  C   UNL     1       2.166   3.372  20.591  0.00  0.00    +0.000 A 
ATOM      9  N   UNL     1       1.121   2.814  19.975  0.00  0.00    +0.000 NA
ATOM     10  C   UNL     1       1.115   2.882  18.632  0.00  0.00    +0.000 A 
ATOM     11  C   UNL     1       2.114   3.471  17.897  0.00  0.00    +0.000 A 
ATOM     12  C   UNL     1       3.155   4.022  18.622  0.00  0.00    +0.000 A 
ATOM     13  N   UNL     1       3.196   3.960  19.975  0.00  0.00    +0.000 NA
ATOM     14  H   UNL     1       1.646   2.505  22.269  0.00  0.00    +0.000 HD
ATOM     15  H   UNL     1       3.169   3.318  22.278  0.00  0.00    +0.000 HD
ENDBRANCH   1  12
BRANCH   6  16
ATOM     16  C   UNL     1       3.065   6.781  17.520  0.00  0.00    +0.000 C 
BRANCH  16  17
ATOM     17  C   UNL     1       2.303   7.699  18.456  0.00  0.00    +0.000 A 
ATOM     18  C   UNL     1       2.161   7.374  19.816  0.00  0.00    +0.000 A 
ATOM     19  C   UNL     1       1.462   8.217  20.683  0.00  0.00    +0.000 A 
ATOM     20  C   UNL     1       0.900   9.398  20.202  0.00  0.00    +0.000 A 
ATOM     21  C   UNL     1       1.047   9.727  18.860  0.00  0.00    +0.000 A 
ATOM     22  F   UNL     1       0.513  10.867  18.400  0.00  0.00    +0.000 F 
ATOM     23  C   UNL     1       1.740   8.895  17.986  0.00  0.00    +0.000 A 
ENDBRANCH  16  17
ENDBRANCH   6  16
TORSDOF 3
ENDMDL
