MODEL 1
REMARK VINA RESULT:      -8.9      0.000      0.000
REMARK  Name = 
REMARK  6 active torsions:
REMARK  status: ('A' for Active; 'I' for Inactive)
REMARK    1  A    between atoms: C_1  and  C_2
REMARK    2  A    between atoms: C_5  and  C_6
REMARK    3  A    between atoms: C_8  and  S_9
REMARK    4  A    between atoms: S_9  and  N_12
REMARK    5  A    between atoms: N_12  and  C_13
REMARK    6  A    between atoms: C_13  and  C_14
REMARK                            x       y       z     vdW  Elec       q    Type
REMARK                         _______ _______ _______ _____ _____    ______ ____
ROOT
ATOM      1  S   UNL     1       6.373   5.719  16.359  0.00  0.00    +0.000 S 
ATOM      2  O   UNL     1       5.122   6.414  16.166  0.00  0.00    +0.000 OA
ATOM      3  O   UNL     1       7.300   5.454  15.283  0.00  0.00    +0.000 OA
ENDROOT
BRANCH   1   6
ATOM      4  C   UNL     1       8.308   8.537  18.320  0.00  0.00    +0.000 A 
ATOM      5  C   UNL     1       7.518   8.124  17.264  0.00  0.00    +0.000 A 
ATOM      6  C   UNL     1       7.275   6.736  17.436  0.00  0.00    +0.000 A 
ATOM      7  C   UNL     1       7.897   6.348  18.609  0.00  0.00    +0.000 A 
ATOM      8  N   UNL     1       8.539   7.444  19.124  0.00  0.00    +0.000 N 
ATOM      9  H   UNL     1       9.107   7.461  19.964  0.00  0.00    +0.000 HD
BRANCH   4  14
ATOM     10  C   UNL     1      10.745  12.048  20.591  0.00  0.00    +0.000 C 
ATOM     11  C   UNL     1       9.901  11.411  19.567  0.00  0.00    +0.000 A 
ATOM     12  N   UNL     1       9.422  11.902  18.446  0.00  0.00    +0.000 NA
ATOM     13  N   UNL     1       8.743  10.870  17.834  0.00  0.00    +0.000 NA
ATOM     14  C   UNL     1       8.851   9.818  18.625  0.00  0.00    +0.000 A 
ATOM     15  O   UNL     1       9.574  10.097  19.757  0.00  0.00    +0.000 OA
ENDBRANCH   4  14
ENDBRANCH   1   6
BRANCH   1  16
ATOM     16  N   UNL     1       6.092   4.266  17.155  0.00  0.00    +0.000 NA
ATOM     17  H   UNL     1       6.135   4.377  18.167  0.00  0.00    +0.000 HD
BRANCH  16  18
ATOM     18  C   UNL     1       4.947   3.481  16.684  0.00  0.00    +0.000 C 
BRANCH  18  19
ATOM     19  C   UNL     1       3.825   3.487  17.697  0.00  0.00    +0.000 A 
ATOM     20  C   UNL     1       2.550   3.994  17.346  0.00  0.00    +0.000 A 
ATOM     21  C   UNL     1       1.499   4.019  18.269  0.00  0.00    +0.000 A 
ATOM     22  C   UNL     1       1.752   3.539  19.536  0.00  0.00    +0.000 A 
ATOM     23  C   UNL     1       2.987   3.051  19.890  0.00  0.00    +0.000 A 
ATOM     24  C   UNL     1       4.040   3.011  19.001  0.00  0.00    +0.000 A 
ATOM     25  O   UNL     1       3.029   2.633  21.184  0.00  0.00    +0.000 OA
ATOM     26  C   UNL     1       1.680   2.925  21.606  0.00  0.00    +0.000 C 
ATOM     27  O   UNL     1       0.859   3.486  20.560  0.00  0.00    +0.000 OA
ENDBRANCH  18  19
ENDBRANCH  16  18
ENDBRANCH   1  16
TORSDOF 5
ENDMDL
MODEL 2
REMARK VINA RESULT:      -8.8      1.026      1.117
REMARK  Name = 
REMARK  6 active torsions:
REMARK  status: ('A' for Active; 'I' for Inactive)
REMARK    1  A    between atoms: C_1  and  C_2
REMARK    2  A    between atoms: C_5  and  C_6
REMARK    3  A    between atoms: C_8  and  S_9
REMARK    4  A    between atoms: S_9  and  N_12
REMARK    5  A    between atoms: N_12  and  C_13
REMARK    6  A    between atoms: C_13  and  C_14
REMARK                            x       y       z     vdW  Elec       q    Type
REMARK                         _______ _______ _______ _____ _____    ______ ____
ROOT
ATOM      1  S   UNL     1       6.714   5.332  16.413  0.00  0.00    +0.000 S 
ATOM      2  O   UNL     1       5.780   6.111  15.633  0.00  0.00    +0.000 OA
ATOM      3  O   UNL     1       7.839   4.638  15.831  0.00  0.00    +0.000 OA
ENDROOT
BRANCH   1   6
ATOM      4  C   UNL     1       8.292   8.401  18.316  0.00  0.00    +0.000 A 
ATOM      5  C   UNL     1       7.632   7.863  17.227  0.00  0.00    +0.000 A 
ATOM      6  C   UNL     1       7.450   6.480  17.485  0.00  0.00    +0.000 A 
ATOM      7  C   UNL     1       7.975   6.218  18.738  0.00  0.00    +0.000 A 
ATOM      8  N   UNL     1       8.503   7.387  19.221  0.00  0.00    +0.000 N 
ATOM      9  H   UNL     1       8.985   7.501  20.106  0.00  0.00    +0.000 HD
BRANCH   4  14
ATOM     10  C   UNL     1       8.941  13.172  17.824  0.00  0.00    +0.000 C 
ATOM     11  C   UNL     1       9.058  11.830  18.417  0.00  0.00    +0.000 A 
ATOM     12  N   UNL     1       9.605  11.456  19.552  0.00  0.00    +0.000 NA
ATOM     13  N   UNL     1       9.393  10.097  19.651  0.00  0.00    +0.000 NA
ATOM     14  C   UNL     1       8.732   9.732  18.568  0.00  0.00    +0.000 A 
ATOM     15  O   UNL     1       8.490  10.793  17.730  0.00  0.00    +0.000 OA
ENDBRANCH   4  14
ENDBRANCH   1   6
BRANCH   1  16
ATOM     16  N   UNL     1       5.870   4.227  17.359  0.00  0.00    +0.000 NA
ATOM     17  H   UNL     1       5.807   4.535  18.329  0.00  0.00    +0.000 HD
BRANCH  16  18
ATOM     18  C   UNL     1       4.610   3.727  16.802  0.00  0.00    +0.000 C 
BRANCH  18  19
ATOM     19  C   UNL     1       3.588   3.487  17.889  0.00  0.00    +0.000 A 
ATOM     20  C   UNL     1       2.211   3.697  17.632  0.00  0.00    +0.000 A 
ATOM     21  C   UNL     1       1.248   3.491  18.625  0.00  0.00    +0.000 A 
ATOM     22  C   UNL     1       1.688   3.082  19.865  0.00  0.00    +0.000 A 
ATOM     23  C   UNL     1       3.022   2.882  20.128  0.00  0.00    +0.000 A 
ATOM     24  C   UNL     1       3.994   3.074  19.169  0.00  0.00    +0.000 A 
ATOM     25  O   UNL     1       3.246   2.487  21.410  0.00  0.00    +0.000 OA
ATOM     26  C   UNL     1       1.898   2.473  21.927  0.00  0.00    +0.000 C 
ATOM     27  O   UNL     1       0.903   2.835  20.947  0.00  0.00    +0.000 OA
ENDBRANCH  18  19
ENDBRANCH  16  18
ENDBRANCH   1  16
TORSDOF 5
ENDMDL
MODEL 3
REMARK VINA RESULT:      -8.7      4.697      6.644
REMARK  Name = 
REMARK  6 active torsions:
REMARK  status: ('A' for Active; 'I' for Inactive)
REMARK    1  A    between atoms: C_1  and  C_2
REMARK    2  A    between atoms: C_5  and  C_6
REMARK    3  A    between atoms: C_8  and  S_9
REMARK    4  A    between atoms: S_9  and  N_12
REMARK    5  A    between atoms: N_12  and  C_13
REMARK    6  A    between atoms: C_13  and  C_14
REMARK                            x       y       z     vdW  Elec       q    Type
REMARK                         _______ _______ _______ _____ _____    ______ ____
ROOT
ATOM      1  S   UNL     1       2.519   3.285  18.988  0.00  0.00    +0.000 S 
ATOM      2  O   UNL     1       1.792   2.566  17.968  0.00  0.00    +0.000 OA
ATOM      3  O   UNL     1       2.904   2.691  20.248  0.00  0.00    +0.000 OA
ENDROOT
BRANCH   1   6
ATOM      4  C   UNL     1       5.592   4.182  16.691  0.00  0.00    +0.000 A 
ATOM      5  C   UNL     1       4.242   3.945  16.865  0.00  0.00    +0.000 A 
ATOM      6  C   UNL     1       4.033   3.687  18.245  0.00  0.00    +0.000 A 
ATOM      7  C   UNL     1       5.257   3.806  18.880  0.00  0.00    +0.000 A 
ATOM      8  N   UNL     1       6.198   4.083  17.922  0.00  0.00    +0.000 N 
ATOM      9  H   UNL     1       7.194   4.194  18.081  0.00  0.00    +0.000 HD
BRANCH   4  14
ATOM     10  C   UNL     1       7.082   4.102  12.086  0.00  0.00    +0.000 C 
ATOM     11  C   UNL     1       7.044   4.494  13.505  0.00  0.00    +0.000 A 
ATOM     12  N   UNL     1       7.729   5.417  14.142  0.00  0.00    +0.000 NA
ATOM     13  N   UNL     1       7.269   5.407  15.442  0.00  0.00    +0.000 NA
ATOM     14  C   UNL     1       6.336   4.474  15.512  0.00  0.00    +0.000 A 
ATOM     15  O   UNL     1       6.147   3.844  14.307  0.00  0.00    +0.000 OA
ENDBRANCH   4  14
ENDBRANCH   1   6
BRANCH   1  16
ATOM     16  N   UNL     1       1.726   4.728  19.330  0.00  0.00    +0.000 NA
ATOM     17  H   UNL     1       0.804   4.563  19.733  0.00  0.00    +0.000 HD
BRANCH  16  18
ATOM     18  C   UNL     1       2.514   5.750  20.024  0.00  0.00    +0.000 C 
BRANCH  18  19
ATOM     19  C   UNL     1       2.106   7.141  19.596  0.00  0.00    +0.000 A 
ATOM     20  C   UNL     1       2.337   7.574  18.267  0.00  0.00    +0.000 A 
ATOM     21  C   UNL     1       1.977   8.860  17.850  0.00  0.00    +0.000 A 
ATOM     22  C   UNL     1       1.395   9.693  18.781  0.00  0.00    +0.000 A 
ATOM     23  C   UNL     1       1.173   9.286  20.075  0.00  0.00    +0.000 A 
ATOM     24  C   UNL     1       1.514   8.024  20.514  0.00  0.00    +0.000 A 
ATOM     25  O   UNL     1       0.597  10.257  20.833  0.00  0.00    +0.000 OA
ATOM     26  C   UNL     1       0.493  11.326  19.869  0.00  0.00    +0.000 C 
ATOM     27  O   UNL     1       0.984  10.970  18.560  0.00  0.00    +0.000 OA
ENDBRANCH  18  19
ENDBRANCH  16  18
ENDBRANCH   1  16
TORSDOF 5
ENDMDL
MODEL 4
REMARK VINA RESULT:      -8.6      1.688      2.092
REMARK  Name = 
REMARK  6 active torsions:
REMARK  status: ('A' for Active; 'I' for Inactive)
REMARK    1  A    between atoms: C_1  and  C_2
REMARK    2  A    between atoms: C_5  and  C_6
REMARK    3  A    between atoms: C_8  and  S_9
REMARK    4  A    between atoms: S_9  and  N_12
REMARK    5  A    between atoms: N_12  and  C_13
REMARK    6  A    between atoms: C_13  and  C_14
REMARK                            x       y       z     vdW  Elec       q    Type
REMARK                         _______ _______ _______ _____ _____    ______ ____
ROOT
ATOM      1  S   UNL     1       6.522   5.502  16.437  0.00  0.00    +0.000 S 
ATOM      2  O   UNL     1       7.247   5.558  15.190  0.00  0.00    +0.000 OA
ATOM      3  O   UNL     1       6.420   4.302  17.236  0.00  0.00    +0.000 OA
ENDROOT
BRANCH   1   6
ATOM      4  C   UNL     1       8.293   8.504  18.276  0.00  0.00    +0.000 A 
ATOM      5  C   UNL     1       7.554   7.998  17.223  0.00  0.00    +0.000 A 
ATOM      6  C   UNL     1       7.352   6.616  17.475  0.00  0.00    +0.000 A 
ATOM      7  C   UNL     1       7.945   6.324  18.691  0.00  0.00    +0.000 A 
ATOM      8  N   UNL     1       8.532   7.472  19.155  0.00  0.00    +0.000 N 
ATOM      9  H   UNL     1       9.071   7.562  20.010  0.00  0.00    +0.000 HD
BRANCH   4  14
ATOM     10  C   UNL     1       9.112  13.244  17.747  0.00  0.00    +0.000 C 
ATOM     11  C   UNL     1       9.183  11.903  18.349  0.00  0.00    +0.000 A 
ATOM     12  N   UNL     1       9.723  11.517  19.484  0.00  0.00    +0.000 NA
ATOM     13  N   UNL     1       9.462  10.168  19.594  0.00  0.00    +0.000 NA
ATOM     14  C   UNL     1       8.782   9.820  18.516  0.00  0.00    +0.000 A 
ATOM     15  O   UNL     1       8.575  10.883  17.672  0.00  0.00    +0.000 OA
ENDBRANCH   4  14
ENDBRANCH   1   6
BRANCH   1  16
ATOM     16  N   UNL     1       4.964   6.092  16.208  0.00  0.00    +0.000 NA
ATOM     17  H   UNL     1       4.361   5.398  15.767  0.00  0.00    +0.000 HD
BRANCH  16  18
ATOM     18  C   UNL     1       4.357   6.779  17.351  0.00  0.00    +0.000 C 
BRANCH  18  19
ATOM     19  C   UNL     1       3.397   5.873  18.088  0.00  0.00    +0.000 A 
ATOM     20  C   UNL     1       2.957   6.209  19.392  0.00  0.00    +0.000 A 
ATOM     21  C   UNL     1       2.077   5.381  20.097  0.00  0.00    +0.000 A 
ATOM     22  C   UNL     1       1.658   4.222  19.479  0.00  0.00    +0.000 A 
ATOM     23  C   UNL     1       2.084   3.882  18.218  0.00  0.00    +0.000 A 
ATOM     24  C   UNL     1       2.949   4.680  17.498  0.00  0.00    +0.000 A 
ATOM     25  O   UNL     1       1.561   2.701  17.793  0.00  0.00    +0.000 OA
ATOM     26  C   UNL     1       0.766   2.331  18.939  0.00  0.00    +0.000 C 
ATOM     27  O   UNL     1       0.811   3.300  20.008  0.00  0.00    +0.000 OA
ENDBRANCH  18  19
ENDBRANCH  16  18
ENDBRANCH   1  16
TORSDOF 5
ENDMDL
MODEL 5
REMARK VINA RESULT:      -8.4      1.900      2.302
REMARK  Name = 
REMARK  6 active torsions:
REMARK  status: ('A' for Active; 'I' for Inactive)
REMARK    1  A    between atoms: C_1  and  C_2
REMARK    2  A    between atoms: C_5  and  C_6
REMARK    3  A    between atoms: C_8  and  S_9
REMARK    4  A    between atoms: S_9  and  N_12
REMARK    5  A    between atoms: N_12  and  C_13
REMARK    6  A    between atoms: C_13  and  C_14
REMARK                            x       y       z     vdW  Elec       q    Type
REMARK                         _______ _______ _______ _____ _____    ______ ____
ROOT
ATOM      1  S   UNL     1       6.614   5.191  16.295  0.00  0.00    +0.000 S 
ATOM      2  O   UNL     1       5.753   6.002  15.467  0.00  0.00    +0.000 OA
ATOM      3  O   UNL     1       7.738   4.449  15.772  0.00  0.00    +0.000 OA
ENDROOT
BRANCH   1   6
ATOM      4  C   UNL     1       8.199   8.210  18.271  0.00  0.00    +0.000 A 
ATOM      5  C   UNL     1       7.561   7.695  17.158  0.00  0.00    +0.000 A 
ATOM      6  C   UNL     1       7.342   6.314  17.398  0.00  0.00    +0.000 A 
ATOM      7  C   UNL     1       7.822   6.031  18.665  0.00  0.00    +0.000 A 
ATOM      8  N   UNL     1       8.360   7.184  19.174  0.00  0.00    +0.000 N 
ATOM      9  H   UNL     1       8.818   7.281  20.074  0.00  0.00    +0.000 HD
BRANCH   4  14
ATOM     10  C   UNL     1      10.507  11.898  20.393  0.00  0.00    +0.000 C 
ATOM     11  C   UNL     1       9.646  11.199  19.425  0.00  0.00    +0.000 A 
ATOM     12  N   UNL     1       9.052  11.653  18.344  0.00  0.00    +0.000 NA
ATOM     13  N   UNL     1       8.414  10.571  17.773  0.00  0.00    +0.000 NA
ATOM     14  C   UNL     1       8.660   9.529  18.547  0.00  0.00    +0.000 A 
ATOM     15  O   UNL     1       9.437   9.862  19.628  0.00  0.00    +0.000 OA
ENDBRANCH   4  14
ENDBRANCH   1   6
BRANCH   1  16
ATOM     16  N   UNL     1       5.681   4.126  17.201  0.00  0.00    +0.000 NA
ATOM     17  H   UNL     1       5.938   4.148  18.188  0.00  0.00    +0.000 HD
BRANCH  16  18
ATOM     18  C   UNL     1       4.237   4.158  16.954  0.00  0.00    +0.000 C 
BRANCH  18  19
ATOM     19  C   UNL     1       3.509   4.893  18.056  0.00  0.00    +0.000 A 
ATOM     20  C   UNL     1       3.090   4.201  19.219  0.00  0.00    +0.000 A 
ATOM     21  C   UNL     1       2.406   4.858  20.247  0.00  0.00    +0.000 A 
ATOM     22  C   UNL     1       2.148   6.202  20.085  0.00  0.00    +0.000 A 
ATOM     23  C   UNL     1       2.542   6.882  18.958  0.00  0.00    +0.000 A 
ATOM     24  C   UNL     1       3.221   6.262  17.929  0.00  0.00    +0.000 A 
ATOM     25  O   UNL     1       2.186   8.194  18.991  0.00  0.00    +0.000 OA
ATOM     26  C   UNL     1       1.511   8.258  20.265  0.00  0.00    +0.000 C 
ATOM     27  O   UNL     1       1.496   7.000  20.972  0.00  0.00    +0.000 OA
ENDBRANCH  18  19
ENDBRANCH  16  18
ENDBRANCH   1  16
TORSDOF 5
ENDMDL
MODEL 6
REMARK VINA RESULT:      -8.3      4.515      6.532
REMARK  Name = 
REMARK  6 active torsions:
REMARK  status: ('A' for Active; 'I' for Inactive)
REMARK    1  A    between atoms: C_1  and  C_2
REMARK    2  A    between atoms: C_5  and  C_6
REMARK    3  A    between atoms: C_8  and  S_9
REMARK    4  A    between atoms: S_9  and  N_12
REMARK    5  A    between atoms: N_12  and  C_13
REMARK    6  A    between atoms: C_13  and  C_14
REMARK                            x       y       z     vdW  Elec       q    Type
REMARK                         _______ _______ _______ _____ _____    ______ ____
ROOT
ATOM      1  S   UNL     1       2.924   2.833  19.594  0.00  0.00    +0.000 S 
ATOM      2  O   UNL     1       2.404   1.776  18.759  0.00  0.00    +0.000 OA
ATOM      3  O   UNL     1       3.438   2.606  20.925  0.00  0.00    +0.000 OA
ENDROOT
BRANCH   1   6
ATOM      4  C   UNL     1       5.649   4.087  17.038  0.00  0.00    +0.000 A 
ATOM      5  C   UNL     1       4.376   3.627  17.319  0.00  0.00    +0.000 A 
ATOM      6  C   UNL     1       4.296   3.441  18.724  0.00  0.00    +0.000 A 
ATOM      7  C   UNL     1       5.512   3.823  19.264  0.00  0.00    +0.000 A 
ATOM      8  N   UNL     1       6.331   4.190  18.228  0.00  0.00    +0.000 N 
ATOM      9  H   UNL     1       7.297   4.488  18.310  0.00  0.00    +0.000 HD
BRANCH   4  14
ATOM     10  C   UNL     1       6.840   3.948  12.348  0.00  0.00    +0.000 C 
ATOM     11  C   UNL     1       6.828   4.419  13.743  0.00  0.00    +0.000 A 
ATOM     12  N   UNL     1       7.391   5.479  14.278  0.00  0.00    +0.000 NA
ATOM     13  N   UNL     1       7.022   5.480  15.607  0.00  0.00    +0.000 NA
ATOM     14  C   UNL     1       6.260   4.417  15.794  0.00  0.00    +0.000 A 
ATOM     15  O   UNL     1       6.101   3.689  14.641  0.00  0.00    +0.000 OA
ENDBRANCH   4  14
ENDBRANCH   1   6
BRANCH   1  16
ATOM     16  N   UNL     1       1.798   4.078  19.691  0.00  0.00    +0.000 NA
ATOM     17  H   UNL     1       0.846   3.733  19.565  0.00  0.00    +0.000 HD
BRANCH  16  18
ATOM     18  C   UNL     1       1.958   5.009  20.811  0.00  0.00    +0.000 C 
BRANCH  18  19
ATOM     19  C   UNL     1       1.808   6.443  20.356  0.00  0.00    +0.000 A 
ATOM     20  C   UNL     1       1.159   7.390  21.186  0.00  0.00    +0.000 A 
ATOM     21  C   UNL     1       1.000   8.720  20.782  0.00  0.00    +0.000 A 
ATOM     22  C   UNL     1       1.490   9.074  19.544  0.00  0.00    +0.000 A 
ATOM     23  C   UNL     1       2.115   8.162  18.727  0.00  0.00    +0.000 A 
ATOM     24  C   UNL     1       2.289   6.845  19.100  0.00  0.00    +0.000 A 
ATOM     25  O   UNL     1       2.518   8.710  17.550  0.00  0.00    +0.000 OA
ATOM     26  C   UNL     1       2.066  10.070  17.716  0.00  0.00    +0.000 C 
ATOM     27  O   UNL     1       1.426  10.312  18.986  0.00  0.00    +0.000 OA
ENDBRANCH  18  19
ENDBRANCH  16  18
ENDBRANCH   1  16
TORSDOF 5
ENDMDL
MODEL 7
REMARK VINA RESULT:      -8.2      4.700      6.812
REMARK  Name = 
REMARK  6 active torsions:
REMARK  status: ('A' for Active; 'I' for Inactive)
REMARK    1  A    between atoms: C_1  and  C_2
REMARK    2  A    between atoms: C_5  and  C_6
REMARK    3  A    between atoms: C_8  and  S_9
REMARK    4  A    between atoms: S_9  and  N_12
REMARK    5  A    between atoms: N_12  and  C_13
REMARK    6  A    between atoms: C_13  and  C_14
REMARK                            x       y       z     vdW  Elec       q    Type
REMARK                         _______ _______ _______ _____ _____    ______ ____
ROOT
ATOM      1  S   UNL     1       2.628   3.615  19.380  0.00  0.00    +0.000 S 
ATOM      2  O   UNL     1       1.798   2.928  18.418  0.00  0.00    +0.000 OA
ATOM      3  O   UNL     1       3.053   3.015  20.625  0.00  0.00    +0.000 OA
ENDROOT
BRANCH   1   6
ATOM      4  C   UNL     1       5.606   4.276  16.886  0.00  0.00    +0.000 A 
ATOM      5  C   UNL     1       4.257   4.119  17.143  0.00  0.00    +0.000 A 
ATOM      6  C   UNL     1       4.116   3.912  18.540  0.00  0.00    +0.000 A 
ATOM      7  C   UNL     1       5.379   3.982  19.101  0.00  0.00    +0.000 A 
ATOM      8  N   UNL     1       6.276   4.180  18.083  0.00  0.00    +0.000 N 
ATOM      9  H   UNL     1       7.284   4.241  18.181  0.00  0.00    +0.000 HD
BRANCH   4  14
ATOM     10  C   UNL     1       6.878   3.913  12.230  0.00  0.00    +0.000 C 
ATOM     11  C   UNL     1       6.908   4.389  13.622  0.00  0.00    +0.000 A 
ATOM     12  N   UNL     1       7.622   5.346  14.170  0.00  0.00    +0.000 NA
ATOM     13  N   UNL     1       7.224   5.417  15.488  0.00  0.00    +0.000 NA
ATOM     14  C   UNL     1       6.294   4.494  15.658  0.00  0.00    +0.000 A 
ATOM     15  O   UNL     1       6.047   3.794  14.503  0.00  0.00    +0.000 OA
ENDBRANCH   4  14
ENDBRANCH   1   6
BRANCH   1  16
ATOM     16  N   UNL     1       1.947   5.108  19.744  0.00  0.00    +0.000 NA
ATOM     17  H   UNL     1       1.595   5.137  20.700  0.00  0.00    +0.000 HD
BRANCH  16  18
ATOM     18  C   UNL     1       2.724   6.287  19.352  0.00  0.00    +0.000 C 
BRANCH  18  19
ATOM     19  C   UNL     1       2.004   7.565  19.718  0.00  0.00    +0.000 A 
ATOM     20  C   UNL     1       1.436   7.719  21.006  0.00  0.00    +0.000 A 
ATOM     21  C   UNL     1       0.756   8.889  21.363  0.00  0.00    +0.000 A 
ATOM     22  C   UNL     1       0.653   9.882  20.414  0.00  0.00    +0.000 A 
ATOM     23  C   UNL     1       1.194   9.740  19.159  0.00  0.00    +0.000 A 
ATOM     24  C   UNL     1       1.872   8.601  18.779  0.00  0.00    +0.000 A 
ATOM     25  O   UNL     1       0.977  10.829  18.373  0.00  0.00    +0.000 OA
ATOM     26  C   UNL     1       0.227  11.668  19.276  0.00  0.00    +0.000 C 
ATOM     27  O   UNL     1       0.031  11.079  20.579  0.00  0.00    +0.000 OA
ENDBRANCH  18  19
ENDBRANCH  16  18
ENDBRANCH   1  16
TORSDOF 5
ENDMDL
MODEL 8
REMARK VINA RESULT:      -8.1      4.901      7.080
REMARK  Name = 
REMARK  6 active torsions:
REMARK  status: ('A' for Active; 'I' for Inactive)
REMARK    1  A    between atoms: C_1  and  C_2
REMARK    2  A    between atoms: C_5  and  C_6
REMARK    3  A    between atoms: C_8  and  S_9
REMARK    4  A    between atoms: S_9  and  N_12
REMARK    5  A    between atoms: N_12  and  C_13
REMARK    6  A    between atoms: C_13  and  C_14
REMARK                            x       y       z     vdW  Elec       q    Type
REMARK                         _______ _______ _______ _____ _____    ______ ____
ROOT
ATOM      1  S   UNL     1       2.734   4.848  19.558  0.00  0.00    +0.000 S 
ATOM      2  O   UNL     1       1.676   4.696  18.588  0.00  0.00    +0.000 OA
ATOM      3  O   UNL     1       2.923   3.939  20.666  0.00  0.00    +0.000 OA
ENDROOT
BRANCH   1   6
ATOM      4  C   UNL     1       5.646   4.634  16.912  0.00  0.00    +0.000 A 
ATOM      5  C   UNL     1       4.336   4.921  17.248  0.00  0.00    +0.000 A 
ATOM      6  C   UNL     1       4.196   4.683  18.640  0.00  0.00    +0.000 A 
ATOM      7  C   UNL     1       5.432   4.288  19.121  0.00  0.00    +0.000 A 
ATOM      8  N   UNL     1       6.297   4.241  18.058  0.00  0.00    +0.000 N 
ATOM      9  H   UNL     1       7.269   3.954  18.095  0.00  0.00    +0.000 HD
BRANCH   4  14
ATOM     10  C   UNL     1       6.708   3.816  12.261  0.00  0.00    +0.000 C 
ATOM     11  C   UNL     1       6.839   4.377  13.615  0.00  0.00    +0.000 A 
ATOM     12  N   UNL     1       7.677   5.279  14.075  0.00  0.00    +0.000 NA
ATOM     13  N   UNL     1       7.335   5.483  15.396  0.00  0.00    +0.000 NA
ATOM     14  C   UNL     1       6.312   4.688  15.654  0.00  0.00    +0.000 A 
ATOM     15  O   UNL     1       5.948   3.945  14.558  0.00  0.00    +0.000 OA
ENDBRANCH   4  14
ENDBRANCH   1   6
BRANCH   1  16
ATOM     16  N   UNL     1       2.704   6.408  20.183  0.00  0.00    +0.000 NA
ATOM     17  H   UNL     1       2.909   7.104  19.466  0.00  0.00    +0.000 HD
BRANCH  16  18
ATOM     18  C   UNL     1       1.561   6.742  21.037  0.00  0.00    +0.000 C 
BRANCH  18  19
ATOM     19  C   UNL     1       1.164   8.192  20.878  0.00  0.00    +0.000 A 
ATOM     20  C   UNL     1       1.295   8.834  19.622  0.00  0.00    +0.000 A 
ATOM     21  C   UNL     1       0.943  10.178  19.454  0.00  0.00    +0.000 A 
ATOM     22  C   UNL     1       0.471  10.856  20.556  0.00  0.00    +0.000 A 
ATOM     23  C   UNL     1       0.346  10.245  21.781  0.00  0.00    +0.000 A 
ATOM     24  C   UNL     1       0.682   8.922  21.977  0.00  0.00    +0.000 A 
ATOM     25  O   UNL     1      -0.132  11.088  22.736  0.00  0.00    +0.000 OA
ATOM     26  C   UNL     1      -0.282  12.304  21.972  0.00  0.00    +0.000 C 
ATOM     27  O   UNL     1       0.084  12.159  20.584  0.00  0.00    +0.000 OA
ENDBRANCH  18  19
ENDBRANCH  16  18
ENDBRANCH   1  16
TORSDOF 5
ENDMDL
MODEL 9
REMARK VINA RESULT:      -8.1      4.074      6.634
REMARK  Name = 
REMARK  6 active torsions:
REMARK  status: ('A' for Active; 'I' for Inactive)
REMARK    1  A    between atoms: C_1  and  C_2
REMARK    2  A    between atoms: C_5  and  C_6
REMARK    3  A    between atoms: C_8  and  S_9
REMARK    4  A    between atoms: S_9  and  N_12
REMARK    5  A    between atoms: N_12  and  C_13
REMARK    6  A    between atoms: C_13  and  C_14
REMARK                            x       y       z     vdW  Elec       q    Type
REMARK                         _______ _______ _______ _____ _____    ______ ____
ROOT
ATOM      1  S   UNL     1       2.272   2.983  19.223  0.00  0.00    +0.000 S 
ATOM      2  O   UNL     1       1.955   2.357  20.485  0.00  0.00    +0.000 OA
ATOM      3  O   UNL     1       1.493   2.776  18.023  0.00  0.00    +0.000 OA
ENDROOT
BRANCH   1   6
ATOM      4  C   UNL     1       1.994   6.914  19.209  0.00  0.00    +0.000 A 
ATOM      5  C   UNL     1       2.094   5.707  18.543  0.00  0.00    +0.000 A 
ATOM      6  C   UNL     1       2.114   4.683  19.526  0.00  0.00    +0.000 A 
ATOM      7  C   UNL     1       1.993   5.292  20.763  0.00  0.00    +0.000 A 
ATOM      8  N   UNL     1       1.945   6.646  20.558  0.00  0.00    +0.000 N 
ATOM      9  H   UNL     1       1.890   7.356  21.280  0.00  0.00    +0.000 HD
BRANCH   4  14
ATOM     10  C   UNL     1       1.159  11.674  18.943  0.00  0.00    +0.000 C 
ATOM     11  C   UNL     1       1.618  10.340  18.521  0.00  0.00    +0.000 A 
ATOM     12  N   UNL     1       2.289   9.980  17.450  0.00  0.00    +0.000 NA
ATOM     13  N   UNL     1       2.508   8.624  17.571  0.00  0.00    +0.000 NA
ATOM     14  C   UNL     1       1.951   8.247  18.708  0.00  0.00    +0.000 A 
ATOM     15  O   UNL     1       1.357   9.296  19.364  0.00  0.00    +0.000 OA
ENDBRANCH   4  14
ENDBRANCH   1   6
BRANCH   1  16
ATOM     16  N   UNL     1       3.882   2.687  18.838  0.00  0.00    +0.000 NA
ATOM     17  H   UNL     1       3.985   2.366  17.876  0.00  0.00    +0.000 HD
BRANCH  16  18
ATOM     18  C   UNL     1       4.843   3.721  19.234  0.00  0.00    +0.000 C 
BRANCH  18  19
ATOM     19  C   UNL     1       5.602   4.250  18.039  0.00  0.00    +0.000 A 
ATOM     20  C   UNL     1       6.512   5.325  18.192  0.00  0.00    +0.000 A 
ATOM     21  C   UNL     1       7.218   5.838  17.098  0.00  0.00    +0.000 A 
ATOM     22  C   UNL     1       6.991   5.265  15.866  0.00  0.00    +0.000 A 
ATOM     23  C   UNL     1       6.105   4.227  15.705  0.00  0.00    +0.000 A 
ATOM     24  C   UNL     1       5.397   3.698  16.764  0.00  0.00    +0.000 A 
ATOM     25  O   UNL     1       6.022   3.810  14.413  0.00  0.00    +0.000 OA
ATOM     26  C   UNL     1       6.950   4.714  13.778  0.00  0.00    +0.000 C 
ATOM     27  O   UNL     1       7.581   5.630  14.697  0.00  0.00    +0.000 OA
ENDBRANCH  18  19
ENDBRANCH  16  18
ENDBRANCH   1  16
TORSDOF 5
ENDMDL
