MODEL 1
REMARK VINA RESULT:      -7.0      0.000      0.000
REMARK  Name = 
REMARK  5 active torsions:
REMARK  status: ('A' for Active; 'I' for Inactive)
REMARK    1  A    between atoms: N_1  and  S_2
REMARK    2  A    between atoms: S_2  and  C_5
REMARK    3  A    between atoms: C_8  and  N_9
REMARK    4  A    between atoms: C_10  and  S_11
REMARK    5  A    between atoms: N_12  and  C_13
REMARK                            x       y       z     vdW  Elec       q    Type
REMARK                         _______ _______ _______ _____ _____    ______ ____
ROOT
ATOM      1  C   UNL     1       5.462   5.249  17.292  0.00  0.00    +0.000 A 
ATOM      2  C   UNL     1       5.389   4.675  18.562  0.00  0.00    +0.000 A 
ATOM      3  C   UNL     1       4.432   5.142  19.478  0.00  0.00    +0.000 A 
ATOM      4  C   UNL     1       3.541   6.179  19.141  0.00  0.00    +0.000 A 
ATOM      5  C   UNL     1       3.595   6.675  17.832  0.00  0.00    +0.000 A 
ATOM      6  C   UNL     1       4.563   6.242  16.921  0.00  0.00    +0.000 A 
ENDROOT
BRANCH   4   7
ATOM      7  N   UNL     1       2.733   6.741  20.146  0.00  0.00    +0.000 N 
ATOM      8  C   UNL     1       1.841   7.792  20.148  0.00  0.00    +0.000 C 
ATOM      9  N   UNL     1       1.146   8.002  21.224  0.00  0.00    +0.000 NA
ATOM     10  H   UNL     1       2.837   6.325  21.063  0.00  0.00    +0.000 HD
BRANCH   9  11
ATOM     11  C   UNL     1       0.229   9.139  21.281  0.00  0.00    +0.000 C 
ATOM     12  C   UNL     1      -0.478   9.256  22.625  0.00  0.00    +0.000 C 
ATOM     13  C   UNL     1      -1.066  10.665  22.548  0.00  0.00    +0.000 C 
ATOM     14  C   UNL     1      -0.063  11.480  21.723  0.00  0.00    +0.000 C 
ATOM     15  C   UNL     1       0.969  10.472  21.223  0.00  0.00    +0.000 C 
ENDBRANCH   9  11
BRANCH   8  16
ATOM     16  S   UNL     1       1.741   8.866  18.745  0.00  0.00    +0.000 S 
ATOM     17  H   UNL     1       1.795  10.013  19.427  0.00  0.00    +0.000 HD
ENDBRANCH   8  16
ENDBRANCH   4   7
BRANCH   1  18
ATOM     18  S   UNL     1       6.743   4.799  16.166  0.00  0.00    +0.000 S 
ATOM     19  O   UNL     1       7.321   5.990  15.594  0.00  0.00    +0.000 OA
ATOM     20  O   UNL     1       6.292   3.690  15.353  0.00  0.00    +0.000 OA
BRANCH  18  21
ATOM     21  N   UNL     1       7.910   4.162  17.201  0.00  0.00    +0.000 NA
ATOM     22  H   UNL     1       8.832   4.486  16.900  0.00  0.00    +0.000 HD
ATOM     23  H   UNL     1       7.821   3.147  17.236  0.00  0.00    +0.000 HD
ENDBRANCH  18  21
ENDBRANCH   1  18
TORSDOF 5
ENDMDL
MODEL 2
REMARK VINA RESULT:      -6.8      3.425      3.939
REMARK  Name = 
REMARK  5 active torsions:
REMARK  status: ('A' for Active; 'I' for Inactive)
REMARK    1  A    between atoms: N_1  and  S_2
REMARK    2  A    between atoms: S_2  and  C_5
REMARK    3  A    between atoms: C_8  and  N_9
REMARK    4  A    between atoms: C_10  and  S_11
REMARK    5  A    between atoms: N_12  and  C_13
REMARK                            x       y       z     vdW  Elec       q    Type
REMARK                         _______ _______ _______ _____ _____    ______ ____
ROOT
ATOM      1  C   UNL     1       3.178   4.063  19.053  0.00  0.00    +0.000 A 
ATOM      2  C   UNL     1       2.000   4.340  18.356  0.00  0.00    +0.000 A 
ATOM      3  C   UNL     1       1.744   5.652  17.925  0.00  0.00    +0.000 A 
ATOM      4  C   UNL     1       2.653   6.697  18.177  0.00  0.00    +0.000 A 
ATOM      5  C   UNL     1       3.858   6.364  18.811  0.00  0.00    +0.000 A 
ATOM      6  C   UNL     1       4.111   5.070  19.275  0.00  0.00    +0.000 A 
ENDROOT
BRANCH   4   7
ATOM      7  N   UNL     1       2.271   8.021  17.896  0.00  0.00    +0.000 N 
ATOM      8  C   UNL     1       1.754   9.030  18.678  0.00  0.00    +0.000 C 
ATOM      9  N   UNL     1       1.609  10.205  18.145  0.00  0.00    +0.000 NA
ATOM     10  H   UNL     1       2.356   8.294  16.924  0.00  0.00    +0.000 HD
BRANCH   9  11
ATOM     11  C   UNL     1       1.015  11.286  18.930  0.00  0.00    +0.000 C 
ATOM     12  C   UNL     1       1.615  12.647  18.602  0.00  0.00    +0.000 C 
ATOM     13  C   UNL     1       0.612  13.597  19.257  0.00  0.00    +0.000 C 
ATOM     14  C   UNL     1      -0.747  12.902  19.134  0.00  0.00    +0.000 C 
ATOM     15  C   UNL     1      -0.450  11.516  18.566  0.00  0.00    +0.000 C 
ENDBRANCH   9  11
BRANCH   8  16
ATOM     16  S   UNL     1       1.221   8.680  20.329  0.00  0.00    +0.000 S 
ATOM     17  H   UNL     1       0.723   7.468  20.076  0.00  0.00    +0.000 HD
ENDBRANCH   8  16
ENDBRANCH   4   7
BRANCH   1  18
ATOM     18  S   UNL     1       3.468   2.468  19.745  0.00  0.00    +0.000 S 
ATOM     19  O   UNL     1       3.058   1.453  18.804  0.00  0.00    +0.000 OA
ATOM     20  O   UNL     1       3.035   2.464  21.126  0.00  0.00    +0.000 OA
BRANCH  18  21
ATOM     21  N   UNL     1       5.151   2.409  19.794  0.00  0.00    +0.000 NA
ATOM     22  H   UNL     1       5.491   3.161  20.399  0.00  0.00    +0.000 HD
ATOM     23  H   UNL     1       5.524   2.443  18.846  0.00  0.00    +0.000 HD
ENDBRANCH  18  21
ENDBRANCH   1  18
TORSDOF 5
ENDMDL
MODEL 3
REMARK VINA RESULT:      -6.8      0.875      1.128
REMARK  Name = 
REMARK  5 active torsions:
REMARK  status: ('A' for Active; 'I' for Inactive)
REMARK    1  A    between atoms: N_1  and  S_2
REMARK    2  A    between atoms: S_2  and  C_5
REMARK    3  A    between atoms: C_8  and  N_9
REMARK    4  A    between atoms: C_10  and  S_11
REMARK    5  A    between atoms: N_12  and  C_13
REMARK                            x       y       z     vdW  Elec       q    Type
REMARK                         _______ _______ _______ _____ _____    ______ ____
ROOT
ATOM      1  C   UNL     1       5.285   5.075  17.147  0.00  0.00    +0.000 A 
ATOM      2  C   UNL     1       4.942   4.359  18.295  0.00  0.00    +0.000 A 
ATOM      3  C   UNL     1       4.050   4.923  19.222  0.00  0.00    +0.000 A 
ATOM      4  C   UNL     1       3.491   6.199  19.017  0.00  0.00    +0.000 A 
ATOM      5  C   UNL     1       3.799   6.852  17.817  0.00  0.00    +0.000 A 
ATOM      6  C   UNL     1       4.709   6.317  16.901  0.00  0.00    +0.000 A 
ENDROOT
BRANCH   4   7
ATOM      7  N   UNL     1       2.757   6.800  20.056  0.00  0.00    +0.000 N 
ATOM      8  C   UNL     1       1.839   7.827  20.077  0.00  0.00    +0.000 C 
ATOM      9  N   UNL     1       1.234   8.084  21.197  0.00  0.00    +0.000 NA
ATOM     10  H   UNL     1       2.953   6.442  20.982  0.00  0.00    +0.000 HD
BRANCH   9  11
ATOM     11  C   UNL     1       0.293   9.201  21.269  0.00  0.00    +0.000 C 
ATOM     12  C   UNL     1      -0.424   9.277  22.611  0.00  0.00    +0.000 C 
ATOM     13  C   UNL     1      -1.041  10.675  22.558  0.00  0.00    +0.000 C 
ATOM     14  C   UNL     1      -0.051  11.526  21.755  0.00  0.00    +0.000 C 
ATOM     15  C   UNL     1       1.005  10.550  21.242  0.00  0.00    +0.000 C 
ENDBRANCH   9  11
BRANCH   8  16
ATOM     16  S   UNL     1       1.585   8.814  18.630  0.00  0.00    +0.000 S 
ATOM     17  H   UNL     1       1.766   9.998  19.218  0.00  0.00    +0.000 HD
ENDBRANCH   8  16
ENDBRANCH   4   7
BRANCH   1  18
ATOM     18  S   UNL     1       6.513   4.473  16.035  0.00  0.00    +0.000 S 
ATOM     19  O   UNL     1       6.004   3.319  15.334  0.00  0.00    +0.000 OA
ATOM     20  O   UNL     1       7.797   4.469  16.704  0.00  0.00    +0.000 OA
BRANCH  18  21
ATOM     21  N   UNL     1       6.595   5.714  14.898  0.00  0.00    +0.000 NA
ATOM     22  H   UNL     1       5.664   5.858  14.498  0.00  0.00    +0.000 HD
ATOM     23  H   UNL     1       7.311   5.500  14.207  0.00  0.00    +0.000 HD
ENDBRANCH  18  21
ENDBRANCH   1  18
TORSDOF 5
ENDMDL
MODEL 4
REMARK VINA RESULT:      -6.8      1.666      1.942
REMARK  Name = 
REMARK  5 active torsions:
REMARK  status: ('A' for Active; 'I' for Inactive)
REMARK    1  A    between atoms: N_1  and  S_2
REMARK    2  A    between atoms: S_2  and  C_5
REMARK    3  A    between atoms: C_8  and  N_9
REMARK    4  A    between atoms: C_10  and  S_11
REMARK    5  A    between atoms: N_12  and  C_13
REMARK                            x       y       z     vdW  Elec       q    Type
REMARK                         _______ _______ _______ _____ _____    ______ ____
ROOT
ATOM      1  C   UNL     1       5.353   5.612  17.677  0.00  0.00    +0.000 A 
ATOM      2  C   UNL     1       4.844   5.159  18.896  0.00  0.00    +0.000 A 
ATOM      3  C   UNL     1       3.732   5.802  19.463  0.00  0.00    +0.000 A 
ATOM      4  C   UNL     1       3.114   6.895  18.826  0.00  0.00    +0.000 A 
ATOM      5  C   UNL     1       3.605   7.269  17.568  0.00  0.00    +0.000 A 
ATOM      6  C   UNL     1       4.732   6.660  17.008  0.00  0.00    +0.000 A 
ENDROOT
BRANCH   4   7
ATOM      7  N   UNL     1       2.128   7.624  19.516  0.00  0.00    +0.000 N 
ATOM      8  C   UNL     1       1.507   8.826  19.261  0.00  0.00    +0.000 C 
ATOM      9  N   UNL     1       0.534   9.189  20.040  0.00  0.00    +0.000 NA
ATOM     10  H   UNL     1       1.827   7.214  20.392  0.00  0.00    +0.000 HD
BRANCH   9  11
ATOM     11  C   UNL     1      -0.114  10.483  19.832  0.00  0.00    +0.000 C 
ATOM     12  C   UNL     1      -1.370  10.380  18.976  0.00  0.00    +0.000 C 
ATOM     13  C   UNL     1      -2.022  11.743  19.211  0.00  0.00    +0.000 C 
ATOM     14  C   UNL     1      -1.663  12.123  20.651  0.00  0.00    +0.000 C 
ATOM     15  C   UNL     1      -0.689  11.049  21.128  0.00  0.00    +0.000 C 
ENDBRANCH   9  11
BRANCH   8  16
ATOM     16  S   UNL     1       2.104   9.871  17.963  0.00  0.00    +0.000 S 
ATOM     17  H   UNL     1       3.278  10.163  18.530  0.00  0.00    +0.000 HD
ENDBRANCH   8  16
ENDBRANCH   4   7
BRANCH   1  18
ATOM     18  S   UNL     1       6.835   4.934  17.006  0.00  0.00    +0.000 S 
ATOM     19  O   UNL     1       7.636   4.379  18.070  0.00  0.00    +0.000 OA
ATOM     20  O   UNL     1       7.377   5.854  16.028  0.00  0.00    +0.000 OA
BRANCH  18  21
ATOM     21  N   UNL     1       6.252   3.622  16.125  0.00  0.00    +0.000 NA
ATOM     22  H   UNL     1       5.918   3.955  15.217  0.00  0.00    +0.000 HD
ATOM     23  H   UNL     1       5.544   3.130  16.668  0.00  0.00    +0.000 HD
ENDBRANCH  18  21
ENDBRANCH   1  18
TORSDOF 5
ENDMDL
MODEL 5
REMARK VINA RESULT:      -6.7      2.802      3.350
REMARK  Name = 
REMARK  5 active torsions:
REMARK  status: ('A' for Active; 'I' for Inactive)
REMARK    1  A    between atoms: N_1  and  S_2
REMARK    2  A    between atoms: S_2  and  C_5
REMARK    3  A    between atoms: C_8  and  N_9
REMARK    4  A    between atoms: C_10  and  S_11
REMARK    5  A    between atoms: N_12  and  C_13
REMARK                            x       y       z     vdW  Elec       q    Type
REMARK                         _______ _______ _______ _____ _____    ______ ____
ROOT
ATOM      1  C   UNL     1       3.094   4.083  19.452  0.00  0.00    +0.000 A 
ATOM      2  C   UNL     1       1.901   4.212  20.166  0.00  0.00    +0.000 A 
ATOM      3  C   UNL     1       1.421   5.493  20.485  0.00  0.00    +0.000 A 
ATOM      4  C   UNL     1       2.118   6.653  20.097  0.00  0.00    +0.000 A 
ATOM      5  C   UNL     1       3.269   6.484  19.317  0.00  0.00    +0.000 A 
ATOM      6  C   UNL     1       3.775   5.215  19.020  0.00  0.00    +0.000 A 
ENDROOT
BRANCH   4   7
ATOM      7  N   UNL     1       1.704   7.901  20.599  0.00  0.00    +0.000 N 
ATOM      8  C   UNL     1       1.272   9.057  19.986  0.00  0.00    +0.000 C 
ATOM      9  N   UNL     1       0.840  10.023  20.738  0.00  0.00    +0.000 NA
ATOM     10  H   UNL     1       1.757   7.997  21.606  0.00  0.00    +0.000 HD
BRANCH   9  11
ATOM     11  C   UNL     1       0.424  11.284  20.125  0.00  0.00    +0.000 C 
ATOM     12  C   UNL     1      -0.987  11.694  20.528  0.00  0.00    +0.000 C 
ATOM     13  C   UNL     1      -1.032  13.152  20.070  0.00  0.00    +0.000 C 
ATOM     14  C   UNL     1       0.395  13.680  20.253  0.00  0.00    +0.000 C 
ATOM     15  C   UNL     1       1.234  12.467  20.649  0.00  0.00    +0.000 C 
ENDBRANCH   9  11
BRANCH   8  16
ATOM     16  S   UNL     1       1.407   9.227  18.230  0.00  0.00    +0.000 S 
ATOM     17  H   UNL     1       0.514   8.286  17.915  0.00  0.00    +0.000 HD
ENDBRANCH   8  16
ENDBRANCH   4   7
BRANCH   1  18
ATOM     18  S   UNL     1       3.810   2.498  19.163  0.00  0.00    +0.000 S 
ATOM     19  O   UNL     1       2.764   1.531  18.933  0.00  0.00    +0.000 OA
ATOM     20  O   UNL     1       4.874   2.276  20.120  0.00  0.00    +0.000 OA
BRANCH  18  21
ATOM     21  N   UNL     1       4.573   2.725  17.678  0.00  0.00    +0.000 NA
ATOM     22  H   UNL     1       5.154   3.566  17.729  0.00  0.00    +0.000 HD
ATOM     23  H   UNL     1       3.877   2.750  16.934  0.00  0.00    +0.000 HD
ENDBRANCH  18  21
ENDBRANCH   1  18
TORSDOF 5
ENDMDL
MODEL 6
REMARK VINA RESULT:      -6.7      2.879      3.467
REMARK  Name = 
REMARK  5 active torsions:
REMARK  status: ('A' for Active; 'I' for Inactive)
REMARK    1  A    between atoms: N_1  and  S_2
REMARK    2  A    between atoms: S_2  and  C_5
REMARK    3  A    between atoms: C_8  and  N_9
REMARK    4  A    between atoms: C_10  and  S_11
REMARK    5  A    between atoms: N_12  and  C_13
REMARK                            x       y       z     vdW  Elec       q    Type
REMARK                         _______ _______ _______ _____ _____    ______ ____
ROOT
ATOM      1  C   UNL     1       3.121   3.933  19.332  0.00  0.00    +0.000 A 
ATOM      2  C   UNL     1       3.907   5.054  19.056  0.00  0.00    +0.000 A 
ATOM      3  C   UNL     1       3.472   6.323  19.472  0.00  0.00    +0.000 A 
ATOM      4  C   UNL     1       2.258   6.490  20.166  0.00  0.00    +0.000 A 
ATOM      5  C   UNL     1       1.537   5.334  20.491  0.00  0.00    +0.000 A 
ATOM      6  C   UNL     1       1.941   4.069  20.056  0.00  0.00    +0.000 A 
ENDROOT
BRANCH   4   7
ATOM      7  N   UNL     1       1.773   7.791  20.394  0.00  0.00    +0.000 N 
ATOM      8  C   UNL     1       1.437   8.824  19.547  0.00  0.00    +0.000 C 
ATOM      9  N   UNL     1       0.897   9.886  20.061  0.00  0.00    +0.000 NA
ATOM     10  H   UNL     1       1.675   8.047  21.369  0.00  0.00    +0.000 HD
BRANCH   9  11
ATOM     11  C   UNL     1       0.576  11.023  19.200  0.00  0.00    +0.000 C 
ATOM     12  C   UNL     1      -0.910  11.114  18.877  0.00  0.00    +0.000 C 
ATOM     13  C   UNL     1      -1.019  12.525  18.300  0.00  0.00    +0.000 C 
ATOM     14  C   UNL     1       0.027  13.355  19.051  0.00  0.00    +0.000 C 
ATOM     15  C   UNL     1       0.804  12.357  19.906  0.00  0.00    +0.000 C 
ENDBRANCH   9  11
BRANCH   8  16
ATOM     16  S   UNL     1       1.833   8.717  17.825  0.00  0.00    +0.000 S 
ATOM     17  H   UNL     1       2.568   7.605  17.906  0.00  0.00    +0.000 HD
ENDBRANCH   8  16
ENDBRANCH   4   7
BRANCH   1  18
ATOM     18  S   UNL     1       3.552   2.345  18.698  0.00  0.00    +0.000 S 
ATOM     19  O   UNL     1       4.107   2.489  17.375  0.00  0.00    +0.000 OA
ATOM     20  O   UNL     1       2.486   1.412  18.994  0.00  0.00    +0.000 OA
BRANCH  18  21
ATOM     21  N   UNL     1       4.834   1.905  19.700  0.00  0.00    +0.000 NA
ATOM     22  H   UNL     1       4.480   1.770  20.650  0.00  0.00    +0.000 HD
ATOM     23  H   UNL     1       5.576   2.599  19.632  0.00  0.00    +0.000 HD
ENDBRANCH  18  21
ENDBRANCH   1  18
TORSDOF 5
ENDMDL
MODEL 7
REMARK VINA RESULT:      -6.7      1.347      1.563
REMARK  Name = 
REMARK  5 active torsions:
REMARK  status: ('A' for Active; 'I' for Inactive)
REMARK    1  A    between atoms: N_1  and  S_2
REMARK    2  A    between atoms: S_2  and  C_5
REMARK    3  A    between atoms: C_8  and  N_9
REMARK    4  A    between atoms: C_10  and  S_11
REMARK    5  A    between atoms: N_12  and  C_13
REMARK                            x       y       z     vdW  Elec       q    Type
REMARK                         _______ _______ _______ _____ _____    ______ ____
ROOT
ATOM      1  C   UNL     1       5.198   5.552  17.329  0.00  0.00    +0.000 A 
ATOM      2  C   UNL     1       4.647   4.992  18.482  0.00  0.00    +0.000 A 
ATOM      3  C   UNL     1       3.603   5.658  19.144  0.00  0.00    +0.000 A 
ATOM      4  C   UNL     1       3.096   6.882  18.667  0.00  0.00    +0.000 A 
ATOM      5  C   UNL     1       3.623   7.372  17.465  0.00  0.00    +0.000 A 
ATOM      6  C   UNL     1       4.683   6.737  16.814  0.00  0.00    +0.000 A 
ENDROOT
BRANCH   4   7
ATOM      7  N   UNL     1       2.187   7.604  19.461  0.00  0.00    +0.000 N 
ATOM      8  C   UNL     1       1.552   8.814  19.288  0.00  0.00    +0.000 C 
ATOM      9  N   UNL     1       0.661   9.168  20.163  0.00  0.00    +0.000 NA
ATOM     10  H   UNL     1       1.969   7.181  20.355  0.00  0.00    +0.000 HD
BRANCH   9  11
ATOM     11  C   UNL     1       0.005  10.469  20.040  0.00  0.00    +0.000 C 
ATOM     12  C   UNL     1      -1.265  10.408  19.202  0.00  0.00    +0.000 C 
ATOM     13  C   UNL     1      -1.918  11.753  19.524  0.00  0.00    +0.000 C 
ATOM     14  C   UNL     1      -1.535  12.053  20.978  0.00  0.00    +0.000 C 
ATOM     15  C   UNL     1      -0.549  10.958  21.376  0.00  0.00    +0.000 C 
ENDBRANCH   9  11
BRANCH   8  16
ATOM     16  S   UNL     1       2.028   9.877  17.956  0.00  0.00    +0.000 S 
ATOM     17  H   UNL     1       2.948   9.063  17.432  0.00  0.00    +0.000 HD
ENDBRANCH   8  16
ENDBRANCH   4   7
BRANCH   1  18
ATOM     18  S   UNL     1       6.607   4.830  16.554  0.00  0.00    +0.000 S 
ATOM     19  O   UNL     1       7.418   5.868  15.965  0.00  0.00    +0.000 OA
ATOM     20  O   UNL     1       6.193   3.657  15.814  0.00  0.00    +0.000 OA
BRANCH  18  21
ATOM     21  N   UNL     1       7.476   4.251  17.877  0.00  0.00    +0.000 NA
ATOM     22  H   UNL     1       8.289   4.853  18.029  0.00  0.00    +0.000 HD
ATOM     23  H   UNL     1       7.711   3.270  17.731  0.00  0.00    +0.000 HD
ENDBRANCH  18  21
ENDBRANCH   1  18
TORSDOF 5
ENDMDL
MODEL 8
REMARK VINA RESULT:      -6.6      2.219      2.729
REMARK  Name = 
REMARK  5 active torsions:
REMARK  status: ('A' for Active; 'I' for Inactive)
REMARK    1  A    between atoms: N_1  and  S_2
REMARK    2  A    between atoms: S_2  and  C_5
REMARK    3  A    between atoms: C_8  and  N_9
REMARK    4  A    between atoms: C_10  and  S_11
REMARK    5  A    between atoms: N_12  and  C_13
REMARK                            x       y       z     vdW  Elec       q    Type
REMARK                         _______ _______ _______ _____ _____    ______ ____
ROOT
ATOM      1  C   UNL     1       3.047   4.599  18.711  0.00  0.00    +0.000 A 
ATOM      2  C   UNL     1       2.302   4.492  19.886  0.00  0.00    +0.000 A 
ATOM      3  C   UNL     1       1.837   5.657  20.518  0.00  0.00    +0.000 A 
ATOM      4  C   UNL     1       2.104   6.934  19.989  0.00  0.00    +0.000 A 
ATOM      5  C   UNL     1       2.787   6.995  18.768  0.00  0.00    +0.000 A 
ATOM      6  C   UNL     1       3.284   5.847  18.145  0.00  0.00    +0.000 A 
ENDROOT
BRANCH   4   7
ATOM      7  N   UNL     1       1.783   8.072  20.751  0.00  0.00    +0.000 N 
ATOM      8  C   UNL     1       1.085   9.223  20.461  0.00  0.00    +0.000 C 
ATOM      9  N   UNL     1       0.853  10.058  21.428  0.00  0.00    +0.000 NA
ATOM     10  H   UNL     1       2.160   8.078  21.691  0.00  0.00    +0.000 HD
BRANCH   9  11
ATOM     11  C   UNL     1       0.161  11.315  21.147  0.00  0.00    +0.000 C 
ATOM     12  C   UNL     1      -0.726  11.767  22.300  0.00  0.00    +0.000 C 
ATOM     13  C   UNL     1      -1.026  13.216  21.914  0.00  0.00    +0.000 C 
ATOM     14  C   UNL     1       0.230  13.714  21.190  0.00  0.00    +0.000 C 
ATOM     15  C   UNL     1       1.131  12.490  21.045  0.00  0.00    +0.000 C 
ENDBRANCH   9  11
BRANCH   8  16
ATOM     16  S   UNL     1       0.617   9.574  18.791  0.00  0.00    +0.000 S 
ATOM     17  H   UNL     1      -0.176  10.612  19.069  0.00  0.00    +0.000 HD
ENDBRANCH   8  16
ENDBRANCH   4   7
BRANCH   1  18
ATOM     18  S   UNL     1       3.778   3.176  17.968  0.00  0.00    +0.000 S 
ATOM     19  O   UNL     1       4.604   3.583  16.857  0.00  0.00    +0.000 OA
ATOM     20  O   UNL     1       2.779   2.136  17.851  0.00  0.00    +0.000 OA
BRANCH  18  21
ATOM     21  N   UNL     1       4.837   2.659  19.173  0.00  0.00    +0.000 NA
ATOM     22  H   UNL     1       5.200   3.477  19.669  0.00  0.00    +0.000 HD
ATOM     23  H   UNL     1       5.561   2.070  18.765  0.00  0.00    +0.000 HD
ENDBRANCH  18  21
ENDBRANCH   1  18
TORSDOF 5
ENDMDL
MODEL 9
REMARK VINA RESULT:      -6.6      4.930      8.677
REMARK  Name = 
REMARK  5 active torsions:
REMARK  status: ('A' for Active; 'I' for Inactive)
REMARK    1  A    between atoms: N_1  and  S_2
REMARK    2  A    between atoms: S_2  and  C_5
REMARK    3  A    between atoms: C_8  and  N_9
REMARK    4  A    between atoms: C_10  and  S_11
REMARK    5  A    between atoms: N_12  and  C_13
REMARK                            x       y       z     vdW  Elec       q    Type
REMARK                         _______ _______ _______ _____ _____    ______ ____
ROOT
ATOM      1  C   UNL     1      -0.695  10.899  22.032  0.00  0.00    +0.000 A 
ATOM      2  C   UNL     1      -0.112  10.043  22.969  0.00  0.00    +0.000 A 
ATOM      3  C   UNL     1       0.701   8.986  22.528  0.00  0.00    +0.000 A 
ATOM      4  C   UNL     1       0.943   8.771  21.158  0.00  0.00    +0.000 A 
ATOM      5  C   UNL     1       0.404   9.697  20.255  0.00  0.00    +0.000 A 
ATOM      6  C   UNL     1      -0.433  10.733  20.677  0.00  0.00    +0.000 A 
ENDROOT
BRANCH   4   7
ATOM      7  N   UNL     1       1.603   7.596  20.755  0.00  0.00    +0.000 N 
ATOM      8  C   UNL     1       2.300   7.261  19.615  0.00  0.00    +0.000 C 
ATOM      9  N   UNL     1       2.907   6.113  19.584  0.00  0.00    +0.000 NA
ATOM     10  H   UNL     1       1.536   6.822  21.405  0.00  0.00    +0.000 HD
BRANCH   9  11
ATOM     11  C   UNL     1       3.612   5.701  18.371  0.00  0.00    +0.000 C 
ATOM     12  C   UNL     1       5.076   5.368  18.628  0.00  0.00    +0.000 C 
ATOM     13  C   UNL     1       5.465   4.649  17.336  0.00  0.00    +0.000 C 
ATOM     14  C   UNL     1       4.199   3.912  16.884  0.00  0.00    +0.000 C 
ATOM     15  C   UNL     1       3.097   4.367  17.837  0.00  0.00    +0.000 C 
ENDBRANCH   9  11
BRANCH   8  16
ATOM     16  S   UNL     1       2.269   8.340  18.213  0.00  0.00    +0.000 S 
ATOM     17  H   UNL     1       3.519   8.793  18.341  0.00  0.00    +0.000 HD
ENDBRANCH   8  16
ENDBRANCH   4   7
BRANCH   1  18
ATOM     18  S   UNL     1      -1.841  12.143  22.531  0.00  0.00    +0.000 S 
ATOM     19  O   UNL     1      -2.780  11.583  23.472  0.00  0.00    +0.000 OA
ATOM     20  O   UNL     1      -2.264  12.892  21.367  0.00  0.00    +0.000 OA
BRANCH  18  21
ATOM     21  N   UNL     1      -0.859  13.189  23.414  0.00  0.00    +0.000 NA
ATOM     22  H   UNL     1       0.087  12.801  23.455  0.00  0.00    +0.000 HD
ATOM     23  H   UNL     1      -1.273  13.358  24.330  0.00  0.00    +0.000 HD
ENDBRANCH  18  21
ENDBRANCH   1  18
TORSDOF 5
ENDMDL
