MODEL 1
REMARK VINA RESULT:      -6.4      0.000      0.000
REMARK  Name = 
REMARK  3 active torsions:
REMARK  status: ('A' for Active; 'I' for Inactive)
REMARK    1  A    between atoms: C_2  and  C_3
REMARK    2  A    between atoms: C_3  and  N_4
REMARK    3  A    between atoms: N_4  and  C_5
REMARK                            x       y       z     vdW  Elec       q    Type
REMARK                         _______ _______ _______ _____ _____    ______ ____
ROOT
ATOM      1  C   UNL     1       3.861   4.486  17.261  0.00  0.00    +0.000 C 
ATOM      2  C   UNL     1       2.720   3.968  18.115  0.00  0.00    +0.000 A 
ATOM      3  C   UNL     1       1.960   2.817  17.948  0.00  0.00    +0.000 A 
ATOM      4  C   UNL     1       1.029   2.450  18.928  0.00  0.00    +0.000 A 
ATOM      5  C   UNL     1       0.809   3.285  20.029  0.00  0.00    +0.000 A 
ATOM      6  C   UNL     1       1.500   4.485  20.151  0.00  0.00    +0.000 A 
ATOM      7  C   UNL     1       2.453   4.816  19.191  0.00  0.00    +0.000 A 
ATOM      8  C   UNL     1       3.306   6.038  19.177  0.00  0.00    +0.000 C 
ATOM      9  C   UNL     1       4.192   5.849  17.942  0.00  0.00    +0.000 C 
ATOM     10  F   UNL     1       3.944   6.859  17.056  0.00  0.00    +0.000 F 
ENDROOT
BRANCH   1  11
ATOM     11  N   UNL     1       5.094   3.661  17.239  0.00  0.00    +0.000 NA
ATOM     12  H   UNL     1       5.402   3.532  18.206  0.00  0.00    +0.000 HD
BRANCH  11  13
ATOM     13  C   UNL     1       6.172   4.292  16.509  0.00  0.00    +0.000 C 
BRANCH  13  15
ATOM     14  C   UNL     1       6.058   3.898  13.716  0.00  0.00    +0.000 C 
ATOM     15  C   UNL     1       6.110   4.080  15.005  0.00  0.00    +0.000 C 
ENDBRANCH  13  15
ENDBRANCH  11  13
ENDBRANCH   1  11
TORSDOF 3
ENDMDL
MODEL 2
REMARK VINA RESULT:      -6.4      1.707      4.883
REMARK  Name = 
REMARK  3 active torsions:
REMARK  status: ('A' for Active; 'I' for Inactive)
REMARK    1  A    between atoms: C_2  and  C_3
REMARK    2  A    between atoms: C_3  and  N_4
REMARK    3  A    between atoms: N_4  and  C_5
REMARK                            x       y       z     vdW  Elec       q    Type
REMARK                         _______ _______ _______ _____ _____    ______ ____
ROOT
ATOM      1  C   UNL     1       2.720   4.505  18.370  0.00  0.00    +0.000 C 
ATOM      2  C   UNL     1       3.849   4.698  17.377  0.00  0.00    +0.000 A 
ATOM      3  C   UNL     1       4.590   3.734  16.703  0.00  0.00    +0.000 A 
ATOM      4  C   UNL     1       5.511   4.125  15.723  0.00  0.00    +0.000 A 
ATOM      5  C   UNL     1       5.742   5.484  15.484  0.00  0.00    +0.000 A 
ATOM      6  C   UNL     1       5.071   6.452  16.224  0.00  0.00    +0.000 A 
ATOM      7  C   UNL     1       4.127   6.049  17.165  0.00  0.00    +0.000 A 
ATOM      8  C   UNL     1       3.295   6.942  18.021  0.00  0.00    +0.000 C 
ATOM      9  C   UNL     1       2.410   5.970  18.807  0.00  0.00    +0.000 C 
ATOM     10  F   UNL     1       2.678   6.101  20.140  0.00  0.00    +0.000 F 
ENDROOT
BRANCH   1  11
ATOM     11  N   UNL     1       1.473   3.900  17.841  0.00  0.00    +0.000 NA
ATOM     12  H   UNL     1       0.719   4.583  17.955  0.00  0.00    +0.000 HD
BRANCH  11  13
ATOM     13  C   UNL     1       1.094   2.696  18.549  0.00  0.00    +0.000 C 
BRANCH  13  15
ATOM     14  C   UNL     1       1.368   2.877  21.353  0.00  0.00    +0.000 C 
ATOM     15  C   UNL     1       1.241   2.794  20.059  0.00  0.00    +0.000 C 
ENDBRANCH  13  15
ENDBRANCH  11  13
ENDBRANCH   1  11
TORSDOF 3
ENDMDL
MODEL 3
REMARK VINA RESULT:      -6.4      2.042      2.567
REMARK  Name = 
REMARK  3 active torsions:
REMARK  status: ('A' for Active; 'I' for Inactive)
REMARK    1  A    between atoms: C_2  and  C_3
REMARK    2  A    between atoms: C_3  and  N_4
REMARK    3  A    between atoms: N_4  and  C_5
REMARK                            x       y       z     vdW  Elec       q    Type
REMARK                         _______ _______ _______ _____ _____    ______ ____
ROOT
ATOM      1  C   UNL     1       4.770   3.678  18.383  0.00  0.00    +0.000 C 
ATOM      2  C   UNL     1       3.648   3.489  19.385  0.00  0.00    +0.000 A 
ATOM      3  C   UNL     1       3.598   2.645  20.488  0.00  0.00    +0.000 A 
ATOM      4  C   UNL     1       2.510   2.713  21.368  0.00  0.00    +0.000 A 
ATOM      5  C   UNL     1       1.441   3.570  21.090  0.00  0.00    +0.000 A 
ATOM      6  C   UNL     1       1.443   4.347  19.936  0.00  0.00    +0.000 A 
ATOM      7  C   UNL     1       2.551   4.300  19.093  0.00  0.00    +0.000 A 
ATOM      8  C   UNL     1       2.740   5.083  17.838  0.00  0.00    +0.000 C 
ATOM      9  C   UNL     1       4.140   4.680  17.367  0.00  0.00    +0.000 C 
ATOM     10  F   UNL     1       4.042   4.070  16.148  0.00  0.00    +0.000 F 
ENDROOT
BRANCH   1  11
ATOM     11  N   UNL     1       6.026   4.269  18.905  0.00  0.00    +0.000 NA
ATOM     12  H   UNL     1       5.782   5.110  19.435  0.00  0.00    +0.000 HD
BRANCH  11  13
ATOM     13  C   UNL     1       6.939   4.657  17.851  0.00  0.00    +0.000 C 
BRANCH  13  15
ATOM     14  C   UNL     1       7.800   7.341  18.003  0.00  0.00    +0.000 C 
ATOM     15  C   UNL     1       7.402   6.102  17.933  0.00  0.00    +0.000 C 
ENDBRANCH  13  15
ENDBRANCH  11  13
ENDBRANCH   1  11
TORSDOF 3
ENDMDL
MODEL 4
REMARK VINA RESULT:      -6.3      1.939      2.488
REMARK  Name = 
REMARK  3 active torsions:
REMARK  status: ('A' for Active; 'I' for Inactive)
REMARK    1  A    between atoms: C_2  and  C_3
REMARK    2  A    between atoms: C_3  and  N_4
REMARK    3  A    between atoms: N_4  and  C_5
REMARK                            x       y       z     vdW  Elec       q    Type
REMARK                         _______ _______ _______ _____ _____    ______ ____
ROOT
ATOM      1  C   UNL     1       4.865   5.204  17.774  0.00  0.00    +0.000 C 
ATOM      2  C   UNL     1       3.778   4.153  17.883  0.00  0.00    +0.000 A 
ATOM      3  C   UNL     1       3.886   2.772  17.772  0.00  0.00    +0.000 A 
ATOM      4  C   UNL     1       2.774   1.963  18.034  0.00  0.00    +0.000 A 
ATOM      5  C   UNL     1       1.538   2.550  18.326  0.00  0.00    +0.000 A 
ATOM      6  C   UNL     1       1.403   3.934  18.345  0.00  0.00    +0.000 A 
ATOM      7  C   UNL     1       2.528   4.725  18.124  0.00  0.00    +0.000 A 
ATOM      8  C   UNL     1       2.577   6.215  18.139  0.00  0.00    +0.000 C 
ATOM      9  C   UNL     1       4.055   6.531  17.896  0.00  0.00    +0.000 C 
ATOM     10  F   UNL     1       4.176   7.233  16.730  0.00  0.00    +0.000 F 
ENDROOT
BRANCH   1  11
ATOM     11  N   UNL     1       5.904   5.190  18.833  0.00  0.00    +0.000 NA
ATOM     12  H   UNL     1       5.703   5.957  19.480  0.00  0.00    +0.000 HD
BRANCH  11  13
ATOM     13  C   UNL     1       7.238   5.388  18.307  0.00  0.00    +0.000 C 
BRANCH  13  15
ATOM     14  C   UNL     1       7.808   8.061  17.597  0.00  0.00    +0.000 C 
ATOM     15  C   UNL     1       7.545   6.827  17.924  0.00  0.00    +0.000 C 
ENDBRANCH  13  15
ENDBRANCH  11  13
ENDBRANCH   1  11
TORSDOF 3
ENDMDL
MODEL 5
REMARK VINA RESULT:      -6.3      1.612      2.441
REMARK  Name = 
REMARK  3 active torsions:
REMARK  status: ('A' for Active; 'I' for Inactive)
REMARK    1  A    between atoms: C_2  and  C_3
REMARK    2  A    between atoms: C_3  and  N_4
REMARK    3  A    between atoms: N_4  and  C_5
REMARK                            x       y       z     vdW  Elec       q    Type
REMARK                         _______ _______ _______ _____ _____    ______ ____
ROOT
ATOM      1  C   UNL     1       4.922   4.493  16.278  0.00  0.00    +0.000 C 
ATOM      2  C   UNL     1       3.700   4.272  17.148  0.00  0.00    +0.000 A 
ATOM      3  C   UNL     1       2.985   3.100  17.363  0.00  0.00    +0.000 A 
ATOM      4  C   UNL     1       1.954   3.079  18.311  0.00  0.00    +0.000 A 
ATOM      5  C   UNL     1       1.594   4.255  18.978  0.00  0.00    +0.000 A 
ATOM      6  C   UNL     1       2.245   5.451  18.695  0.00  0.00    +0.000 A 
ATOM      7  C   UNL     1       3.296   5.448  17.781  0.00  0.00    +0.000 A 
ATOM      8  C   UNL     1       4.123   6.623  17.383  0.00  0.00    +0.000 C 
ATOM      9  C   UNL     1       5.148   6.031  16.411  0.00  0.00    +0.000 C 
ATOM     10  F   UNL     1       4.985   6.610  15.183  0.00  0.00    +0.000 F 
ENDROOT
BRANCH   1  11
ATOM     11  N   UNL     1       6.164   3.800  16.699  0.00  0.00    +0.000 NA
ATOM     12  H   UNL     1       6.006   3.411  17.632  0.00  0.00    +0.000 HD
BRANCH  11  13
ATOM     13  C   UNL     1       7.301   4.692  16.775  0.00  0.00    +0.000 C 
BRANCH  13  15
ATOM     14  C   UNL     1       7.822   5.675  19.369  0.00  0.00    +0.000 C 
ATOM     15  C   UNL     1       7.581   5.222  18.171  0.00  0.00    +0.000 C 
ENDBRANCH  13  15
ENDBRANCH  11  13
ENDBRANCH   1  11
TORSDOF 3
ENDMDL
MODEL 6
REMARK VINA RESULT:      -6.3      2.439      5.281
REMARK  Name = 
REMARK  3 active torsions:
REMARK  status: ('A' for Active; 'I' for Inactive)
REMARK    1  A    between atoms: C_2  and  C_3
REMARK    2  A    between atoms: C_3  and  N_4
REMARK    3  A    between atoms: N_4  and  C_5
REMARK                            x       y       z     vdW  Elec       q    Type
REMARK                         _______ _______ _______ _____ _____    ______ ____
ROOT
ATOM      1  C   UNL     1       4.562   4.415  19.260  0.00  0.00    +0.000 C 
ATOM      2  C   UNL     1       5.694   5.338  18.852  0.00  0.00    +0.000 A 
ATOM      3  C   UNL     1       6.948   5.486  19.431  0.00  0.00    +0.000 A 
ATOM      4  C   UNL     1       7.903   6.308  18.819  0.00  0.00    +0.000 A 
ATOM      5  C   UNL     1       7.565   7.040  17.676  0.00  0.00    +0.000 A 
ATOM      6  C   UNL     1       6.281   6.967  17.148  0.00  0.00    +0.000 A 
ATOM      7  C   UNL     1       5.354   6.113  17.742  0.00  0.00    +0.000 A 
ATOM      8  C   UNL     1       3.951   5.885  17.296  0.00  0.00    +0.000 C 
ATOM      9  C   UNL     1       3.430   4.821  18.267  0.00  0.00    +0.000 C 
ATOM     10  F   UNL     1       2.383   5.339  18.977  0.00  0.00    +0.000 F 
ENDROOT
BRANCH   1  11
ATOM     11  N   UNL     1       4.813   2.960  19.114  0.00  0.00    +0.000 NA
ATOM     12  H   UNL     1       4.238   2.618  18.340  0.00  0.00    +0.000 HD
BRANCH  11  13
ATOM     13  C   UNL     1       4.453   2.212  20.300  0.00  0.00    +0.000 C 
BRANCH  13  15
ATOM     14  C   UNL     1       1.977   2.963  21.429  0.00  0.00    +0.000 C 
ATOM     15  C   UNL     1       3.120   2.616  20.907  0.00  0.00    +0.000 C 
ENDBRANCH  13  15
ENDBRANCH  11  13
ENDBRANCH   1  11
TORSDOF 3
ENDMDL
MODEL 7
REMARK VINA RESULT:      -6.2      1.910      5.300
REMARK  Name = 
REMARK  3 active torsions:
REMARK  status: ('A' for Active; 'I' for Inactive)
REMARK    1  A    between atoms: C_2  and  C_3
REMARK    2  A    between atoms: C_3  and  N_4
REMARK    3  A    between atoms: N_4  and  C_5
REMARK                            x       y       z     vdW  Elec       q    Type
REMARK                         _______ _______ _______ _____ _____    ______ ____
ROOT
ATOM      1  C   UNL     1       3.046   5.588  18.407  0.00  0.00    +0.000 C 
ATOM      2  C   UNL     1       4.321   5.491  17.593  0.00  0.00    +0.000 A 
ATOM      3  C   UNL     1       5.364   6.404  17.496  0.00  0.00    +0.000 A 
ATOM      4  C   UNL     1       6.521   6.067  16.782  0.00  0.00    +0.000 A 
ATOM      5  C   UNL     1       6.589   4.846  16.102  0.00  0.00    +0.000 A 
ATOM      6  C   UNL     1       5.509   3.970  16.117  0.00  0.00    +0.000 A 
ATOM      7  C   UNL     1       4.382   4.301  16.866  0.00  0.00    +0.000 A 
ATOM      8  C   UNL     1       3.152   3.474  17.023  0.00  0.00    +0.000 C 
ATOM      9  C   UNL     1       2.286   4.292  17.986  0.00  0.00    +0.000 C 
ATOM     10  F   UNL     1       1.127   4.645  17.353  0.00  0.00    +0.000 F 
ENDROOT
BRANCH   1  11
ATOM     11  N   UNL     1       3.204   5.579  19.882  0.00  0.00    +0.000 NA
ATOM     12  H   UNL     1       3.866   4.836  20.122  0.00  0.00    +0.000 HD
BRANCH  11  13
ATOM     13  C   UNL     1       1.961   5.308  20.573  0.00  0.00    +0.000 C 
BRANCH  13  15
ATOM     14  C   UNL     1       1.815   2.730  21.714  0.00  0.00    +0.000 C 
ATOM     15  C   UNL     1       1.883   3.920  21.187  0.00  0.00    +0.000 C 
ENDBRANCH  13  15
ENDBRANCH  11  13
ENDBRANCH   1  11
TORSDOF 3
ENDMDL
MODEL 8
REMARK VINA RESULT:      -6.2      1.944      2.227
REMARK  Name = 
REMARK  3 active torsions:
REMARK  status: ('A' for Active; 'I' for Inactive)
REMARK    1  A    between atoms: C_2  and  C_3
REMARK    2  A    between atoms: C_3  and  N_4
REMARK    3  A    between atoms: N_4  and  C_5
REMARK                            x       y       z     vdW  Elec       q    Type
REMARK                         _______ _______ _______ _____ _____    ______ ____
ROOT
ATOM      1  C   UNL     1       2.900   5.777  17.706  0.00  0.00    +0.000 C 
ATOM      2  C   UNL     1       2.173   4.679  18.458  0.00  0.00    +0.000 A 
ATOM      3  C   UNL     1       1.817   3.410  18.017  0.00  0.00    +0.000 A 
ATOM      4  C   UNL     1       1.257   2.493  18.916  0.00  0.00    +0.000 A 
ATOM      5  C   UNL     1       0.982   2.884  20.231  0.00  0.00    +0.000 A 
ATOM      6  C   UNL     1       1.249   4.182  20.649  0.00  0.00    +0.000 A 
ATOM      7  C   UNL     1       1.845   5.071  19.757  0.00  0.00    +0.000 A 
ATOM      8  C   UNL     1       2.229   6.483  20.039  0.00  0.00    +0.000 C 
ATOM      9  C   UNL     1       2.883   6.949  18.735  0.00  0.00    +0.000 C 
ATOM     10  F   UNL     1       2.157   7.983  18.216  0.00  0.00    +0.000 F 
ENDROOT
BRANCH   1  11
ATOM     11  N   UNL     1       4.310   5.498  17.336  0.00  0.00    +0.000 NA
ATOM     12  H   UNL     1       4.831   5.321  18.198  0.00  0.00    +0.000 HD
BRANCH  11  13
ATOM     13  C   UNL     1       4.937   6.613  16.658  0.00  0.00    +0.000 C 
BRANCH  13  15
ATOM     14  C   UNL     1       7.516   7.241  17.618  0.00  0.00    +0.000 C 
ATOM     15  C   UNL     1       6.326   6.951  17.175  0.00  0.00    +0.000 C 
ENDBRANCH  13  15
ENDBRANCH  11  13
ENDBRANCH   1  11
TORSDOF 3
ENDMDL
MODEL 9
REMARK VINA RESULT:      -6.1      1.536      1.962
REMARK  Name = 
REMARK  3 active torsions:
REMARK  status: ('A' for Active; 'I' for Inactive)
REMARK    1  A    between atoms: C_2  and  C_3
REMARK    2  A    between atoms: C_3  and  N_4
REMARK    3  A    between atoms: N_4  and  C_5
REMARK                            x       y       z     vdW  Elec       q    Type
REMARK                         _______ _______ _______ _____ _____    ______ ____
ROOT
ATOM      1  C   UNL     1       2.901   6.185  18.238  0.00  0.00    +0.000 C 
ATOM      2  C   UNL     1       2.273   4.835  18.524  0.00  0.00    +0.000 A 
ATOM      3  C   UNL     1       2.207   3.714  17.704  0.00  0.00    +0.000 A 
ATOM      4  C   UNL     1       1.691   2.514  18.207  0.00  0.00    +0.000 A 
ATOM      5  C   UNL     1       1.169   2.468  19.505  0.00  0.00    +0.000 A 
ATOM      6  C   UNL     1       1.147   3.612  20.295  0.00  0.00    +0.000 A 
ATOM      7  C   UNL     1       1.702   4.788  19.796  0.00  0.00    +0.000 A 
ATOM      8  C   UNL     1       1.794   6.093  20.510  0.00  0.00    +0.000 C 
ATOM      9  C   UNL     1       2.537   6.996  19.520  0.00  0.00    +0.000 C 
ATOM     10  F   UNL     1       1.725   8.037  19.169  0.00  0.00    +0.000 F 
ENDROOT
BRANCH   1  11
ATOM     11  N   UNL     1       4.375   6.205  18.075  0.00  0.00    +0.000 NA
ATOM     12  H   UNL     1       4.763   6.821  18.794  0.00  0.00    +0.000 HD
BRANCH  11  13
ATOM     13  C   UNL     1       4.785   6.714  16.784  0.00  0.00    +0.000 C 
BRANCH  13  15
ATOM     14  C   UNL     1       5.594   4.715  14.962  0.00  0.00    +0.000 C 
ATOM     15  C   UNL     1       5.221   5.638  15.803  0.00  0.00    +0.000 C 
ENDBRANCH  13  15
ENDBRANCH  11  13
ENDBRANCH   1  11
TORSDOF 3
ENDMDL
