MODEL 1
REMARK VINA RESULT:      -5.9      0.000      0.000
REMARK  Name = 
REMARK  11 active torsions:
REMARK  status: ('A' for Active; 'I' for Inactive)
REMARK    1  A    between atoms: C_1  and  O_2
REMARK    2  A    between atoms: O_2  and  C_3
REMARK    3  A    between atoms: C_7  and  O_8
REMARK    4  A    between atoms: O_8  and  C_9
REMARK    5  A    between atoms: C_10  and  O_11
REMARK    6  A    between atoms: O_11  and  C_12
REMARK    7  A    between atoms: C_16  and  S_17
REMARK    8  A    between atoms: S_17  and  C_18
REMARK    9  A    between atoms: C_23  and  N_24
REMARK   10  A    between atoms: C_25  and  C_27
REMARK   11  A    between atoms: C_27  and  O_28
REMARK                            x       y       z     vdW  Elec       q    Type
REMARK                         _______ _______ _______ _____ _____    ______ ____
ROOT
ATOM      1  C   UNL     1      -0.067  15.649  22.880  0.00  0.00    +0.000 A 
ATOM      2  C   UNL     1       0.019  15.711  21.493  0.00  0.00    +0.000 A 
ATOM      3  C   UNL     1      -0.810  14.936  20.694  0.00  0.00    +0.000 A 
ATOM      4  C   UNL     1      -1.720  14.018  21.278  0.00  0.00    +0.000 A 
ATOM      5  C   UNL     1      -1.802  13.921  22.698  0.00  0.00    +0.000 A 
ATOM      6  C   UNL     1      -0.970  14.753  23.501  0.00  0.00    +0.000 A 
ATOM      7  C   UNL     1      -2.502  13.184  20.301  0.00  0.00    +0.000 A 
ATOM      8  C   UNL     1      -3.826  13.410  20.341  0.00  0.00    +0.000 A 
ATOM      9  C   UNL     1      -4.912  12.679  19.742  0.00  0.00    +0.000 A 
ATOM     10  C   UNL     1      -4.955  11.799  18.732  0.00  0.00    +0.000 A 
ATOM     11  C   UNL     1      -3.786  11.390  17.906  0.00  0.00    +0.000 A 
ATOM     12  O   UNL     1      -3.906  10.797  16.831  0.00  0.00    +0.000 OA
ATOM     13  C   UNL     1      -2.393  11.648  18.313  0.00  0.00    +0.000 A 
ATOM     14  C   UNL     1      -1.802  12.339  19.307  0.00  0.00    +0.000 A 
ATOM     15  C   UNL     1      -0.251  12.462  19.324  0.00  0.00    +0.000 C 
ATOM     16  C   UNL     1       0.171  13.816  18.693  0.00  0.00    +0.000 C 
ATOM     17  C   UNL     1      -0.623  15.024  19.197  0.00  0.00    +0.000 C 
ENDROOT
BRANCH  15  18
ATOM     18  N   UNL     1       0.374  11.328  18.637  0.00  0.00    +0.000 N 
ATOM     19  C   UNL     1       0.797  10.190  19.288  0.00  0.00    +0.000 C 
ATOM     20  O   UNL     1       0.723  10.006  20.503  0.00  0.00    +0.000 OA
ATOM     21  H   UNL     1       0.104  11.173  17.671  0.00  0.00    +0.000 HD
BRANCH  19  22
ATOM     22  C   UNL     1       1.476   9.175  18.363  0.00  0.00    +0.000 C 
BRANCH  22  23
ATOM     23  O   UNL     1       2.067   9.773  17.221  0.00  0.00    +0.000 OA
ATOM     24  H   UNL     1       1.326  10.013  16.629  0.00  0.00    +0.000 HD
ENDBRANCH  22  23
ENDBRANCH  19  22
ENDBRANCH  15  18
BRANCH   1  26
ATOM     25  C   UNL     1       0.486  17.830  23.613  0.00  0.00    +0.000 C 
ATOM     26  O   UNL     1       0.742  16.427  23.681  0.00  0.00    +0.000 OA
ENDBRANCH   1  26
BRANCH   5  27
ATOM     27  O   UNL     1      -2.731  13.164  23.366  0.00  0.00    +0.000 OA
ATOM     28  C   UNL     1      -2.567  11.759  23.511  0.00  0.00    +0.000 C 
ENDBRANCH   5  27
BRANCH   6  29
ATOM     29  O   UNL     1      -0.924  14.806  24.876  0.00  0.00    +0.000 OA
ATOM     30  C   UNL     1      -1.922  15.500  25.608  0.00  0.00    +0.000 C 
ENDBRANCH   6  29
BRANCH  10  31
ATOM     31  S   UNL     1      -6.495  10.973  18.508  0.00  0.00    +0.000 S 
ATOM     32  C   UNL     1      -7.241  10.843  20.142  0.00  0.00    +0.000 C 
ENDBRANCH  10  31
TORSDOF 7
ENDMDL
MODEL 2
REMARK VINA RESULT:      -5.6      2.780      6.618
REMARK  Name = 
REMARK  11 active torsions:
REMARK  status: ('A' for Active; 'I' for Inactive)
REMARK    1  A    between atoms: C_1  and  O_2
REMARK    2  A    between atoms: O_2  and  C_3
REMARK    3  A    between atoms: C_7  and  O_8
REMARK    4  A    between atoms: O_8  and  C_9
REMARK    5  A    between atoms: C_10  and  O_11
REMARK    6  A    between atoms: O_11  and  C_12
REMARK    7  A    between atoms: C_16  and  S_17
REMARK    8  A    between atoms: S_17  and  C_18
REMARK    9  A    between atoms: C_23  and  N_24
REMARK   10  A    between atoms: C_25  and  C_27
REMARK   11  A    between atoms: C_27  and  O_28
REMARK                            x       y       z     vdW  Elec       q    Type
REMARK                         _______ _______ _______ _____ _____    ______ ____
ROOT
ATOM      1  C   UNL     1      -2.771  10.635  17.848  0.00  0.00    +0.000 A 
ATOM      2  C   UNL     1      -1.457  10.707  18.299  0.00  0.00    +0.000 A 
ATOM      3  C   UNL     1      -1.110  11.548  19.348  0.00  0.00    +0.000 A 
ATOM      4  C   UNL     1      -2.078  12.398  19.939  0.00  0.00    +0.000 A 
ATOM      5  C   UNL     1      -3.425  12.358  19.471  0.00  0.00    +0.000 A 
ATOM      6  C   UNL     1      -3.769  11.460  18.421  0.00  0.00    +0.000 A 
ATOM      7  C   UNL     1      -1.555  13.315  21.010  0.00  0.00    +0.000 A 
ATOM      8  C   UNL     1      -2.078  13.076  22.225  0.00  0.00    +0.000 A 
ATOM      9  C   UNL     1      -2.009  13.851  23.436  0.00  0.00    +0.000 A 
ATOM     10  C   UNL     1      -1.177  14.824  23.835  0.00  0.00    +0.000 A 
ATOM     11  C   UNL     1      -0.008  15.319  23.058  0.00  0.00    +0.000 A 
ATOM     12  O   UNL     1       0.881  16.012  23.561  0.00  0.00    +0.000 OA
ATOM     13  C   UNL     1       0.174  15.036  21.622  0.00  0.00    +0.000 A 
ATOM     14  C   UNL     1      -0.452  14.257  20.717  0.00  0.00    +0.000 A 
ATOM     15  C   UNL     1       0.137  14.146  19.281  0.00  0.00    +0.000 C 
ATOM     16  C   UNL     1       1.002  12.862  19.171  0.00  0.00    +0.000 C 
ATOM     17  C   UNL     1       0.346  11.605  19.748  0.00  0.00    +0.000 C 
ENDROOT
BRANCH  15  18
ATOM     18  N   UNL     1       0.904  15.346  18.933  0.00  0.00    +0.000 N 
ATOM     19  C   UNL     1       0.320  16.517  18.502  0.00  0.00    +0.000 C 
ATOM     20  O   UNL     1      -0.890  16.682  18.338  0.00  0.00    +0.000 OA
ATOM     21  H   UNL     1       1.787  15.480  19.413  0.00  0.00    +0.000 HD
BRANCH  19  22
ATOM     22  C   UNL     1       1.333  17.606  18.138  0.00  0.00    +0.000 C 
BRANCH  22  23
ATOM     23  O   UNL     1       2.237  17.898  19.191  0.00  0.00    +0.000 OA
ATOM     24  H   UNL     1       2.203  17.130  19.796  0.00  0.00    +0.000 HD
ENDBRANCH  22  23
ENDBRANCH  19  22
ENDBRANCH  15  18
BRANCH   1  26
ATOM     25  C   UNL     1      -2.800  10.263  15.512  0.00  0.00    +0.000 C 
ATOM     26  O   UNL     1      -3.127   9.790  16.819  0.00  0.00    +0.000 OA
ENDBRANCH   1  26
BRANCH   5  27
ATOM     27  O   UNL     1      -4.463  13.040  20.053  0.00  0.00    +0.000 OA
ATOM     28  C   UNL     1      -5.346  12.398  20.964  0.00  0.00    +0.000 C 
ENDBRANCH   5  27
BRANCH   6  29
ATOM     29  O   UNL     1      -5.011  11.275  17.855  0.00  0.00    +0.000 OA
ATOM     30  C   UNL     1      -5.597  12.286  17.050  0.00  0.00    +0.000 C 
ENDBRANCH   6  29
BRANCH  10  31
ATOM     31  S   UNL     1      -1.634  15.655  25.320  0.00  0.00    +0.000 S 
ATOM     32  C   UNL     1      -3.368  16.105  25.132  0.00  0.00    +0.000 C 
ENDBRANCH  10  31
TORSDOF 7
ENDMDL
MODEL 3
REMARK VINA RESULT:      -5.5      3.107      5.505
REMARK  Name = 
REMARK  11 active torsions:
REMARK  status: ('A' for Active; 'I' for Inactive)
REMARK    1  A    between atoms: C_1  and  O_2
REMARK    2  A    between atoms: O_2  and  C_3
REMARK    3  A    between atoms: C_7  and  O_8
REMARK    4  A    between atoms: O_8  and  C_9
REMARK    5  A    between atoms: C_10  and  O_11
REMARK    6  A    between atoms: O_11  and  C_12
REMARK    7  A    between atoms: C_16  and  S_17
REMARK    8  A    between atoms: S_17  and  C_18
REMARK    9  A    between atoms: C_23  and  N_24
REMARK   10  A    between atoms: C_25  and  C_27
REMARK   11  A    between atoms: C_27  and  O_28
REMARK                            x       y       z     vdW  Elec       q    Type
REMARK                         _______ _______ _______ _____ _____    ______ ____
ROOT
ATOM      1  C   UNL     1      -3.127  13.013  23.842  0.00  0.00    +0.000 A 
ATOM      2  C   UNL     1      -2.370  11.928  23.413  0.00  0.00    +0.000 A 
ATOM      3  C   UNL     1      -1.302  12.105  22.543  0.00  0.00    +0.000 A 
ATOM      4  C   UNL     1      -1.001  13.390  22.026  0.00  0.00    +0.000 A 
ATOM      5  C   UNL     1      -1.784  14.510  22.433  0.00  0.00    +0.000 A 
ATOM      6  C   UNL     1      -2.851  14.314  23.355  0.00  0.00    +0.000 A 
ATOM      7  C   UNL     1       0.129  13.431  21.034  0.00  0.00    +0.000 A 
ATOM      8  C   UNL     1       1.186  14.147  21.453  0.00  0.00    +0.000 A 
ATOM      9  C   UNL     1       2.345  14.602  20.732  0.00  0.00    +0.000 A 
ATOM     10  C   UNL     1       2.898  14.208  19.576  0.00  0.00    +0.000 A 
ATOM     11  C   UNL     1       2.414  13.074  18.742  0.00  0.00    +0.000 A 
ATOM     12  O   UNL     1       3.093  12.573  17.842  0.00  0.00    +0.000 OA
ATOM     13  C   UNL     1       1.079  12.471  18.913  0.00  0.00    +0.000 A 
ATOM     14  C   UNL     1       0.080  12.605  19.807  0.00  0.00    +0.000 A 
ATOM     15  C   UNL     1      -1.161  11.673  19.697  0.00  0.00    +0.000 C 
ATOM     16  C   UNL     1      -1.005  10.479  20.676  0.00  0.00    +0.000 C 
ATOM     17  C   UNL     1      -0.559  10.871  22.086  0.00  0.00    +0.000 C 
ENDROOT
BRANCH  15  18
ATOM     18  N   UNL     1      -1.358  11.219  18.317  0.00  0.00    +0.000 N 
ATOM     19  C   UNL     1      -2.570  11.279  17.667  0.00  0.00    +0.000 C 
ATOM     20  O   UNL     1      -3.618  11.691  18.167  0.00  0.00    +0.000 OA
ATOM     21  H   UNL     1      -0.556  11.278  17.697  0.00  0.00    +0.000 HD
BRANCH  19  22
ATOM     22  C   UNL     1      -2.536  10.685  16.255  0.00  0.00    +0.000 C 
BRANCH  22  23
ATOM     23  O   UNL     1      -3.180  11.505  15.292  0.00  0.00    +0.000 OA
ATOM     24  H   UNL     1      -3.021  12.427  15.575  0.00  0.00    +0.000 HD
ENDBRANCH  22  23
ENDBRANCH  19  22
ENDBRANCH  15  18
BRANCH   1  26
ATOM     25  C   UNL     1      -5.436  12.567  24.102  0.00  0.00    +0.000 C 
ATOM     26  O   UNL     1      -4.179  12.848  24.717  0.00  0.00    +0.000 OA
ENDBRANCH   1  26
BRANCH   5  27
ATOM     27  O   UNL     1      -1.503  15.810  22.095  0.00  0.00    +0.000 OA
ATOM     28  C   UNL     1      -0.654  16.613  22.906  0.00  0.00    +0.000 C 
ENDBRANCH   5  27
BRANCH   6  29
ATOM     29  O   UNL     1      -3.697  15.272  23.868  0.00  0.00    +0.000 OA
ATOM     30  C   UNL     1      -3.385  15.940  25.080  0.00  0.00    +0.000 C 
ENDBRANCH   6  29
BRANCH  10  31
ATOM     31  S   UNL     1       4.191  15.235  18.961  0.00  0.00    +0.000 S 
ATOM     32  C   UNL     1       3.483  16.176  17.598  0.00  0.00    +0.000 C 
ENDBRANCH  10  31
TORSDOF 7
ENDMDL
MODEL 4
REMARK VINA RESULT:      -5.4      2.864      6.289
REMARK  Name = 
REMARK  11 active torsions:
REMARK  status: ('A' for Active; 'I' for Inactive)
REMARK    1  A    between atoms: C_1  and  O_2
REMARK    2  A    between atoms: O_2  and  C_3
REMARK    3  A    between atoms: C_7  and  O_8
REMARK    4  A    between atoms: O_8  and  C_9
REMARK    5  A    between atoms: C_10  and  O_11
REMARK    6  A    between atoms: O_11  and  C_12
REMARK    7  A    between atoms: C_16  and  S_17
REMARK    8  A    between atoms: S_17  and  C_18
REMARK    9  A    between atoms: C_23  and  N_24
REMARK   10  A    between atoms: C_25  and  C_27
REMARK   11  A    between atoms: C_27  and  O_28
REMARK                            x       y       z     vdW  Elec       q    Type
REMARK                         _______ _______ _______ _____ _____    ______ ____
ROOT
ATOM      1  C   UNL     1      -0.950  10.439  18.469  0.00  0.00    +0.000 A 
ATOM      2  C   UNL     1      -0.466  11.000  19.646  0.00  0.00    +0.000 A 
ATOM      3  C   UNL     1      -1.250  11.868  20.395  0.00  0.00    +0.000 A 
ATOM      4  C   UNL     1      -2.537  12.249  19.940  0.00  0.00    +0.000 A 
ATOM      5  C   UNL     1      -3.039  11.706  18.721  0.00  0.00    +0.000 A 
ATOM      6  C   UNL     1      -2.236  10.787  17.987  0.00  0.00    +0.000 A 
ATOM      7  C   UNL     1      -3.248  13.255  20.803  0.00  0.00    +0.000 A 
ATOM      8  C   UNL     1      -4.377  12.783  21.359  0.00  0.00    +0.000 A 
ATOM      9  C   UNL     1      -5.432  13.476  22.051  0.00  0.00    +0.000 A 
ATOM     10  C   UNL     1      -5.483  14.680  22.639  0.00  0.00    +0.000 A 
ATOM     11  C   UNL     1      -4.337  15.622  22.757  0.00  0.00    +0.000 A 
ATOM     12  O   UNL     1      -4.343  16.585  23.528  0.00  0.00    +0.000 OA
ATOM     13  C   UNL     1      -3.108  15.488  21.952  0.00  0.00    +0.000 A 
ATOM     14  C   UNL     1      -2.622  14.563  21.100  0.00  0.00    +0.000 A 
ATOM     15  C   UNL     1      -1.189  14.747  20.524  0.00  0.00    +0.000 C 
ATOM     16  C   UNL     1      -0.182  13.907  21.355  0.00  0.00    +0.000 C 
ATOM     17  C   UNL     1      -0.635  12.472  21.636  0.00  0.00    +0.000 C 
ENDROOT
BRANCH  15  18
ATOM     18  N   UNL     1      -0.813  16.164  20.490  0.00  0.00    +0.000 N 
ATOM     19  C   UNL     1      -0.342  16.793  19.360  0.00  0.00    +0.000 C 
ATOM     20  O   UNL     1      -0.161  16.245  18.272  0.00  0.00    +0.000 OA
ATOM     21  H   UNL     1      -1.299  16.781  21.133  0.00  0.00    +0.000 HD
BRANCH  19  22
ATOM     22  C   UNL     1       0.044  18.258  19.592  0.00  0.00    +0.000 C 
BRANCH  22  23
ATOM     23  O   UNL     1       1.292  18.602  19.013  0.00  0.00    +0.000 OA
ATOM     24  H   UNL     1       1.381  19.570  19.121  0.00  0.00    +0.000 HD
ENDBRANCH  22  23
ENDBRANCH  19  22
ENDBRANCH  15  18
BRANCH   1  26
ATOM     25  C   UNL     1       1.209   9.575  18.034  0.00  0.00    +0.000 C 
ATOM     26  O   UNL     1      -0.185   9.564  17.728  0.00  0.00    +0.000 OA
ENDBRANCH   1  26
BRANCH   5  27
ATOM     27  O   UNL     1      -4.314  11.906  18.255  0.00  0.00    +0.000 OA
ATOM     28  C   UNL     1      -5.316  10.910  18.406  0.00  0.00    +0.000 C 
ENDBRANCH   5  27
BRANCH   6  29
ATOM     29  O   UNL     1      -2.558  10.155  16.807  0.00  0.00    +0.000 OA
ATOM     30  C   UNL     1      -2.762  10.902  15.618  0.00  0.00    +0.000 C 
ENDBRANCH   6  29
BRANCH  10  31
ATOM     31  S   UNL     1      -7.083  15.208  23.155  0.00  0.00    +0.000 S 
ATOM     32  C   UNL     1      -7.726  13.904  24.219  0.00  0.00    +0.000 C 
ENDBRANCH  10  31
TORSDOF 7
ENDMDL
MODEL 5
REMARK VINA RESULT:      -5.3      2.784      6.229
REMARK  Name = 
REMARK  11 active torsions:
REMARK  status: ('A' for Active; 'I' for Inactive)
REMARK    1  A    between atoms: C_1  and  O_2
REMARK    2  A    between atoms: O_2  and  C_3
REMARK    3  A    between atoms: C_7  and  O_8
REMARK    4  A    between atoms: O_8  and  C_9
REMARK    5  A    between atoms: C_10  and  O_11
REMARK    6  A    between atoms: O_11  and  C_12
REMARK    7  A    between atoms: C_16  and  S_17
REMARK    8  A    between atoms: S_17  and  C_18
REMARK    9  A    between atoms: C_23  and  N_24
REMARK   10  A    between atoms: C_25  and  C_27
REMARK   11  A    between atoms: C_27  and  O_28
REMARK                            x       y       z     vdW  Elec       q    Type
REMARK                         _______ _______ _______ _____ _____    ______ ____
ROOT
ATOM      1  C   UNL     1       1.609   9.082  19.528  0.00  0.00    +0.000 A 
ATOM      2  C   UNL     1       1.363  10.323  18.950  0.00  0.00    +0.000 A 
ATOM      3  C   UNL     1       0.520  11.240  19.565  0.00  0.00    +0.000 A 
ATOM      4  C   UNL     1      -0.156  10.903  20.765  0.00  0.00    +0.000 A 
ATOM      5  C   UNL     1       0.063   9.624  21.357  0.00  0.00    +0.000 A 
ATOM      6  C   UNL     1       0.960   8.713  20.732  0.00  0.00    +0.000 A 
ATOM      7  C   UNL     1      -1.099  11.954  21.284  0.00  0.00    +0.000 A 
ATOM      8  C   UNL     1      -0.740  12.455  22.478  0.00  0.00    +0.000 A 
ATOM      9  C   UNL     1      -1.471  13.293  23.392  0.00  0.00    +0.000 A 
ATOM     10  C   UNL     1      -2.539  14.086  23.226  0.00  0.00    +0.000 A 
ATOM     11  C   UNL     1      -3.229  14.330  21.930  0.00  0.00    +0.000 A 
ATOM     12  O   UNL     1      -4.025  15.259  21.764  0.00  0.00    +0.000 OA
ATOM     13  C   UNL     1      -3.029  13.473  20.747  0.00  0.00    +0.000 A 
ATOM     14  C   UNL     1      -2.202  12.456  20.434  0.00  0.00    +0.000 A 
ATOM     15  C   UNL     1      -2.233  11.874  18.992  0.00  0.00    +0.000 C 
ATOM     16  C   UNL     1      -1.094  12.509  18.150  0.00  0.00    +0.000 C 
ATOM     17  C   UNL     1       0.266  12.547  18.851  0.00  0.00    +0.000 C 
ENDROOT
BRANCH  15  18
ATOM     18  N   UNL     1      -3.544  12.078  18.369  0.00  0.00    +0.000 N 
ATOM     19  C   UNL     1      -4.283  11.058  17.812  0.00  0.00    +0.000 C 
ATOM     20  O   UNL     1      -3.925   9.882  17.750  0.00  0.00    +0.000 OA
ATOM     21  H   UNL     1      -4.105  12.845  18.726  0.00  0.00    +0.000 HD
BRANCH  19  22
ATOM     22  C   UNL     1      -5.589  11.533  17.167  0.00  0.00    +0.000 C 
BRANCH  22  23
ATOM     23  O   UNL     1      -5.750  12.942  17.210  0.00  0.00    +0.000 OA
ATOM     24  H   UNL     1      -5.564  13.262  16.305  0.00  0.00    +0.000 HD
ENDBRANCH  22  23
ENDBRANCH  19  22
ENDBRANCH  15  18
BRANCH   1  26
ATOM     25  C   UNL     1       2.552   8.280  17.512  0.00  0.00    +0.000 C 
ATOM     26  O   UNL     1       2.457   8.173  18.933  0.00  0.00    +0.000 OA
ENDBRANCH   1  26
BRANCH   5  27
ATOM     27  O   UNL     1      -0.438   9.244  22.577  0.00  0.00    +0.000 OA
ATOM     28  C   UNL     1       0.313   9.426  23.769  0.00  0.00    +0.000 C 
ENDBRANCH   5  27
BRANCH   6  29
ATOM     29  O   UNL     1       1.303   7.451  21.163  0.00  0.00    +0.000 OA
ATOM     30  C   UNL     1       0.754   6.300  20.543  0.00  0.00    +0.000 C 
ENDBRANCH   6  29
BRANCH  10  31
ATOM     31  S   UNL     1      -3.238  14.740  24.706  0.00  0.00    +0.000 S 
ATOM     32  C   UNL     1      -1.871  15.451  25.639  0.00  0.00    +0.000 C 
ENDBRANCH  10  31
TORSDOF 7
ENDMDL
MODEL 6
REMARK VINA RESULT:      -5.3      8.690     11.341
REMARK  Name = 
REMARK  11 active torsions:
REMARK  status: ('A' for Active; 'I' for Inactive)
REMARK    1  A    between atoms: C_1  and  O_2
REMARK    2  A    between atoms: O_2  and  C_3
REMARK    3  A    between atoms: C_7  and  O_8
REMARK    4  A    between atoms: O_8  and  C_9
REMARK    5  A    between atoms: C_10  and  O_11
REMARK    6  A    between atoms: O_11  and  C_12
REMARK    7  A    between atoms: C_16  and  S_17
REMARK    8  A    between atoms: S_17  and  C_18
REMARK    9  A    between atoms: C_23  and  N_24
REMARK   10  A    between atoms: C_25  and  C_27
REMARK   11  A    between atoms: C_27  and  O_28
REMARK                            x       y       z     vdW  Elec       q    Type
REMARK                         _______ _______ _______ _____ _____    ______ ____
ROOT
ATOM      1  C   UNL     1      10.997  14.974  18.599  0.00  0.00    +0.000 A 
ATOM      2  C   UNL     1      10.135  15.951  19.087  0.00  0.00    +0.000 A 
ATOM      3  C   UNL     1       9.301  15.689  20.166  0.00  0.00    +0.000 A 
ATOM      4  C   UNL     1       9.267  14.398  20.752  0.00  0.00    +0.000 A 
ATOM      5  C   UNL     1      10.124  13.376  20.246  0.00  0.00    +0.000 A 
ATOM      6  C   UNL     1      11.000  13.676  19.165  0.00  0.00    +0.000 A 
ATOM      7  C   UNL     1       8.265  14.225  21.860  0.00  0.00    +0.000 A 
ATOM      8  C   UNL     1       8.823  13.962  23.053  0.00  0.00    +0.000 A 
ATOM      9  C   UNL     1       8.221  13.523  24.285  0.00  0.00    +0.000 A 
ATOM     10  C   UNL     1       6.957  13.560  24.731  0.00  0.00    +0.000 A 
ATOM     11  C   UNL     1       5.811  14.165  24.000  0.00  0.00    +0.000 A 
ATOM     12  O   UNL     1       4.734  14.421  24.544  0.00  0.00    +0.000 OA
ATOM     13  C   UNL     1       5.865  14.492  22.563  0.00  0.00    +0.000 A 
ATOM     14  C   UNL     1       6.830  14.498  21.622  0.00  0.00    +0.000 A 
ATOM     15  C   UNL     1       6.494  15.034  20.200  0.00  0.00    +0.000 C 
ATOM     16  C   UNL     1       6.949  16.513  20.081  0.00  0.00    +0.000 C 
ATOM     17  C   UNL     1       8.360  16.786  20.607  0.00  0.00    +0.000 C 
ENDROOT
BRANCH  15  18
ATOM     18  N   UNL     1       5.067  14.881  19.903  0.00  0.00    +0.000 N 
ATOM     19  C   UNL     1       4.572  14.743  18.625  0.00  0.00    +0.000 C 
ATOM     20  O   UNL     1       5.254  14.756  17.600  0.00  0.00    +0.000 OA
ATOM     21  H   UNL     1       4.496  14.437  20.615  0.00  0.00    +0.000 HD
BRANCH  19  22
ATOM     22  C   UNL     1       3.043  14.665  18.569  0.00  0.00    +0.000 C 
BRANCH  22  23
ATOM     23  O   UNL     1       2.432  14.805  19.841  0.00  0.00    +0.000 OA
ATOM     24  H   UNL     1       2.426  13.911  20.237  0.00  0.00    +0.000 HD
ENDBRANCH  22  23
ENDBRANCH  19  22
ENDBRANCH  15  18
BRANCH   1  26
ATOM     25  C   UNL     1      12.098  16.614  17.297  0.00  0.00    +0.000 C 
ATOM     26  O   UNL     1      11.840  15.231  17.539  0.00  0.00    +0.000 OA
ENDBRANCH   1  26
BRANCH   5  27
ATOM     27  O   UNL     1      10.264  12.136  20.817  0.00  0.00    +0.000 OA
ATOM     28  C   UNL     1       9.381  11.072  20.488  0.00  0.00    +0.000 C 
ENDBRANCH   5  27
BRANCH   6  29
ATOM     29  O   UNL     1      11.900  12.827  18.561  0.00  0.00    +0.000 OA
ATOM     30  C   UNL     1      11.462  11.854  17.626  0.00  0.00    +0.000 C 
ENDBRANCH   6  29
BRANCH  10  31
ATOM     31  S   UNL     1       6.651  12.675  26.224  0.00  0.00    +0.000 S 
ATOM     32  C   UNL     1       5.717  11.206  25.757  0.00  0.00    +0.000 C 
ENDBRANCH  10  31
TORSDOF 7
ENDMDL
MODEL 7
REMARK VINA RESULT:      -5.1      3.124      5.113
REMARK  Name = 
REMARK  11 active torsions:
REMARK  status: ('A' for Active; 'I' for Inactive)
REMARK    1  A    between atoms: C_1  and  O_2
REMARK    2  A    between atoms: O_2  and  C_3
REMARK    3  A    between atoms: C_7  and  O_8
REMARK    4  A    between atoms: O_8  and  C_9
REMARK    5  A    between atoms: C_10  and  O_11
REMARK    6  A    between atoms: O_11  and  C_12
REMARK    7  A    between atoms: C_16  and  S_17
REMARK    8  A    between atoms: S_17  and  C_18
REMARK    9  A    between atoms: C_23  and  N_24
REMARK   10  A    between atoms: C_25  and  C_27
REMARK   11  A    between atoms: C_27  and  O_28
REMARK                            x       y       z     vdW  Elec       q    Type
REMARK                         _______ _______ _______ _____ _____    ______ ____
ROOT
ATOM      1  C   UNL     1      -3.069  13.339  21.704  0.00  0.00    +0.000 A 
ATOM      2  C   UNL     1      -2.974  13.069  20.343  0.00  0.00    +0.000 A 
ATOM      3  C   UNL     1      -2.023  12.180  19.859  0.00  0.00    +0.000 A 
ATOM      4  C   UNL     1      -1.088  11.577  20.739  0.00  0.00    +0.000 A 
ATOM      5  C   UNL     1      -1.154  11.864  22.134  0.00  0.00    +0.000 A 
ATOM      6  C   UNL     1      -2.160  12.748  22.615  0.00  0.00    +0.000 A 
ATOM      7  C   UNL     1      -0.063  10.697  20.077  0.00  0.00    +0.000 A 
ATOM      8  C   UNL     1      -0.147   9.407  20.442  0.00  0.00    +0.000 A 
ATOM      9  C   UNL     1       0.763   8.315  20.215  0.00  0.00    +0.000 A 
ATOM     10  C   UNL     1       1.758   8.143  19.332  0.00  0.00    +0.000 A 
ATOM     11  C   UNL     1       2.133   9.113  18.268  0.00  0.00    +0.000 A 
ATOM     12  O   UNL     1       2.860   8.812  17.318  0.00  0.00    +0.000 OA
ATOM     13  C   UNL     1       1.679  10.517  18.273  0.00  0.00    +0.000 A 
ATOM     14  C   UNL     1       0.813  11.236  19.013  0.00  0.00    +0.000 A 
ATOM     15  C   UNL     1       0.522  12.711  18.613  0.00  0.00    +0.000 C 
ATOM     16  C   UNL     1      -0.785  12.776  17.778  0.00  0.00    +0.000 C 
ATOM     17  C   UNL     1      -1.951  11.975  18.364  0.00  0.00    +0.000 C 
ENDROOT
BRANCH  15  18
ATOM     18  N   UNL     1       1.655  13.294  17.889  0.00  0.00    +0.000 N 
ATOM     19  C   UNL     1       2.445  14.298  18.404  0.00  0.00    +0.000 C 
ATOM     20  O   UNL     1       2.280  14.831  19.502  0.00  0.00    +0.000 OA
ATOM     21  H   UNL     1       2.136  12.690  17.229  0.00  0.00    +0.000 HD
BRANCH  19  22
ATOM     22  C   UNL     1       3.525  14.784  17.432  0.00  0.00    +0.000 C 
BRANCH  22  23
ATOM     23  O   UNL     1       4.796  14.204  17.680  0.00  0.00    +0.000 OA
ATOM     24  H   UNL     1       4.683  13.241  17.548  0.00  0.00    +0.000 HD
ENDBRANCH  22  23
ENDBRANCH  19  22
ENDBRANCH  15  18
BRANCH   1  26
ATOM     25  C   UNL     1      -5.364  13.730  22.125  0.00  0.00    +0.000 C 
ATOM     26  O   UNL     1      -4.020  14.208  22.194  0.00  0.00    +0.000 OA
ENDBRANCH   1  26
BRANCH   5  27
ATOM     27  O   UNL     1      -0.385  11.242  23.085  0.00  0.00    +0.000 OA
ATOM     28  C   UNL     1      -0.650   9.903  23.484  0.00  0.00    +0.000 C 
ENDBRANCH   5  27
BRANCH   6  29
ATOM     29  O   UNL     1      -2.383  13.127  23.920  0.00  0.00    +0.000 OA
ATOM     30  C   UNL     1      -1.792  14.307  24.442  0.00  0.00    +0.000 C 
ENDBRANCH   6  29
BRANCH  10  31
ATOM     31  S   UNL     1       2.767   6.721  19.591  0.00  0.00    +0.000 S 
ATOM     32  C   UNL     1       1.784   5.577  20.576  0.00  0.00    +0.000 C 
ENDBRANCH  10  31
TORSDOF 7
ENDMDL
MODEL 8
REMARK VINA RESULT:      -5.1      8.267     11.079
REMARK  Name = 
REMARK  11 active torsions:
REMARK  status: ('A' for Active; 'I' for Inactive)
REMARK    1  A    between atoms: C_1  and  O_2
REMARK    2  A    between atoms: O_2  and  C_3
REMARK    3  A    between atoms: C_7  and  O_8
REMARK    4  A    between atoms: O_8  and  C_9
REMARK    5  A    between atoms: C_10  and  O_11
REMARK    6  A    between atoms: O_11  and  C_12
REMARK    7  A    between atoms: C_16  and  S_17
REMARK    8  A    between atoms: S_17  and  C_18
REMARK    9  A    between atoms: C_23  and  N_24
REMARK   10  A    between atoms: C_25  and  C_27
REMARK   11  A    between atoms: C_27  and  O_28
REMARK                            x       y       z     vdW  Elec       q    Type
REMARK                         _______ _______ _______ _____ _____    ______ ____
ROOT
ATOM      1  C   UNL     1      10.298  14.965  17.951  0.00  0.00    +0.000 A 
ATOM      2  C   UNL     1       9.738  16.064  18.594  0.00  0.00    +0.000 A 
ATOM      3  C   UNL     1       8.907  15.897  19.694  0.00  0.00    +0.000 A 
ATOM      4  C   UNL     1       8.564  14.597  20.146  0.00  0.00    +0.000 A 
ATOM      5  C   UNL     1       9.107  13.458  19.481  0.00  0.00    +0.000 A 
ATOM      6  C   UNL     1       9.988  13.651  18.379  0.00  0.00    +0.000 A 
ATOM      7  C   UNL     1       7.595  14.555  21.295  0.00  0.00    +0.000 A 
ATOM      8  C   UNL     1       8.112  14.022  22.415  0.00  0.00    +0.000 A 
ATOM      9  C   UNL     1       7.466  13.609  23.633  0.00  0.00    +0.000 A 
ATOM     10  C   UNL     1       6.273  13.912  24.165  0.00  0.00    +0.000 A 
ATOM     11  C   UNL     1       5.294  14.867  23.578  0.00  0.00    +0.000 A 
ATOM     12  O   UNL     1       4.342  15.322  24.218  0.00  0.00    +0.000 OA
ATOM     13  C   UNL     1       5.375  15.335  22.182  0.00  0.00    +0.000 A 
ATOM     14  C   UNL     1       6.271  15.207  21.183  0.00  0.00    +0.000 A 
ATOM     15  C   UNL     1       6.030  15.972  19.851  0.00  0.00    +0.000 C 
ATOM     16  C   UNL     1       6.847  17.292  19.853  0.00  0.00    +0.000 C 
ATOM     17  C   UNL     1       8.300  17.137  20.308  0.00  0.00    +0.000 C 
ENDROOT
BRANCH  15  18
ATOM     18  N   UNL     1       4.601  16.221  19.637  0.00  0.00    +0.000 N 
ATOM     19  C   UNL     1       3.929  15.830  18.500  0.00  0.00    +0.000 C 
ATOM     20  O   UNL     1       4.443  15.259  17.538  0.00  0.00    +0.000 OA
ATOM     21  H   UNL     1       4.016  16.269  20.465  0.00  0.00    +0.000 HD
BRANCH  19  22
ATOM     22  C   UNL     1       2.458  16.260  18.484  0.00  0.00    +0.000 C 
BRANCH  22  23
ATOM     23  O   UNL     1       2.284  17.629  18.155  0.00  0.00    +0.000 OA
ATOM     24  H   UNL     1       2.540  17.715  17.215  0.00  0.00    +0.000 HD
ENDBRANCH  22  23
ENDBRANCH  19  22
ENDBRANCH  15  18
BRANCH   1  26
ATOM     25  C   UNL     1      12.322  15.874  17.130  0.00  0.00    +0.000 C 
ATOM     26  O   UNL     1      11.137  15.123  16.868  0.00  0.00    +0.000 OA
ENDBRANCH   1  26
BRANCH   5  27
ATOM     27  O   UNL     1       8.944  12.166  19.911  0.00  0.00    +0.000 OA
ATOM     28  C   UNL     1       9.861  11.572  20.820  0.00  0.00    +0.000 C 
ENDBRANCH   5  27
BRANCH   6  29
ATOM     29  O   UNL     1      10.614  12.679  17.632  0.00  0.00    +0.000 OA
ATOM     30  C   UNL     1      11.877  12.166  18.024  0.00  0.00    +0.000 C 
ENDBRANCH   6  29
BRANCH  10  31
ATOM     31  S   UNL     1       5.807  12.965  25.576  0.00  0.00    +0.000 S 
ATOM     32  C   UNL     1       5.904  11.236  25.078  0.00  0.00    +0.000 C 
ENDBRANCH  10  31
TORSDOF 7
ENDMDL
MODEL 9
REMARK VINA RESULT:      -5.1      2.801      6.154
REMARK  Name = 
REMARK  11 active torsions:
REMARK  status: ('A' for Active; 'I' for Inactive)
REMARK    1  A    between atoms: C_1  and  O_2
REMARK    2  A    between atoms: O_2  and  C_3
REMARK    3  A    between atoms: C_7  and  O_8
REMARK    4  A    between atoms: O_8  and  C_9
REMARK    5  A    between atoms: C_10  and  O_11
REMARK    6  A    between atoms: O_11  and  C_12
REMARK    7  A    between atoms: C_16  and  S_17
REMARK    8  A    between atoms: S_17  and  C_18
REMARK    9  A    between atoms: C_23  and  N_24
REMARK   10  A    between atoms: C_25  and  C_27
REMARK   11  A    between atoms: C_27  and  O_28
REMARK                            x       y       z     vdW  Elec       q    Type
REMARK                         _______ _______ _______ _____ _____    ______ ____
ROOT
ATOM      1  C   UNL     1       0.039  11.154  21.684  0.00  0.00    +0.000 A 
ATOM      2  C   UNL     1      -0.930  11.360  22.660  0.00  0.00    +0.000 A 
ATOM      3  C   UNL     1      -2.129  11.989  22.350  0.00  0.00    +0.000 A 
ATOM      4  C   UNL     1      -2.363  12.489  21.044  0.00  0.00    +0.000 A 
ATOM      5  C   UNL     1      -1.368  12.311  20.038  0.00  0.00    +0.000 A 
ATOM      6  C   UNL     1      -0.162  11.630  20.365  0.00  0.00    +0.000 A 
ATOM      7  C   UNL     1      -3.666  13.217  20.862  0.00  0.00    +0.000 A 
ATOM      8  C   UNL     1      -4.501  12.615  19.999  0.00  0.00    +0.000 A 
ATOM      9  C   UNL     1      -5.719  13.092  19.397  0.00  0.00    +0.000 A 
ATOM     10  C   UNL     1      -6.558  14.084  19.730  0.00  0.00    +0.000 A 
ATOM     11  C   UNL     1      -6.423  14.949  20.934  0.00  0.00    +0.000 A 
ATOM     12  O   UNL     1      -7.342  15.658  21.350  0.00  0.00    +0.000 OA
ATOM     13  C   UNL     1      -5.175  15.039  21.715  0.00  0.00    +0.000 A 
ATOM     14  C   UNL     1      -3.996  14.386  21.707  0.00  0.00    +0.000 A 
ATOM     15  C   UNL     1      -2.944  14.716  22.805  0.00  0.00    +0.000 C 
ATOM     16  C   UNL     1      -3.040  13.672  23.949  0.00  0.00    +0.000 C 
ATOM     17  C   UNL     1      -3.112  12.218  23.475  0.00  0.00    +0.000 C 
ENDROOT
BRANCH  15  18
ATOM     18  N   UNL     1      -3.115  16.083  23.305  0.00  0.00    +0.000 N 
ATOM     19  C   UNL     1      -2.062  16.888  23.679  0.00  0.00    +0.000 C 
ATOM     20  O   UNL     1      -0.878  16.552  23.661  0.00  0.00    +0.000 OA
ATOM     21  H   UNL     1      -3.925  16.595  22.969  0.00  0.00    +0.000 HD
BRANCH  19  22
ATOM     22  C   UNL     1      -2.501  18.250  24.228  0.00  0.00    +0.000 C 
BRANCH  22  23
ATOM     23  O   UNL     1      -3.427  18.145  25.296  0.00  0.00    +0.000 OA
ATOM     24  H   UNL     1      -3.680  17.201  25.343  0.00  0.00    +0.000 HD
ENDBRANCH  22  23
ENDBRANCH  19  22
ENDBRANCH  15  18
BRANCH   1  26
ATOM     25  C   UNL     1       1.104   9.124  22.268  0.00  0.00    +0.000 C 
ATOM     26  O   UNL     1       1.225  10.516  21.979  0.00  0.00    +0.000 OA
ENDBRANCH   1  26
BRANCH   5  27
ATOM     27  O   UNL     1      -1.541  12.641  18.717  0.00  0.00    +0.000 OA
ATOM     28  C   UNL     1      -1.927  11.663  17.760  0.00  0.00    +0.000 C 
ENDBRANCH   5  27
BRANCH   6  29
ATOM     29  O   UNL     1       0.896  11.355  19.527  0.00  0.00    +0.000 OA
ATOM     30  C   UNL     1       1.770  12.389  19.102  0.00  0.00    +0.000 C 
ENDBRANCH   6  29
BRANCH  10  31
ATOM     31  S   UNL     1      -7.806  14.455  18.543  0.00  0.00    +0.000 S 
ATOM     32  C   UNL     1      -7.124  15.740  17.479  0.00  0.00    +0.000 C 
ENDBRANCH  10  31
TORSDOF 7
ENDMDL
