MODEL 1
REMARK VINA RESULT:      -7.8      0.000      0.000
REMARK  Name = 
REMARK  9 active torsions:
REMARK  status: ('A' for Active; 'I' for Inactive)
REMARK    1  A    between atoms: C_2  and  C_3
REMARK    2  A    between atoms: C_2  and  O_13
REMARK    3  A    between atoms: C_3  and  C_4
REMARK    4  A    between atoms: O_13  and  C_14
REMARK    5  A    between atoms: C_14  and  C_15
REMARK    6  A    between atoms: C_15  and  O_16
REMARK    7  A    between atoms: O_16  and  C_17
REMARK    8  A    between atoms: C_17  and  C_19
REMARK    9  A    between atoms: C_19  and  C_20
REMARK                            x       y       z     vdW  Elec       q    Type
REMARK                         _______ _______ _______ _____ _____    ______ ____
ROOT
ATOM      1  C   UNL     1       8.079   9.457  17.874  0.00  0.00    +0.000 C 
ENDROOT
BRANCH   1   2
ATOM      2  O   UNL     1       9.000   9.947  18.867  0.00  0.00    +0.000 OA
BRANCH   2   4
ATOM      3  O   UNL     1      10.539  11.062  17.586  0.00  0.00    +0.000 OA
ATOM      4  C   UNL     1       9.734  11.041  18.508  0.00  0.00    +0.000 C 
BRANCH   4   5
ATOM      5  C   UNL     1       9.434  12.195  19.439  0.00  0.00    +0.000 C 
BRANCH   5   6
ATOM      6  C   UNL     1       9.219  13.489  18.713  0.00  0.00    +0.000 A 
ATOM      7  C   UNL     1       8.018  13.965  18.223  0.00  0.00    +0.000 A 
ATOM      8  N   UNL     1       8.249  15.158  17.595  0.00  0.00    +0.000 N 
ATOM      9  C   UNL     1       9.587  15.468  17.638  0.00  0.00    +0.000 A 
ATOM     10  C   UNL     1      10.277  16.568  17.113  0.00  0.00    +0.000 A 
ATOM     11  C   UNL     1      11.660  16.619  17.307  0.00  0.00    +0.000 A 
ATOM     12  C   UNL     1      12.319  15.620  18.015  0.00  0.00    +0.000 A 
ATOM     13  C   UNL     1      11.606  14.538  18.548  0.00  0.00    +0.000 A 
ATOM     14  C   UNL     1      10.218  14.446  18.346  0.00  0.00    +0.000 A 
ATOM     15  H   UNL     1       7.545  15.728  17.149  0.00  0.00    +0.000 HD
ENDBRANCH   5   6
ENDBRANCH   4   5
ENDBRANCH   2   4
ENDBRANCH   1   2
BRANCH   1  16
ATOM     16  C   UNL     1       8.031   7.928  17.875  0.00  0.00    +0.000 C 
BRANCH  16  17
ATOM     17  O   UNL     1       6.682   7.449  17.696  0.00  0.00    +0.000 OA
BRANCH  17  18
ATOM     18  C   UNL     1       6.520   6.477  16.753  0.00  0.00    +0.000 C 
ATOM     19  O   UNL     1       7.409   6.069  16.016  0.00  0.00    +0.000 OA
BRANCH  18  20
ATOM     20  C   UNL     1       5.094   5.969  16.740  0.00  0.00    +0.000 C 
BRANCH  20  21
ATOM     21  C   UNL     1       4.888   4.857  17.716  0.00  0.00    +0.000 A 
ATOM     22  C   UNL     1       5.861   4.232  18.474  0.00  0.00    +0.000 A 
ATOM     23  N   UNL     1       5.255   3.304  19.278  0.00  0.00    +0.000 N 
ATOM     24  C   UNL     1       3.898   3.296  19.059  0.00  0.00    +0.000 A 
ATOM     25  C   UNL     1       2.883   2.539  19.660  0.00  0.00    +0.000 A 
ATOM     26  C   UNL     1       1.570   2.746  19.224  0.00  0.00    +0.000 A 
ATOM     27  C   UNL     1       1.291   3.648  18.202  0.00  0.00    +0.000 A 
ATOM     28  C   UNL     1       2.325   4.372  17.599  0.00  0.00    +0.000 A 
ATOM     29  C   UNL     1       3.648   4.228  18.053  0.00  0.00    +0.000 A 
ATOM     30  H   UNL     1       5.729   2.709  19.943  0.00  0.00    +0.000 HD
ENDBRANCH  20  21
ENDBRANCH  18  20
ENDBRANCH  17  18
ENDBRANCH  16  17
ENDBRANCH   1  16
TORSDOF 9
ENDMDL
MODEL 2
REMARK VINA RESULT:      -7.7      6.652     10.832
REMARK  Name = 
REMARK  9 active torsions:
REMARK  status: ('A' for Active; 'I' for Inactive)
REMARK    1  A    between atoms: C_2  and  C_3
REMARK    2  A    between atoms: C_2  and  O_13
REMARK    3  A    between atoms: C_3  and  C_4
REMARK    4  A    between atoms: O_13  and  C_14
REMARK    5  A    between atoms: C_14  and  C_15
REMARK    6  A    between atoms: C_15  and  O_16
REMARK    7  A    between atoms: O_16  and  C_17
REMARK    8  A    between atoms: C_17  and  C_19
REMARK    9  A    between atoms: C_19  and  C_20
REMARK                            x       y       z     vdW  Elec       q    Type
REMARK                         _______ _______ _______ _____ _____    ______ ____
ROOT
ATOM      1  C   UNL     1       2.336   7.779  18.150  0.00  0.00    +0.000 C 
ENDROOT
BRANCH   1   2
ATOM      2  O   UNL     1       3.544   7.889  17.373  0.00  0.00    +0.000 OA
BRANCH   2   4
ATOM      3  O   UNL     1       5.613   6.955  17.683  0.00  0.00    +0.000 OA
ATOM      4  C   UNL     1       4.413   6.841  17.473  0.00  0.00    +0.000 C 
BRANCH   4   5
ATOM      5  C   UNL     1       3.681   5.536  17.247  0.00  0.00    +0.000 C 
BRANCH   5   6
ATOM      6  C   UNL     1       3.934   4.530  18.329  0.00  0.00    +0.000 A 
ATOM      7  C   UNL     1       5.098   3.812  18.526  0.00  0.00    +0.000 A 
ATOM      8  N   UNL     1       4.916   2.975  19.593  0.00  0.00    +0.000 N 
ATOM      9  C   UNL     1       3.642   3.108  20.089  0.00  0.00    +0.000 A 
ATOM     10  C   UNL     1       3.011   2.444  21.150  0.00  0.00    +0.000 A 
ATOM     11  C   UNL     1       1.685   2.783  21.432  0.00  0.00    +0.000 A 
ATOM     12  C   UNL     1       1.026   3.761  20.694  0.00  0.00    +0.000 A 
ATOM     13  C   UNL     1       1.681   4.425  19.649  0.00  0.00    +0.000 A 
ATOM     14  C   UNL     1       3.007   4.087  19.325  0.00  0.00    +0.000 A 
ATOM     15  H   UNL     1       5.608   2.338  19.958  0.00  0.00    +0.000 HD
ENDBRANCH   5   6
ENDBRANCH   4   5
ENDBRANCH   2   4
ENDBRANCH   1   2
BRANCH   1  16
ATOM     16  C   UNL     1       1.535   9.081  18.110  0.00  0.00    +0.000 C 
BRANCH  16  17
ATOM     17  O   UNL     1       1.480   9.700  19.412  0.00  0.00    +0.000 OA
BRANCH  17  18
ATOM     18  C   UNL     1       0.243  10.096  19.827  0.00  0.00    +0.000 C 
ATOM     19  O   UNL     1      -0.518   9.409  20.497  0.00  0.00    +0.000 OA
BRANCH  18  20
ATOM     20  C   UNL     1      -0.065  11.498  19.348  0.00  0.00    +0.000 C 
BRANCH  20  21
ATOM     21  C   UNL     1      -1.513  11.674  19.026  0.00  0.00    +0.000 A 
ATOM     22  C   UNL     1      -2.442  12.388  19.760  0.00  0.00    +0.000 A 
ATOM     23  N   UNL     1      -3.641  12.347  19.100  0.00  0.00    +0.000 N 
ATOM     24  C   UNL     1      -3.525  11.608  17.947  0.00  0.00    +0.000 A 
ATOM     25  C   UNL     1      -4.471  11.315  16.955  0.00  0.00    +0.000 A 
ATOM     26  C   UNL     1      -4.062  10.521  15.878  0.00  0.00    +0.000 A 
ATOM     27  C   UNL     1      -2.769  10.013  15.817  0.00  0.00    +0.000 A 
ATOM     28  C   UNL     1      -1.851  10.297  16.833  0.00  0.00    +0.000 A 
ATOM     29  C   UNL     1      -2.214  11.137  17.900  0.00  0.00    +0.000 A 
ATOM     30  H   UNL     1      -4.492  12.796  19.408  0.00  0.00    +0.000 HD
ENDBRANCH  20  21
ENDBRANCH  18  20
ENDBRANCH  17  18
ENDBRANCH  16  17
ENDBRANCH   1  16
TORSDOF 9
ENDMDL
MODEL 3
REMARK VINA RESULT:      -7.7      1.833     10.871
REMARK  Name = 
REMARK  9 active torsions:
REMARK  status: ('A' for Active; 'I' for Inactive)
REMARK    1  A    between atoms: C_2  and  C_3
REMARK    2  A    between atoms: C_2  and  O_13
REMARK    3  A    between atoms: C_3  and  C_4
REMARK    4  A    between atoms: O_13  and  C_14
REMARK    5  A    between atoms: C_14  and  C_15
REMARK    6  A    between atoms: C_15  and  O_16
REMARK    7  A    between atoms: O_16  and  C_17
REMARK    8  A    between atoms: C_17  and  C_19
REMARK    9  A    between atoms: C_19  and  C_20
REMARK                            x       y       z     vdW  Elec       q    Type
REMARK                         _______ _______ _______ _____ _____    ______ ____
ROOT
ATOM      1  C   UNL     1       8.011   5.970  19.242  0.00  0.00    +0.000 C 
ENDROOT
BRANCH   1   2
ATOM      2  O   UNL     1       6.889   5.117  18.946  0.00  0.00    +0.000 OA
BRANCH   2   4
ATOM      3  O   UNL     1       7.431   4.405  16.837  0.00  0.00    +0.000 OA
ATOM      4  C   UNL     1       6.636   4.904  17.622  0.00  0.00    +0.000 C 
BRANCH   4   5
ATOM      5  C   UNL     1       5.254   5.411  17.270  0.00  0.00    +0.000 C 
BRANCH   5   6
ATOM      6  C   UNL     1       4.169   4.439  17.625  0.00  0.00    +0.000 A 
ATOM      7  C   UNL     1       3.863   3.270  16.956  0.00  0.00    +0.000 A 
ATOM      8  N   UNL     1       2.788   2.688  17.569  0.00  0.00    +0.000 N 
ATOM      9  C   UNL     1       2.360   3.466  18.618  0.00  0.00    +0.000 A 
ATOM     10  C   UNL     1       1.292   3.279  19.506  0.00  0.00    +0.000 A 
ATOM     11  C   UNL     1       1.086   4.251  20.488  0.00  0.00    +0.000 A 
ATOM     12  C   UNL     1       1.927   5.355  20.587  0.00  0.00    +0.000 A 
ATOM     13  C   UNL     1       3.000   5.513  19.701  0.00  0.00    +0.000 A 
ATOM     14  C   UNL     1       3.217   4.564  18.686  0.00  0.00    +0.000 A 
ATOM     15  H   UNL     1       2.356   1.820  17.288  0.00  0.00    +0.000 HD
ENDBRANCH   5   6
ENDBRANCH   4   5
ENDBRANCH   2   4
ENDBRANCH   1   2
BRANCH   1  16
ATOM     16  C   UNL     1       7.983   7.234  18.381  0.00  0.00    +0.000 C 
BRANCH  16  17
ATOM     17  O   UNL     1       8.899   8.229  18.886  0.00  0.00    +0.000 OA
BRANCH  17  18
ATOM     18  C   UNL     1       8.614   9.519  18.549  0.00  0.00    +0.000 C 
ATOM     19  O   UNL     1       7.866   9.850  17.637  0.00  0.00    +0.000 OA
BRANCH  18  20
ATOM     20  C   UNL     1       9.345  10.488  19.453  0.00  0.00    +0.000 C 
BRANCH  20  21
ATOM     21  C   UNL     1      10.265  11.382  18.686  0.00  0.00    +0.000 A 
ATOM     22  C   UNL     1      11.479  11.032  18.126  0.00  0.00    +0.000 A 
ATOM     23  N   UNL     1      11.983  12.122  17.466  0.00  0.00    +0.000 N 
ATOM     24  C   UNL     1      11.128  13.191  17.590  0.00  0.00    +0.000 A 
ATOM     25  C   UNL     1      11.213  14.490  17.070  0.00  0.00    +0.000 A 
ATOM     26  C   UNL     1      10.177  15.381  17.369  0.00  0.00    +0.000 A 
ATOM     27  C   UNL     1       9.118  14.997  18.185  0.00  0.00    +0.000 A 
ATOM     28  C   UNL     1       9.069  13.703  18.714  0.00  0.00    +0.000 A 
ATOM     29  C   UNL     1      10.065  12.767  18.387  0.00  0.00    +0.000 A 
ATOM     30  H   UNL     1      12.855  12.144  16.957  0.00  0.00    +0.000 HD
ENDBRANCH  20  21
ENDBRANCH  18  20
ENDBRANCH  17  18
ENDBRANCH  16  17
ENDBRANCH   1  16
TORSDOF 9
ENDMDL
MODEL 4
REMARK VINA RESULT:      -7.7      6.828      9.843
REMARK  Name = 
REMARK  9 active torsions:
REMARK  status: ('A' for Active; 'I' for Inactive)
REMARK    1  A    between atoms: C_2  and  C_3
REMARK    2  A    between atoms: C_2  and  O_13
REMARK    3  A    between atoms: C_3  and  C_4
REMARK    4  A    between atoms: O_13  and  C_14
REMARK    5  A    between atoms: C_14  and  C_15
REMARK    6  A    between atoms: C_15  and  O_16
REMARK    7  A    between atoms: O_16  and  C_17
REMARK    8  A    between atoms: C_17  and  C_19
REMARK    9  A    between atoms: C_19  and  C_20
REMARK                            x       y       z     vdW  Elec       q    Type
REMARK                         _______ _______ _______ _____ _____    ______ ____
ROOT
ATOM      1  C   UNL     1       2.559   6.688  17.806  0.00  0.00    +0.000 C 
ENDROOT
BRANCH   1   2
ATOM      2  O   UNL     1       3.924   6.285  17.581  0.00  0.00    +0.000 OA
BRANCH   2   4
ATOM      3  O   UNL     1       4.315   4.546  19.021  0.00  0.00    +0.000 OA
ATOM      4  C   UNL     1       4.218   4.987  17.883  0.00  0.00    +0.000 C 
BRANCH   4   5
ATOM      5  C   UNL     1       4.443   4.196  16.613  0.00  0.00    +0.000 C 
BRANCH   5   6
ATOM      6  C   UNL     1       5.655   4.646  15.853  0.00  0.00    +0.000 A 
ATOM      7  C   UNL     1       6.654   5.478  16.319  0.00  0.00    +0.000 A 
ATOM      8  N   UNL     1       7.559   5.677  15.312  0.00  0.00    +0.000 N 
ATOM      9  C   UNL     1       7.162   5.010  14.178  0.00  0.00    +0.000 A 
ATOM     10  C   UNL     1       7.758   4.945  12.912  0.00  0.00    +0.000 A 
ATOM     11  C   UNL     1       7.119   4.183  11.931  0.00  0.00    +0.000 A 
ATOM     12  C   UNL     1       5.941   3.499  12.214  0.00  0.00    +0.000 A 
ATOM     13  C   UNL     1       5.371   3.564  13.491  0.00  0.00    +0.000 A 
ATOM     14  C   UNL     1       5.978   4.343  14.491  0.00  0.00    +0.000 A 
ATOM     15  H   UNL     1       8.392   6.242  15.380  0.00  0.00    +0.000 HD
ENDBRANCH   5   6
ENDBRANCH   4   5
ENDBRANCH   2   4
ENDBRANCH   1   2
BRANCH   1  16
ATOM     16  C   UNL     1       2.493   8.083  18.429  0.00  0.00    +0.000 C 
BRANCH  16  17
ATOM     17  O   UNL     1       1.435   8.867  17.840  0.00  0.00    +0.000 OA
BRANCH  17  18
ATOM     18  C   UNL     1       1.179  10.063  18.445  0.00  0.00    +0.000 C 
ATOM     19  O   UNL     1       1.748  11.113  18.176  0.00  0.00    +0.000 OA
BRANCH  18  20
ATOM     20  C   UNL     1       0.096   9.918  19.492  0.00  0.00    +0.000 C 
BRANCH  20  21
ATOM     21  C   UNL     1      -1.123  10.711  19.149  0.00  0.00    +0.000 A 
ATOM     22  C   UNL     1      -1.656  11.762  19.873  0.00  0.00    +0.000 A 
ATOM     23  N   UNL     1      -2.741  12.250  19.195  0.00  0.00    +0.000 N 
ATOM     24  C   UNL     1      -2.942  11.534  18.039  0.00  0.00    +0.000 A 
ATOM     25  C   UNL     1      -3.904  11.685  17.030  0.00  0.00    +0.000 A 
ATOM     26  C   UNL     1      -3.867  10.791  15.955  0.00  0.00    +0.000 A 
ATOM     27  C   UNL     1      -2.927   9.767  15.910  0.00  0.00    +0.000 A 
ATOM     28  C   UNL     1      -1.994   9.620  16.942  0.00  0.00    +0.000 A 
ATOM     29  C   UNL     1      -1.970  10.536  18.009  0.00  0.00    +0.000 A 
ATOM     30  H   UNL     1      -3.313  13.027  19.492  0.00  0.00    +0.000 HD
ENDBRANCH  20  21
ENDBRANCH  18  20
ENDBRANCH  17  18
ENDBRANCH  16  17
ENDBRANCH   1  16
TORSDOF 9
ENDMDL
MODEL 5
REMARK VINA RESULT:      -7.6      5.623      8.259
REMARK  Name = 
REMARK  9 active torsions:
REMARK  status: ('A' for Active; 'I' for Inactive)
REMARK    1  A    between atoms: C_2  and  C_3
REMARK    2  A    between atoms: C_2  and  O_13
REMARK    3  A    between atoms: C_3  and  C_4
REMARK    4  A    between atoms: O_13  and  C_14
REMARK    5  A    between atoms: C_14  and  C_15
REMARK    6  A    between atoms: C_15  and  O_16
REMARK    7  A    between atoms: O_16  and  C_17
REMARK    8  A    between atoms: C_17  and  C_19
REMARK    9  A    between atoms: C_19  and  C_20
REMARK                            x       y       z     vdW  Elec       q    Type
REMARK                         _______ _______ _______ _____ _____    ______ ____
ROOT
ATOM      1  C   UNL     1       1.581   4.561  19.543  0.00  0.00    +0.000 C 
ENDROOT
BRANCH   1   2
ATOM      2  O   UNL     1       1.875   5.681  18.686  0.00  0.00    +0.000 OA
BRANCH   2   4
ATOM      3  O   UNL     1       3.885   5.962  19.750  0.00  0.00    +0.000 OA
ATOM      4  C   UNL     1       3.040   6.342  18.950  0.00  0.00    +0.000 C 
BRANCH   4   5
ATOM      5  C   UNL     1       3.107   7.619  18.142  0.00  0.00    +0.000 C 
BRANCH   5   6
ATOM      6  C   UNL     1       1.980   8.560  18.444  0.00  0.00    +0.000 A 
ATOM      7  C   UNL     1       1.313   9.360  17.536  0.00  0.00    +0.000 A 
ATOM      8  N   UNL     1       0.378  10.096  18.212  0.00  0.00    +0.000 N 
ATOM      9  C   UNL     1       0.433   9.816  19.556  0.00  0.00    +0.000 A 
ATOM     10  C   UNL     1      -0.313  10.341  20.620  0.00  0.00    +0.000 A 
ATOM     11  C   UNL     1      -0.035   9.866  21.904  0.00  0.00    +0.000 A 
ATOM     12  C   UNL     1       0.937   8.892  22.110  0.00  0.00    +0.000 A 
ATOM     13  C   UNL     1       1.658   8.368  21.030  0.00  0.00    +0.000 A 
ATOM     14  C   UNL     1       1.418   8.844  19.729  0.00  0.00    +0.000 A 
ATOM     15  H   UNL     1      -0.253  10.763  17.792  0.00  0.00    +0.000 HD
ENDBRANCH   5   6
ENDBRANCH   4   5
ENDBRANCH   2   4
ENDBRANCH   1   2
BRANCH   1  16
ATOM     16  C   UNL     1       1.814   3.236  18.816  0.00  0.00    +0.000 C 
BRANCH  16  17
ATOM     17  O   UNL     1       2.730   3.400  17.714  0.00  0.00    +0.000 OA
BRANCH  17  18
ATOM     18  C   UNL     1       4.035   3.104  17.981  0.00  0.00    +0.000 C 
ATOM     19  O   UNL     1       4.460   2.767  19.079  0.00  0.00    +0.000 OA
BRANCH  18  20
ATOM     20  C   UNL     1       4.887   3.247  16.738  0.00  0.00    +0.000 C 
BRANCH  20  21
ATOM     21  C   UNL     1       5.409   4.637  16.575  0.00  0.00    +0.000 A 
ATOM     22  C   UNL     1       5.025   5.557  15.618  0.00  0.00    +0.000 A 
ATOM     23  N   UNL     1       5.701   6.726  15.843  0.00  0.00    +0.000 N 
ATOM     24  C   UNL     1       6.535   6.593  16.927  0.00  0.00    +0.000 A 
ATOM     25  C   UNL     1       7.392   7.521  17.536  0.00  0.00    +0.000 A 
ATOM     26  C   UNL     1       8.134   7.094  18.643  0.00  0.00    +0.000 A 
ATOM     27  C   UNL     1       8.048   5.783  19.097  0.00  0.00    +0.000 A 
ATOM     28  C   UNL     1       7.205   4.869  18.457  0.00  0.00    +0.000 A 
ATOM     29  C   UNL     1       6.404   5.280  17.377  0.00  0.00    +0.000 A 
ATOM     30  H   UNL     1       5.604   7.571  15.297  0.00  0.00    +0.000 HD
ENDBRANCH  20  21
ENDBRANCH  18  20
ENDBRANCH  17  18
ENDBRANCH  16  17
ENDBRANCH   1  16
TORSDOF 9
ENDMDL
MODEL 6
REMARK VINA RESULT:      -7.6      6.639      8.504
REMARK  Name = 
REMARK  9 active torsions:
REMARK  status: ('A' for Active; 'I' for Inactive)
REMARK    1  A    between atoms: C_2  and  C_3
REMARK    2  A    between atoms: C_2  and  O_13
REMARK    3  A    between atoms: C_3  and  C_4
REMARK    4  A    between atoms: O_13  and  C_14
REMARK    5  A    between atoms: C_14  and  C_15
REMARK    6  A    between atoms: C_15  and  O_16
REMARK    7  A    between atoms: O_16  and  C_17
REMARK    8  A    between atoms: C_17  and  C_19
REMARK    9  A    between atoms: C_19  and  C_20
REMARK                            x       y       z     vdW  Elec       q    Type
REMARK                         _______ _______ _______ _____ _____    ______ ____
ROOT
ATOM      1  C   UNL     1       2.228   6.341  20.371  0.00  0.00    +0.000 C 
ENDROOT
BRANCH   1   2
ATOM      2  O   UNL     1       1.598   7.253  19.450  0.00  0.00    +0.000 OA
BRANCH   2   4
ATOM      3  O   UNL     1       3.528   7.321  18.217  0.00  0.00    +0.000 OA
ATOM      4  C   UNL     1       2.374   7.679  18.411  0.00  0.00    +0.000 C 
BRANCH   4   5
ATOM      5  C   UNL     1       1.610   8.678  17.569  0.00  0.00    +0.000 C 
BRANCH   5   6
ATOM      6  C   UNL     1       0.906   9.715  18.392  0.00  0.00    +0.000 A 
ATOM      7  C   UNL     1       1.417  10.378  19.491  0.00  0.00    +0.000 A 
ATOM      8  N   UNL     1       0.451  11.214  19.981  0.00  0.00    +0.000 N 
ATOM      9  C   UNL     1      -0.700  11.097  19.240  0.00  0.00    +0.000 A 
ATOM     10  C   UNL     1      -1.938  11.736  19.387  0.00  0.00    +0.000 A 
ATOM     11  C   UNL     1      -2.948  11.413  18.476  0.00  0.00    +0.000 A 
ATOM     12  C   UNL     1      -2.718  10.502  17.450  0.00  0.00    +0.000 A 
ATOM     13  C   UNL     1      -1.467   9.889  17.310  0.00  0.00    +0.000 A 
ATOM     14  C   UNL     1      -0.440  10.174  18.227  0.00  0.00    +0.000 A 
ATOM     15  H   UNL     1       0.557  11.821  20.780  0.00  0.00    +0.000 HD
ENDBRANCH   5   6
ENDBRANCH   4   5
ENDBRANCH   2   4
ENDBRANCH   1   2
BRANCH   1  16
ATOM     16  C   UNL     1       1.514   4.989  20.381  0.00  0.00    +0.000 C 
BRANCH  16  17
ATOM     17  O   UNL     1       1.309   4.498  19.040  0.00  0.00    +0.000 OA
BRANCH  17  18
ATOM     18  C   UNL     1       1.706   3.213  18.814  0.00  0.00    +0.000 C 
ATOM     19  O   UNL     1       1.400   2.257  19.515  0.00  0.00    +0.000 OA
BRANCH  18  20
ATOM     20  C   UNL     1       2.578   3.126  17.580  0.00  0.00    +0.000 C 
BRANCH  20  21
ATOM     21  C   UNL     1       3.982   3.555  17.856  0.00  0.00    +0.000 A 
ATOM     22  C   UNL     1       4.637   3.509  19.073  0.00  0.00    +0.000 A 
ATOM     23  N   UNL     1       5.923   3.942  18.892  0.00  0.00    +0.000 N 
ATOM     24  C   UNL     1       6.128   4.287  17.577  0.00  0.00    +0.000 A 
ATOM     25  C   UNL     1       7.280   4.755  16.928  0.00  0.00    +0.000 A 
ATOM     26  C   UNL     1       7.190   5.030  15.559  0.00  0.00    +0.000 A 
ATOM     27  C   UNL     1       5.987   4.878  14.878  0.00  0.00    +0.000 A 
ATOM     28  C   UNL     1       4.845   4.435  15.554  0.00  0.00    +0.000 A 
ATOM     29  C   UNL     1       4.916   4.096  16.916  0.00  0.00    +0.000 A 
ATOM     30  H   UNL     1       6.626   4.001  19.614  0.00  0.00    +0.000 HD
ENDBRANCH  20  21
ENDBRANCH  18  20
ENDBRANCH  17  18
ENDBRANCH  16  17
ENDBRANCH   1  16
TORSDOF 9
ENDMDL
MODEL 7
REMARK VINA RESULT:      -7.6      5.657      8.486
REMARK  Name = 
REMARK  9 active torsions:
REMARK  status: ('A' for Active; 'I' for Inactive)
REMARK    1  A    between atoms: C_2  and  C_3
REMARK    2  A    between atoms: C_2  and  O_13
REMARK    3  A    between atoms: C_3  and  C_4
REMARK    4  A    between atoms: O_13  and  C_14
REMARK    5  A    between atoms: C_14  and  C_15
REMARK    6  A    between atoms: C_15  and  O_16
REMARK    7  A    between atoms: O_16  and  C_17
REMARK    8  A    between atoms: C_17  and  C_19
REMARK    9  A    between atoms: C_19  and  C_20
REMARK                            x       y       z     vdW  Elec       q    Type
REMARK                         _______ _______ _______ _____ _____    ______ ____
ROOT
ATOM      1  C   UNL     1       2.200   7.335  19.298  0.00  0.00    +0.000 C 
ENDROOT
BRANCH   1   2
ATOM      2  O   UNL     1       2.578   8.030  18.095  0.00  0.00    +0.000 OA
BRANCH   2   4
ATOM      3  O   UNL     1       2.576  10.271  17.617  0.00  0.00    +0.000 OA
ATOM      4  C   UNL     1       1.978   9.240  17.894  0.00  0.00    +0.000 C 
BRANCH   4   5
ATOM      5  C   UNL     1       0.484   9.120  18.103  0.00  0.00    +0.000 C 
BRANCH   5   6
ATOM      6  C   UNL     1      -0.065  10.183  19.007  0.00  0.00    +0.000 A 
ATOM      7  C   UNL     1      -0.399  11.474  18.647  0.00  0.00    +0.000 A 
ATOM      8  N   UNL     1      -0.828  12.138  19.763  0.00  0.00    +0.000 N 
ATOM      9  C   UNL     1      -0.759  11.316  20.862  0.00  0.00    +0.000 A 
ATOM     10  C   UNL     1      -1.071  11.572  22.204  0.00  0.00    +0.000 A 
ATOM     11  C   UNL     1      -0.896  10.532  23.121  0.00  0.00    +0.000 A 
ATOM     12  C   UNL     1      -0.444   9.283  22.707  0.00  0.00    +0.000 A 
ATOM     13  C   UNL     1      -0.155   9.044  21.357  0.00  0.00    +0.000 A 
ATOM     14  C   UNL     1      -0.297  10.078  20.416  0.00  0.00    +0.000 A 
ATOM     15  H   UNL     1      -1.138  13.099  19.787  0.00  0.00    +0.000 HD
ENDBRANCH   5   6
ENDBRANCH   4   5
ENDBRANCH   2   4
ENDBRANCH   1   2
BRANCH   1  16
ATOM     16  C   UNL     1       2.974   6.023  19.442  0.00  0.00    +0.000 C 
BRANCH  16  17
ATOM     17  O   UNL     1       2.704   5.135  18.337  0.00  0.00    +0.000 OA
BRANCH  17  18
ATOM     18  C   UNL     1       3.352   3.936  18.371  0.00  0.00    +0.000 C 
ATOM     19  O   UNL     1       3.284   3.135  19.295  0.00  0.00    +0.000 OA
BRANCH  18  20
ATOM     20  C   UNL     1       4.167   3.725  17.113  0.00  0.00    +0.000 C 
BRANCH  20  21
ATOM     21  C   UNL     1       5.010   4.915  16.788  0.00  0.00    +0.000 A 
ATOM     22  C   UNL     1       4.893   5.731  15.678  0.00  0.00    +0.000 A 
ATOM     23  N   UNL     1       5.817   6.737  15.780  0.00  0.00    +0.000 N 
ATOM     24  C   UNL     1       6.551   6.594  16.933  0.00  0.00    +0.000 A 
ATOM     25  C   UNL     1       7.579   7.388  17.462  0.00  0.00    +0.000 A 
ATOM     26  C   UNL     1       8.154   6.988  18.673  0.00  0.00    +0.000 A 
ATOM     27  C   UNL     1       7.741   5.822  19.308  0.00  0.00    +0.000 A 
ATOM     28  C   UNL     1       6.733   5.032  18.747  0.00  0.00    +0.000 A 
ATOM     29  C   UNL     1       6.096   5.436  17.560  0.00  0.00    +0.000 A 
ATOM     30  H   UNL     1       5.945   7.482  15.110  0.00  0.00    +0.000 HD
ENDBRANCH  20  21
ENDBRANCH  18  20
ENDBRANCH  17  18
ENDBRANCH  16  17
ENDBRANCH   1  16
TORSDOF 9
ENDMDL
MODEL 8
REMARK VINA RESULT:      -7.6      1.666      2.478
REMARK  Name = 
REMARK  9 active torsions:
REMARK  status: ('A' for Active; 'I' for Inactive)
REMARK    1  A    between atoms: C_2  and  C_3
REMARK    2  A    between atoms: C_2  and  O_13
REMARK    3  A    between atoms: C_3  and  C_4
REMARK    4  A    between atoms: O_13  and  C_14
REMARK    5  A    between atoms: C_14  and  C_15
REMARK    6  A    between atoms: C_15  and  O_16
REMARK    7  A    between atoms: O_16  and  C_17
REMARK    8  A    between atoms: C_17  and  C_19
REMARK    9  A    between atoms: C_19  and  C_20
REMARK                            x       y       z     vdW  Elec       q    Type
REMARK                         _______ _______ _______ _____ _____    ______ ____
ROOT
ATOM      1  C   UNL     1       8.219   8.464  17.534  0.00  0.00    +0.000 C 
ENDROOT
BRANCH   1   2
ATOM      2  O   UNL     1       7.994   9.666  18.295  0.00  0.00    +0.000 OA
BRANCH   2   4
ATOM      3  O   UNL     1       9.375  10.172  20.052  0.00  0.00    +0.000 OA
ATOM      4  C   UNL     1       9.102  10.229  18.860  0.00  0.00    +0.000 C 
BRANCH   4   5
ATOM      5  C   UNL     1       9.909  10.956  17.807  0.00  0.00    +0.000 C 
BRANCH   5   6
ATOM      6  C   UNL     1      10.006  12.431  18.062  0.00  0.00    +0.000 A 
ATOM      7  C   UNL     1      11.121  13.116  18.504  0.00  0.00    +0.000 A 
ATOM      8  N   UNL     1      10.791  14.435  18.646  0.00  0.00    +0.000 N 
ATOM      9  C   UNL     1       9.468  14.632  18.331  0.00  0.00    +0.000 A 
ATOM     10  C   UNL     1       8.698  15.802  18.353  0.00  0.00    +0.000 A 
ATOM     11  C   UNL     1       7.355  15.702  17.980  0.00  0.00    +0.000 A 
ATOM     12  C   UNL     1       6.813  14.484  17.584  0.00  0.00    +0.000 A 
ATOM     13  C   UNL     1       7.606  13.330  17.553  0.00  0.00    +0.000 A 
ATOM     14  C   UNL     1       8.954  13.394  17.946  0.00  0.00    +0.000 A 
ATOM     15  H   UNL     1      11.420  15.163  18.953  0.00  0.00    +0.000 HD
ENDBRANCH   5   6
ENDBRANCH   4   5
ENDBRANCH   2   4
ENDBRANCH   1   2
BRANCH   1  16
ATOM     16  C   UNL     1       8.079   7.222  18.414  0.00  0.00    +0.000 C 
BRANCH  16  17
ATOM     17  O   UNL     1       7.383   6.166  17.719  0.00  0.00    +0.000 OA
BRANCH  17  18
ATOM     18  C   UNL     1       6.356   5.585  18.403  0.00  0.00    +0.000 C 
ATOM     19  O   UNL     1       6.476   4.998  19.471  0.00  0.00    +0.000 OA
BRANCH  18  20
ATOM     20  C   UNL     1       5.047   5.762  17.665  0.00  0.00    +0.000 C 
BRANCH  20  21
ATOM     21  C   UNL     1       4.126   4.605  17.874  0.00  0.00    +0.000 A 
ATOM     22  C   UNL     1       4.142   3.402  17.193  0.00  0.00    +0.000 A 
ATOM     23  N   UNL     1       3.171   2.592  17.719  0.00  0.00    +0.000 N 
ATOM     24  C   UNL     1       2.505   3.242  18.731  0.00  0.00    +0.000 A 
ATOM     25  C   UNL     1       1.464   2.805  19.563  0.00  0.00    +0.000 A 
ATOM     26  C   UNL     1       0.974   3.702  20.518  0.00  0.00    +0.000 A 
ATOM     27  C   UNL     1       1.480   4.994  20.611  0.00  0.00    +0.000 A 
ATOM     28  C   UNL     1       2.501   5.415  19.751  0.00  0.00    +0.000 A 
ATOM     29  C   UNL     1       3.053   4.520  18.818  0.00  0.00    +0.000 A 
ATOM     30  H   UNL     1       2.970   1.650  17.416  0.00  0.00    +0.000 HD
ENDBRANCH  20  21
ENDBRANCH  18  20
ENDBRANCH  17  18
ENDBRANCH  16  17
ENDBRANCH   1  16
TORSDOF 9
ENDMDL
MODEL 9
REMARK VINA RESULT:      -7.6      2.266      2.973
REMARK  Name = 
REMARK  9 active torsions:
REMARK  status: ('A' for Active; 'I' for Inactive)
REMARK    1  A    between atoms: C_2  and  C_3
REMARK    2  A    between atoms: C_2  and  O_13
REMARK    3  A    between atoms: C_3  and  C_4
REMARK    4  A    between atoms: O_13  and  C_14
REMARK    5  A    between atoms: C_14  and  C_15
REMARK    6  A    between atoms: C_15  and  O_16
REMARK    7  A    between atoms: O_16  and  C_17
REMARK    8  A    between atoms: C_17  and  C_19
REMARK    9  A    between atoms: C_19  and  C_20
REMARK                            x       y       z     vdW  Elec       q    Type
REMARK                         _______ _______ _______ _____ _____    ______ ____
ROOT
ATOM      1  C   UNL     1       6.688   7.075  17.430  0.00  0.00    +0.000 C 
ENDROOT
BRANCH   1   2
ATOM      2  O   UNL     1       7.651   8.087  17.079  0.00  0.00    +0.000 OA
BRANCH   2   4
ATOM      3  O   UNL     1       8.773   8.056  19.077  0.00  0.00    +0.000 OA
ATOM      4  C   UNL     1       8.310   8.669  18.124  0.00  0.00    +0.000 C 
BRANCH   4   5
ATOM      5  C   UNL     1       8.345  10.171  17.944  0.00  0.00    +0.000 C 
BRANCH   5   6
ATOM      6  C   UNL     1       9.290  10.849  18.889  0.00  0.00    +0.000 A 
ATOM      7  C   UNL     1       9.327  10.700  20.262  0.00  0.00    +0.000 A 
ATOM      8  N   UNL     1      10.305  11.516  20.761  0.00  0.00    +0.000 N 
ATOM      9  C   UNL     1      10.901  12.222  19.743  0.00  0.00    +0.000 A 
ATOM     10  C   UNL     1      11.923  13.178  19.785  0.00  0.00    +0.000 A 
ATOM     11  C   UNL     1      12.333  13.745  18.574  0.00  0.00    +0.000 A 
ATOM     12  C   UNL     1      11.753  13.354  17.372  0.00  0.00    +0.000 A 
ATOM     13  C   UNL     1      10.744  12.383  17.351  0.00  0.00    +0.000 A 
ATOM     14  C   UNL     1      10.294  11.814  18.555  0.00  0.00    +0.000 A 
ATOM     15  H   UNL     1      10.550  11.602  21.736  0.00  0.00    +0.000 HD
ENDBRANCH   5   6
ENDBRANCH   4   5
ENDBRANCH   2   4
ENDBRANCH   1   2
BRANCH   1  16
ATOM     16  C   UNL     1       7.365   5.720  17.637  0.00  0.00    +0.000 C 
BRANCH  16  17
ATOM     17  O   UNL     1       6.401   4.646  17.611  0.00  0.00    +0.000 OA
BRANCH  17  18
ATOM     18  C   UNL     1       5.854   4.372  16.392  0.00  0.00    +0.000 C 
ATOM     19  O   UNL     1       6.439   4.502  15.323  0.00  0.00    +0.000 OA
BRANCH  18  20
ATOM     20  C   UNL     1       4.428   3.886  16.536  0.00  0.00    +0.000 C 
BRANCH  20  21
ATOM     21  C   UNL     1       3.694   4.619  17.611  0.00  0.00    +0.000 A 
ATOM     22  C   UNL     1       3.545   5.988  17.725  0.00  0.00    +0.000 A 
ATOM     23  N   UNL     1       2.763   6.251  18.817  0.00  0.00    +0.000 N 
ATOM     24  C   UNL     1       2.399   5.079  19.436  0.00  0.00    +0.000 A 
ATOM     25  C   UNL     1       1.594   4.855  20.562  0.00  0.00    +0.000 A 
ATOM     26  C   UNL     1       1.399   3.532  20.971  0.00  0.00    +0.000 A 
ATOM     27  C   UNL     1       2.014   2.480  20.302  0.00  0.00    +0.000 A 
ATOM     28  C   UNL     1       2.835   2.730  19.197  0.00  0.00    +0.000 A 
ATOM     29  C   UNL     1       3.007   4.044  18.727  0.00  0.00    +0.000 A 
ATOM     30  H   UNL     1       2.485   7.171  19.128  0.00  0.00    +0.000 HD
ENDBRANCH  20  21
ENDBRANCH  18  20
ENDBRANCH  17  18
ENDBRANCH  16  17
ENDBRANCH   1  16
TORSDOF 9
ENDMDL
