MODEL 1
REMARK VINA RESULT:      -7.3      0.000      0.000
REMARK  Name = 
REMARK  19 active torsions:
REMARK  status: ('A' for Active; 'I' for Inactive)
REMARK    1  A    between atoms: C_1  and  C_2
REMARK    2  A    between atoms: C_2  and  C_3
REMARK    3  A    between atoms: C_3  and  C_4
REMARK    4  A    between atoms: C_3  and  C_6
REMARK    5  A    between atoms: C_4  and  C_5
REMARK    6  A    between atoms: N_8  and  C_9
REMARK    7  A    between atoms: C_12  and  O_13
REMARK    8  A    between atoms: O_13  and  C_14
REMARK    9  A    between atoms: C_15  and  C_16
REMARK   10  A    between atoms: C_17  and  C_18
REMARK   11  A    between atoms: C_18  and  O_20
REMARK   12  A    between atoms: N_22  and  C_23
REMARK   13  A    between atoms: C_23  and  C_24
REMARK   14  A    between atoms: C_25  and  S_26
REMARK   15  A    between atoms: S_26  and  N_29
REMARK   16  A    between atoms: N_29  and  C_30
REMARK   17  A    between atoms: C_30  and  C_31
REMARK   18  A    between atoms: C_30  and  C_32
REMARK   19  A    between atoms: C_32  and  C_33
REMARK                            x       y       z     vdW  Elec       q    Type
REMARK                         _______ _______ _______ _____ _____    ______ ____
ROOT
ATOM      1  C   UNL     1       2.316   7.573  17.755  0.00  0.00    +0.000 A 
ATOM      2  C   UNL     1       3.671   7.737  17.469  0.00  0.00    +0.000 A 
ATOM      3  C   UNL     1       4.515   6.641  17.295  0.00  0.00    +0.000 A 
ATOM      4  C   UNL     1       4.022   5.332  17.341  0.00  0.00    +0.000 A 
ATOM      5  C   UNL     1       2.688   5.151  17.737  0.00  0.00    +0.000 A 
ATOM      6  C   UNL     1       1.839   6.272  17.947  0.00  0.00    +0.000 A 
ENDROOT
BRANCH   1   9
ATOM      7  C   UNL     1       1.097   9.296  19.053  0.00  0.00    +0.000 C 
ATOM      8  O   UNL     1       1.616   9.005  20.130  0.00  0.00    +0.000 OA
ATOM      9  N   UNL     1       1.433   8.683  17.852  0.00  0.00    +0.000 N 
ATOM     10  H   UNL     1       1.193   9.163  16.993  0.00  0.00    +0.000 HD
BRANCH   7  11
ATOM     11  C   UNL     1       0.015  10.391  18.998  0.00  0.00    +0.000 C 
BRANCH  11  13
ATOM     12  C   UNL     1       1.068  12.518  20.105  0.00  0.00    +0.000 C 
ATOM     13  C   UNL     1       0.739  11.756  18.833  0.00  0.00    +0.000 C 
ENDBRANCH  11  13
BRANCH  11  14
ATOM     14  C   UNL     1      -1.060  10.127  17.930  0.00  0.00    +0.000 C 
ATOM     15  C   UNL     1      -1.924  11.334  17.599  0.00  0.00    +0.000 C 
ENDBRANCH  11  14
ENDBRANCH   7  11
ENDBRANCH   1   9
BRANCH   5  16
ATOM     16  S   UNL     1       1.945   3.543  17.882  0.00  0.00    +0.000 S 
ATOM     17  O   UNL     1       0.517   3.754  18.019  0.00  0.00    +0.000 OA
ATOM     18  O   UNL     1       2.473   2.635  16.889  0.00  0.00    +0.000 OA
BRANCH  16  19
ATOM     19  N   UNL     1       2.456   2.988  19.408  0.00  0.00    +0.000 NA
ATOM     20  H   UNL     1       3.473   3.072  19.466  0.00  0.00    +0.000 HD
BRANCH  19  21
ATOM     21  C   UNL     1       1.703   3.401  20.616  0.00  0.00    +0.000 C 
ATOM     22  C   UNL     1       1.675   2.281  21.647  0.00  0.00    +0.000 C 
BRANCH  21  23
ATOM     23  C   UNL     1       2.302   4.694  21.208  0.00  0.00    +0.000 C 
ATOM     24  C   UNL     1       1.448   5.947  21.064  0.00  0.00    +0.000 C 
ENDBRANCH  21  23
ENDBRANCH  19  21
ENDBRANCH  16  19
ENDBRANCH   5  16
BRANCH   4  25
ATOM     25  O   UNL     1       4.862   4.278  17.028  0.00  0.00    +0.000 OA
BRANCH  25  26
ATOM     26  C   UNL     1       5.862   4.433  16.137  0.00  0.00    +0.000 A 
ATOM     27  C   UNL     1       5.922   4.375  14.747  0.00  0.00    +0.000 A 
ATOM     28  C   UNL     1       4.869   4.007  13.764  0.00  0.00    +0.000 C 
ATOM     29  C   UNL     1       7.238   4.805  14.414  0.00  0.00    +0.000 A 
ATOM     30  N   UNL     1       7.990   4.998  15.514  0.00  0.00    +0.000 NA
ATOM     31  N   UNL     1       7.156   4.688  16.536  0.00  0.00    +0.000 N 
BRANCH  29  32
ATOM     32  C   UNL     1       7.815   5.052  13.085  0.00  0.00    +0.000 C 
ATOM     33  O   UNL     1       7.467   4.491  12.055  0.00  0.00    +0.000 OA
BRANCH  32  34
ATOM     34  O   UNL     1       8.787   6.005  13.114  0.00  0.00    +0.000 OA
ATOM     35  H   UNL     1       8.418   6.778  12.624  0.00  0.00    +0.000 HD
ENDBRANCH  32  34
ENDBRANCH  29  32
BRANCH  31  36
ATOM     36  C   UNL     1       7.715   4.635  17.876  0.00  0.00    +0.000 C 
ATOM     37  C   UNL     1       7.723   5.980  18.580  0.00  0.00    +0.000 C 
ENDBRANCH  31  36
ENDBRANCH  25  26
ENDBRANCH   4  25
TORSDOF 13
ENDMDL
MODEL 2
REMARK VINA RESULT:      -7.1      1.369      1.846
REMARK  Name = 
REMARK  19 active torsions:
REMARK  status: ('A' for Active; 'I' for Inactive)
REMARK    1  A    between atoms: C_1  and  C_2
REMARK    2  A    between atoms: C_2  and  C_3
REMARK    3  A    between atoms: C_3  and  C_4
REMARK    4  A    between atoms: C_3  and  C_6
REMARK    5  A    between atoms: C_4  and  C_5
REMARK    6  A    between atoms: N_8  and  C_9
REMARK    7  A    between atoms: C_12  and  O_13
REMARK    8  A    between atoms: O_13  and  C_14
REMARK    9  A    between atoms: C_15  and  C_16
REMARK   10  A    between atoms: C_17  and  C_18
REMARK   11  A    between atoms: C_18  and  O_20
REMARK   12  A    between atoms: N_22  and  C_23
REMARK   13  A    between atoms: C_23  and  C_24
REMARK   14  A    between atoms: C_25  and  S_26
REMARK   15  A    between atoms: S_26  and  N_29
REMARK   16  A    between atoms: N_29  and  C_30
REMARK   17  A    between atoms: C_30  and  C_31
REMARK   18  A    between atoms: C_30  and  C_32
REMARK   19  A    between atoms: C_32  and  C_33
REMARK                            x       y       z     vdW  Elec       q    Type
REMARK                         _______ _______ _______ _____ _____    ______ ____
ROOT
ATOM      1  C   UNL     1       2.559   7.124  18.468  0.00  0.00    +0.000 A 
ATOM      2  C   UNL     1       3.847   7.269  17.955  0.00  0.00    +0.000 A 
ATOM      3  C   UNL     1       4.530   6.191  17.391  0.00  0.00    +0.000 A 
ATOM      4  C   UNL     1       3.925   4.936  17.265  0.00  0.00    +0.000 A 
ATOM      5  C   UNL     1       2.676   4.749  17.876  0.00  0.00    +0.000 A 
ATOM      6  C   UNL     1       1.997   5.843  18.479  0.00  0.00    +0.000 A 
ENDROOT
BRANCH   1   9
ATOM      7  C   UNL     1       1.444   8.368  20.298  0.00  0.00    +0.000 C 
ATOM      8  O   UNL     1       1.799   7.594  21.185  0.00  0.00    +0.000 OA
ATOM      9  N   UNL     1       1.825   8.234  18.968  0.00  0.00    +0.000 N 
ATOM     10  H   UNL     1       1.746   9.048  18.370  0.00  0.00    +0.000 HD
BRANCH   7  11
ATOM     11  C   UNL     1       0.528   9.558  20.644  0.00  0.00    +0.000 C 
BRANCH  11  13
ATOM     12  C   UNL     1       0.030  11.481  18.937  0.00  0.00    +0.000 C 
ATOM     13  C   UNL     1      -0.150  10.024  19.325  0.00  0.00    +0.000 C 
ENDBRANCH  11  13
BRANCH  11  14
ATOM     14  C   UNL     1      -0.464   9.249  21.777  0.00  0.00    +0.000 C 
ATOM     15  C   UNL     1      -0.533  10.317  22.858  0.00  0.00    +0.000 C 
ENDBRANCH  11  14
ENDBRANCH   7  11
ENDBRANCH   1   9
BRANCH   5  16
ATOM     16  S   UNL     1       1.814   3.195  17.831  0.00  0.00    +0.000 S 
ATOM     17  O   UNL     1       0.402   3.505  17.712  0.00  0.00    +0.000 OA
ATOM     18  O   UNL     1       2.455   2.271  16.924  0.00  0.00    +0.000 OA
BRANCH  16  19
ATOM     19  N   UNL     1       1.997   2.578  19.407  0.00  0.00    +0.000 NA
ATOM     20  H   UNL     1       1.963   1.556  19.367  0.00  0.00    +0.000 HD
BRANCH  19  21
ATOM     21  C   UNL     1       3.034   3.155  20.294  0.00  0.00    +0.000 C 
ATOM     22  C   UNL     1       2.679   2.935  21.758  0.00  0.00    +0.000 C 
BRANCH  21  23
ATOM     23  C   UNL     1       4.420   2.566  19.958  0.00  0.00    +0.000 C 
ATOM     24  C   UNL     1       4.920   1.474  20.895  0.00  0.00    +0.000 C 
ENDBRANCH  21  23
ENDBRANCH  19  21
ENDBRANCH  16  19
ENDBRANCH   5  16
BRANCH   4  25
ATOM     25  O   UNL     1       4.583   3.931  16.578  0.00  0.00    +0.000 OA
BRANCH  25  26
ATOM     26  C   UNL     1       5.644   4.210  15.794  0.00  0.00    +0.000 A 
ATOM     27  C   UNL     1       5.839   4.219  14.416  0.00  0.00    +0.000 A 
ATOM     28  C   UNL     1       4.920   3.806  13.323  0.00  0.00    +0.000 C 
ATOM     29  C   UNL     1       7.136   4.774  14.228  0.00  0.00    +0.000 A 
ATOM     30  N   UNL     1       7.762   4.982  15.403  0.00  0.00    +0.000 NA
ATOM     31  N   UNL     1       6.867   4.557  16.327  0.00  0.00    +0.000 N 
BRANCH  29  32
ATOM     32  C   UNL     1       7.811   5.127  12.971  0.00  0.00    +0.000 C 
ATOM     33  O   UNL     1       7.527   4.673  11.871  0.00  0.00    +0.000 OA
BRANCH  32  34
ATOM     34  O   UNL     1       8.798   6.048  13.157  0.00  0.00    +0.000 OA
ATOM     35  H   UNL     1       9.626   5.620  12.835  0.00  0.00    +0.000 HD
ENDBRANCH  32  34
ENDBRANCH  29  32
BRANCH  31  36
ATOM     36  C   UNL     1       7.301   4.492  17.712  0.00  0.00    +0.000 C 
ATOM     37  C   UNL     1       7.678   5.844  18.289  0.00  0.00    +0.000 C 
ENDBRANCH  31  36
ENDBRANCH  25  26
ENDBRANCH   4  25
TORSDOF 13
ENDMDL
MODEL 3
REMARK VINA RESULT:      -7.0      1.504      1.867
REMARK  Name = 
REMARK  19 active torsions:
REMARK  status: ('A' for Active; 'I' for Inactive)
REMARK    1  A    between atoms: C_1  and  C_2
REMARK    2  A    between atoms: C_2  and  C_3
REMARK    3  A    between atoms: C_3  and  C_4
REMARK    4  A    between atoms: C_3  and  C_6
REMARK    5  A    between atoms: C_4  and  C_5
REMARK    6  A    between atoms: N_8  and  C_9
REMARK    7  A    between atoms: C_12  and  O_13
REMARK    8  A    between atoms: O_13  and  C_14
REMARK    9  A    between atoms: C_15  and  C_16
REMARK   10  A    between atoms: C_17  and  C_18
REMARK   11  A    between atoms: C_18  and  O_20
REMARK   12  A    between atoms: N_22  and  C_23
REMARK   13  A    between atoms: C_23  and  C_24
REMARK   14  A    between atoms: C_25  and  S_26
REMARK   15  A    between atoms: S_26  and  N_29
REMARK   16  A    between atoms: N_29  and  C_30
REMARK   17  A    between atoms: C_30  and  C_31
REMARK   18  A    between atoms: C_30  and  C_32
REMARK   19  A    between atoms: C_32  and  C_33
REMARK                            x       y       z     vdW  Elec       q    Type
REMARK                         _______ _______ _______ _____ _____    ______ ____
ROOT
ATOM      1  C   UNL     1       2.451   6.947  18.431  0.00  0.00    +0.000 A 
ATOM      2  C   UNL     1       3.689   7.174  17.832  0.00  0.00    +0.000 A 
ATOM      3  C   UNL     1       4.431   6.132  17.279  0.00  0.00    +0.000 A 
ATOM      4  C   UNL     1       3.933   4.825  17.248  0.00  0.00    +0.000 A 
ATOM      5  C   UNL     1       2.743   4.563  17.943  0.00  0.00    +0.000 A 
ATOM      6  C   UNL     1       2.006   5.625  18.537  0.00  0.00    +0.000 A 
ENDROOT
BRANCH   1   9
ATOM      7  C   UNL     1       1.361   8.199  20.270  0.00  0.00    +0.000 C 
ATOM      8  O   UNL     1       1.855   7.521  21.169  0.00  0.00    +0.000 OA
ATOM      9  N   UNL     1       1.651   8.015  18.924  0.00  0.00    +0.000 N 
ATOM     10  H   UNL     1       1.449   8.776  18.288  0.00  0.00    +0.000 HD
BRANCH   7  11
ATOM     11  C   UNL     1       0.362   9.320  20.620  0.00  0.00    +0.000 C 
BRANCH  11  13
ATOM     12  C   UNL     1      -0.742  10.269  22.796  0.00  0.00    +0.000 C 
ATOM     13  C   UNL     1       0.428   9.542  22.157  0.00  0.00    +0.000 C 
ENDBRANCH  11  13
BRANCH  11  14
ATOM     14  C   UNL     1       0.578  10.601  19.798  0.00  0.00    +0.000 C 
ATOM     15  C   UNL     1      -0.524  10.892  18.790  0.00  0.00    +0.000 C 
ENDBRANCH  11  14
ENDBRANCH   7  11
ENDBRANCH   1   9
BRANCH   5  16
ATOM     16  S   UNL     1       2.021   2.941  18.025  0.00  0.00    +0.000 S 
ATOM     17  O   UNL     1       0.787   3.071  18.777  0.00  0.00    +0.000 OA
ATOM     18  O   UNL     1       2.042   2.297  16.732  0.00  0.00    +0.000 OA
BRANCH  16  19
ATOM     19  N   UNL     1       3.069   2.074  19.048  0.00  0.00    +0.000 NA
ATOM     20  H   UNL     1       3.746   1.567  18.474  0.00  0.00    +0.000 HD
BRANCH  19  21
ATOM     21  C   UNL     1       3.616   2.740  20.254  0.00  0.00    +0.000 C 
ATOM     22  C   UNL     1       2.693   2.541  21.448  0.00  0.00    +0.000 C 
BRANCH  21  23
ATOM     23  C   UNL     1       5.040   2.227  20.554  0.00  0.00    +0.000 C 
ATOM     24  C   UNL     1       5.129   1.028  21.491  0.00  0.00    +0.000 C 
ENDBRANCH  21  23
ENDBRANCH  19  21
ENDBRANCH  16  19
ENDBRANCH   5  16
BRANCH   4  25
ATOM     25  O   UNL     1       4.636   3.845  16.569  0.00  0.00    +0.000 OA
BRANCH  25  26
ATOM     26  C   UNL     1       5.686   4.166  15.787  0.00  0.00    +0.000 A 
ATOM     27  C   UNL     1       5.876   4.206  14.408  0.00  0.00    +0.000 A 
ATOM     28  C   UNL     1       4.962   3.793  13.311  0.00  0.00    +0.000 C 
ATOM     29  C   UNL     1       7.158   4.798  14.226  0.00  0.00    +0.000 A 
ATOM     30  N   UNL     1       7.783   4.997  15.402  0.00  0.00    +0.000 NA
ATOM     31  N   UNL     1       6.903   4.532  16.321  0.00  0.00    +0.000 N 
BRANCH  29  32
ATOM     32  C   UNL     1       7.818   5.192  12.974  0.00  0.00    +0.000 C 
ATOM     33  O   UNL     1       7.507   4.792  11.861  0.00  0.00    +0.000 OA
BRANCH  32  34
ATOM     34  O   UNL     1       8.826   6.085  13.182  0.00  0.00    +0.000 OA
ATOM     35  H   UNL     1       9.592   5.749  12.659  0.00  0.00    +0.000 HD
ENDBRANCH  32  34
ENDBRANCH  29  32
BRANCH  31  36
ATOM     36  C   UNL     1       7.344   4.451  17.703  0.00  0.00    +0.000 C 
ATOM     37  C   UNL     1       7.675   5.803  18.310  0.00  0.00    +0.000 C 
ENDBRANCH  31  36
ENDBRANCH  25  26
ENDBRANCH   4  25
TORSDOF 13
ENDMDL
MODEL 4
REMARK VINA RESULT:      -6.9      0.829      1.480
REMARK  Name = 
REMARK  19 active torsions:
REMARK  status: ('A' for Active; 'I' for Inactive)
REMARK    1  A    between atoms: C_1  and  C_2
REMARK    2  A    between atoms: C_2  and  C_3
REMARK    3  A    between atoms: C_3  and  C_4
REMARK    4  A    between atoms: C_3  and  C_6
REMARK    5  A    between atoms: C_4  and  C_5
REMARK    6  A    between atoms: N_8  and  C_9
REMARK    7  A    between atoms: C_12  and  O_13
REMARK    8  A    between atoms: O_13  and  C_14
REMARK    9  A    between atoms: C_15  and  C_16
REMARK   10  A    between atoms: C_17  and  C_18
REMARK   11  A    between atoms: C_18  and  O_20
REMARK   12  A    between atoms: N_22  and  C_23
REMARK   13  A    between atoms: C_23  and  C_24
REMARK   14  A    between atoms: C_25  and  S_26
REMARK   15  A    between atoms: S_26  and  N_29
REMARK   16  A    between atoms: N_29  and  C_30
REMARK   17  A    between atoms: C_30  and  C_31
REMARK   18  A    between atoms: C_30  and  C_32
REMARK   19  A    between atoms: C_32  and  C_33
REMARK                            x       y       z     vdW  Elec       q    Type
REMARK                         _______ _______ _______ _____ _____    ______ ____
ROOT
ATOM      1  C   UNL     1       2.595   7.770  17.958  0.00  0.00    +0.000 A 
ATOM      2  C   UNL     1       3.934   7.828  17.575  0.00  0.00    +0.000 A 
ATOM      3  C   UNL     1       4.650   6.673  17.261  0.00  0.00    +0.000 A 
ATOM      4  C   UNL     1       4.035   5.417  17.261  0.00  0.00    +0.000 A 
ATOM      5  C   UNL     1       2.723   5.332  17.751  0.00  0.00    +0.000 A 
ATOM      6  C   UNL     1       2.007   6.509  18.102  0.00  0.00    +0.000 A 
ENDROOT
BRANCH   1   9
ATOM      7  C   UNL     1       1.302   9.279  19.439  0.00  0.00    +0.000 C 
ATOM      8  O   UNL     1       1.529   8.641  20.465  0.00  0.00    +0.000 OA
ATOM      9  N   UNL     1       1.835   8.948  18.199  0.00  0.00    +0.000 N 
ATOM     10  H   UNL     1       1.850   9.665  17.484  0.00  0.00    +0.000 HD
BRANCH   7  11
ATOM     11  C   UNL     1       0.383  10.514  19.494  0.00  0.00    +0.000 C 
BRANCH  11  13
ATOM     12  C   UNL     1      -0.810  11.148  21.738  0.00  0.00    +0.000 C 
ATOM     13  C   UNL     1      -0.731  10.221  20.537  0.00  0.00    +0.000 C 
ENDBRANCH  11  13
BRANCH  11  14
ATOM     14  C   UNL     1       1.145  11.825  19.753  0.00  0.00    +0.000 C 
ATOM     15  C   UNL     1       1.586  12.552  18.492  0.00  0.00    +0.000 C 
ENDBRANCH  11  14
ENDBRANCH   7  11
ENDBRANCH   1   9
BRANCH   5  16
ATOM     16  S   UNL     1       1.837   3.794  17.848  0.00  0.00    +0.000 S 
ATOM     17  O   UNL     1       0.570   4.000  17.175  0.00  0.00    +0.000 OA
ATOM     18  O   UNL     1       2.692   2.680  17.507  0.00  0.00    +0.000 OA
BRANCH  16  19
ATOM     19  N   UNL     1       1.440   3.651  19.498  0.00  0.00    +0.000 NA
ATOM     20  H   UNL     1       0.880   2.806  19.630  0.00  0.00    +0.000 HD
BRANCH  19  21
ATOM     21  C   UNL     1       2.488   3.898  20.517  0.00  0.00    +0.000 C 
ATOM     22  C   UNL     1       2.229   5.205  21.253  0.00  0.00    +0.000 C 
BRANCH  21  23
ATOM     23  C   UNL     1       2.577   2.710  21.497  0.00  0.00    +0.000 C 
ATOM     24  C   UNL     1       1.264   2.281  22.140  0.00  0.00    +0.000 C 
ENDBRANCH  21  23
ENDBRANCH  19  21
ENDBRANCH  16  19
ENDBRANCH   5  16
BRANCH   4  25
ATOM     25  O   UNL     1       4.741   4.314  16.812  0.00  0.00    +0.000 OA
BRANCH  25  26
ATOM     26  C   UNL     1       5.778   4.458  15.963  0.00  0.00    +0.000 A 
ATOM     27  C   UNL     1       5.891   4.416  14.576  0.00  0.00    +0.000 A 
ATOM     28  C   UNL     1       4.869   4.087  13.548  0.00  0.00    +0.000 C 
ATOM     29  C   UNL     1       7.228   4.820  14.299  0.00  0.00    +0.000 A 
ATOM     30  N   UNL     1       7.941   4.980  15.431  0.00  0.00    +0.000 NA
ATOM     31  N   UNL     1       7.062   4.676  16.415  0.00  0.00    +0.000 N 
BRANCH  29  32
ATOM     32  C   UNL     1       7.862   5.071  12.997  0.00  0.00    +0.000 C 
ATOM     33  O   UNL     1       7.541   4.532  11.947  0.00  0.00    +0.000 OA
BRANCH  32  34
ATOM     34  O   UNL     1       8.855   5.999  13.077  0.00  0.00    +0.000 OA
ATOM     35  H   UNL     1       9.652   5.571  12.684  0.00  0.00    +0.000 HD
ENDBRANCH  32  34
ENDBRANCH  29  32
BRANCH  31  36
ATOM     36  C   UNL     1       7.567   4.592  17.774  0.00  0.00    +0.000 C 
ATOM     37  C   UNL     1       7.777   5.947  18.425  0.00  0.00    +0.000 C 
ENDBRANCH  31  36
ENDBRANCH  25  26
ENDBRANCH   4  25
TORSDOF 13
ENDMDL
MODEL 5
REMARK VINA RESULT:      -6.8      1.417      2.085
REMARK  Name = 
REMARK  19 active torsions:
REMARK  status: ('A' for Active; 'I' for Inactive)
REMARK    1  A    between atoms: C_1  and  C_2
REMARK    2  A    between atoms: C_2  and  C_3
REMARK    3  A    between atoms: C_3  and  C_4
REMARK    4  A    between atoms: C_3  and  C_6
REMARK    5  A    between atoms: C_4  and  C_5
REMARK    6  A    between atoms: N_8  and  C_9
REMARK    7  A    between atoms: C_12  and  O_13
REMARK    8  A    between atoms: O_13  and  C_14
REMARK    9  A    between atoms: C_15  and  C_16
REMARK   10  A    between atoms: C_17  and  C_18
REMARK   11  A    between atoms: C_18  and  O_20
REMARK   12  A    between atoms: N_22  and  C_23
REMARK   13  A    between atoms: C_23  and  C_24
REMARK   14  A    between atoms: C_25  and  S_26
REMARK   15  A    between atoms: S_26  and  N_29
REMARK   16  A    between atoms: N_29  and  C_30
REMARK   17  A    between atoms: C_30  and  C_31
REMARK   18  A    between atoms: C_30  and  C_32
REMARK   19  A    between atoms: C_32  and  C_33
REMARK                            x       y       z     vdW  Elec       q    Type
REMARK                         _______ _______ _______ _____ _____    ______ ____
ROOT
ATOM      1  C   UNL     1       2.753   7.144  18.644  0.00  0.00    +0.000 A 
ATOM      2  C   UNL     1       3.319   7.403  17.396  0.00  0.00    +0.000 A 
ATOM      3  C   UNL     1       4.087   6.446  16.734  0.00  0.00    +0.000 A 
ATOM      4  C   UNL     1       4.270   5.166  17.269  0.00  0.00    +0.000 A 
ATOM      5  C   UNL     1       3.802   4.930  18.570  0.00  0.00    +0.000 A 
ATOM      6  C   UNL     1       3.048   5.921  19.257  0.00  0.00    +0.000 A 
ENDROOT
BRANCH   1   9
ATOM      7  C   UNL     1       1.585   9.326  18.754  0.00  0.00    +0.000 C 
ATOM      8  O   UNL     1       1.924   9.685  17.628  0.00  0.00    +0.000 OA
ATOM      9  N   UNL     1       1.902   8.083  19.288  0.00  0.00    +0.000 N 
ATOM     10  H   UNL     1       1.354   7.751  20.073  0.00  0.00    +0.000 HD
BRANCH   7  11
ATOM     11  C   UNL     1       0.767  10.279  19.646  0.00  0.00    +0.000 C 
BRANCH  11  13
ATOM     12  C   UNL     1      -1.341  10.171  18.096  0.00  0.00    +0.000 C 
ATOM     13  C   UNL     1      -0.251  11.016  18.733  0.00  0.00    +0.000 C 
ENDBRANCH  11  13
BRANCH  11  14
ATOM     14  C   UNL     1       0.122   9.576  20.852  0.00  0.00    +0.000 C 
ATOM     15  C   UNL     1      -0.387  10.521  21.930  0.00  0.00    +0.000 C 
ENDBRANCH  11  14
ENDBRANCH   7  11
ENDBRANCH   1   9
BRANCH   5  16
ATOM     16  S   UNL     1       4.005   3.366  19.389  0.00  0.00    +0.000 S 
ATOM     17  O   UNL     1       3.396   2.365  18.535  0.00  0.00    +0.000 OA
ATOM     18  O   UNL     1       5.356   3.207  19.878  0.00  0.00    +0.000 OA
BRANCH  16  19
ATOM     19  N   UNL     1       2.978   3.472  20.743  0.00  0.00    +0.000 NA
ATOM     20  H   UNL     1       2.837   4.458  20.973  0.00  0.00    +0.000 HD
BRANCH  19  21
ATOM     21  C   UNL     1       1.770   2.616  20.802  0.00  0.00    +0.000 C 
ATOM     22  C   UNL     1       1.366   2.349  22.245  0.00  0.00    +0.000 C 
BRANCH  21  23
ATOM     23  C   UNL     1       0.615   3.256  20.005  0.00  0.00    +0.000 C 
ATOM     24  C   UNL     1       0.334   2.646  18.637  0.00  0.00    +0.000 C 
ENDBRANCH  21  23
ENDBRANCH  19  21
ENDBRANCH  16  19
ENDBRANCH   5  16
BRANCH   4  25
ATOM     25  O   UNL     1       4.922   4.203  16.519  0.00  0.00    +0.000 OA
BRANCH  25  26
ATOM     26  C   UNL     1       5.883   4.547  15.639  0.00  0.00    +0.000 A 
ATOM     27  C   UNL     1       6.072   4.297  14.282  0.00  0.00    +0.000 A 
ATOM     28  C   UNL     1       5.281   3.447  13.353  0.00  0.00    +0.000 C 
ATOM     29  C   UNL     1       7.194   5.090  13.911  0.00  0.00    +0.000 A 
ATOM     30  N   UNL     1       7.749   5.694  14.979  0.00  0.00    +0.000 NA
ATOM     31  N   UNL     1       6.985   5.283  16.019  0.00  0.00    +0.000 N 
BRANCH  29  32
ATOM     32  C   UNL     1       7.763   5.307  12.573  0.00  0.00    +0.000 C 
ATOM     33  O   UNL     1       8.462   6.260  12.256  0.00  0.00    +0.000 OA
BRANCH  32  34
ATOM     34  O   UNL     1       7.440   4.308  11.706  0.00  0.00    +0.000 OA
ATOM     35  H   UNL     1       7.035   3.597  12.258  0.00  0.00    +0.000 HD
ENDBRANCH  32  34
ENDBRANCH  29  32
BRANCH  31  36
ATOM     36  C   UNL     1       7.420   5.631  17.360  0.00  0.00    +0.000 C 
ATOM     37  C   UNL     1       7.983   4.454  18.136  0.00  0.00    +0.000 C 
ENDBRANCH  31  36
ENDBRANCH  25  26
ENDBRANCH   4  25
TORSDOF 13
ENDMDL
MODEL 6
REMARK VINA RESULT:      -6.8      1.335      1.920
REMARK  Name = 
REMARK  19 active torsions:
REMARK  status: ('A' for Active; 'I' for Inactive)
REMARK    1  A    between atoms: C_1  and  C_2
REMARK    2  A    between atoms: C_2  and  C_3
REMARK    3  A    between atoms: C_3  and  C_4
REMARK    4  A    between atoms: C_3  and  C_6
REMARK    5  A    between atoms: C_4  and  C_5
REMARK    6  A    between atoms: N_8  and  C_9
REMARK    7  A    between atoms: C_12  and  O_13
REMARK    8  A    between atoms: O_13  and  C_14
REMARK    9  A    between atoms: C_15  and  C_16
REMARK   10  A    between atoms: C_17  and  C_18
REMARK   11  A    between atoms: C_18  and  O_20
REMARK   12  A    between atoms: N_22  and  C_23
REMARK   13  A    between atoms: C_23  and  C_24
REMARK   14  A    between atoms: C_25  and  S_26
REMARK   15  A    between atoms: S_26  and  N_29
REMARK   16  A    between atoms: N_29  and  C_30
REMARK   17  A    between atoms: C_30  and  C_31
REMARK   18  A    between atoms: C_30  and  C_32
REMARK   19  A    between atoms: C_32  and  C_33
REMARK                            x       y       z     vdW  Elec       q    Type
REMARK                         _______ _______ _______ _____ _____    ______ ____
ROOT
ATOM      1  C   UNL     1       1.884   8.361  17.771  0.00  0.00    +0.000 A 
ATOM      2  C   UNL     1       3.229   8.729  17.789  0.00  0.00    +0.000 A 
ATOM      3  C   UNL     1       4.241   7.778  17.918  0.00  0.00    +0.000 A 
ATOM      4  C   UNL     1       3.948   6.411  17.974  0.00  0.00    +0.000 A 
ATOM      5  C   UNL     1       2.599   6.036  18.069  0.00  0.00    +0.000 A 
ATOM      6  C   UNL     1       1.570   7.012  17.971  0.00  0.00    +0.000 A 
ENDROOT
BRANCH   1   9
ATOM      7  C   UNL     1       0.156   9.938  18.586  0.00  0.00    +0.000 C 
ATOM      8  O   UNL     1       0.441   9.804  19.775  0.00  0.00    +0.000 OA
ATOM      9  N   UNL     1       0.851   9.314  17.557  0.00  0.00    +0.000 N 
ATOM     10  H   UNL     1       0.755   9.694  16.623  0.00  0.00    +0.000 HD
BRANCH   7  11
ATOM     11  C   UNL     1      -1.030  10.834  18.181  0.00  0.00    +0.000 C 
BRANCH  11  13
ATOM     12  C   UNL     1      -2.571  10.041  16.217  0.00  0.00    +0.000 C 
ATOM     13  C   UNL     1      -2.168   9.904  17.675  0.00  0.00    +0.000 C 
ENDBRANCH  11  13
BRANCH  11  14
ATOM     14  C   UNL     1      -1.468  11.799  19.295  0.00  0.00    +0.000 C 
ATOM     15  C   UNL     1      -2.956  12.117  19.299  0.00  0.00    +0.000 C 
ENDBRANCH  11  14
ENDBRANCH   7  11
ENDBRANCH   1   9
BRANCH   5  16
ATOM     16  S   UNL     1       2.086   4.338  18.190  0.00  0.00    +0.000 S 
ATOM     17  O   UNL     1       1.176   4.098  17.087  0.00  0.00    +0.000 OA
ATOM     18  O   UNL     1       3.216   3.470  18.428  0.00  0.00    +0.000 OA
BRANCH  16  19
ATOM     19  N   UNL     1       1.108   4.302  19.583  0.00  0.00    +0.000 NA
ATOM     20  H   UNL     1       0.408   5.044  19.514  0.00  0.00    +0.000 HD
BRANCH  19  21
ATOM     21  C   UNL     1       0.619   2.997  20.089  0.00  0.00    +0.000 C 
ATOM     22  C   UNL     1       0.706   1.930  19.007  0.00  0.00    +0.000 C 
BRANCH  21  23
ATOM     23  C   UNL     1       1.402   2.581  21.351  0.00  0.00    +0.000 C 
ATOM     24  C   UNL     1       2.414   3.596  21.869  0.00  0.00    +0.000 C 
ENDBRANCH  21  23
ENDBRANCH  19  21
ENDBRANCH  16  19
ENDBRANCH   5  16
BRANCH   4  25
ATOM     25  O   UNL     1       4.983   5.493  17.963  0.00  0.00    +0.000 OA
BRANCH  25  26
ATOM     26  C   UNL     1       5.794   5.379  16.891  0.00  0.00    +0.000 A 
ATOM     27  C   UNL     1       5.697   4.688  15.687  0.00  0.00    +0.000 A 
ATOM     28  C   UNL     1       4.659   3.731  15.221  0.00  0.00    +0.000 C 
ATOM     29  C   UNL     1       6.809   5.128  14.915  0.00  0.00    +0.000 A 
ATOM     30  N   UNL     1       7.617   5.938  15.626  0.00  0.00    +0.000 NA
ATOM     31  N   UNL     1       7.021   6.006  16.840  0.00  0.00    +0.000 N 
BRANCH  29  32
ATOM     32  C   UNL     1       7.137   4.817  13.517  0.00  0.00    +0.000 C 
ATOM     33  O   UNL     1       6.634   3.914  12.863  0.00  0.00    +0.000 OA
BRANCH  32  34
ATOM     34  O   UNL     1       8.068   5.669  13.004  0.00  0.00    +0.000 OA
ATOM     35  H   UNL     1       7.771   6.574  13.260  0.00  0.00    +0.000 HD
ENDBRANCH  32  34
ENDBRANCH  29  32
BRANCH  31  36
ATOM     36  C   UNL     1       7.735   6.682  17.910  0.00  0.00    +0.000 C 
ATOM     37  C   UNL     1       7.895   8.174  17.680  0.00  0.00    +0.000 C 
ENDBRANCH  31  36
ENDBRANCH  25  26
ENDBRANCH   4  25
TORSDOF 13
ENDMDL
MODEL 7
REMARK VINA RESULT:      -6.7      3.202      6.116
REMARK  Name = 
REMARK  19 active torsions:
REMARK  status: ('A' for Active; 'I' for Inactive)
REMARK    1  A    between atoms: C_1  and  C_2
REMARK    2  A    between atoms: C_2  and  C_3
REMARK    3  A    between atoms: C_3  and  C_4
REMARK    4  A    between atoms: C_3  and  C_6
REMARK    5  A    between atoms: C_4  and  C_5
REMARK    6  A    between atoms: N_8  and  C_9
REMARK    7  A    between atoms: C_12  and  O_13
REMARK    8  A    between atoms: O_13  and  C_14
REMARK    9  A    between atoms: C_15  and  C_16
REMARK   10  A    between atoms: C_17  and  C_18
REMARK   11  A    between atoms: C_18  and  O_20
REMARK   12  A    between atoms: N_22  and  C_23
REMARK   13  A    between atoms: C_23  and  C_24
REMARK   14  A    between atoms: C_25  and  S_26
REMARK   15  A    between atoms: S_26  and  N_29
REMARK   16  A    between atoms: N_29  and  C_30
REMARK   17  A    between atoms: C_30  and  C_31
REMARK   18  A    between atoms: C_30  and  C_32
REMARK   19  A    between atoms: C_32  and  C_33
REMARK                            x       y       z     vdW  Elec       q    Type
REMARK                         _______ _______ _______ _____ _____    ______ ____
ROOT
ATOM      1  C   UNL     1      -0.170  10.000  18.030  0.00  0.00    +0.000 A 
ATOM      2  C   UNL     1       0.734   9.151  17.394  0.00  0.00    +0.000 A 
ATOM      3  C   UNL     1       1.630   8.368  18.120  0.00  0.00    +0.000 A 
ATOM      4  C   UNL     1       1.615   8.359  19.519  0.00  0.00    +0.000 A 
ATOM      5  C   UNL     1       0.789   9.288  20.169  0.00  0.00    +0.000 A 
ATOM      6  C   UNL     1      -0.099  10.110  19.423  0.00  0.00    +0.000 A 
ENDROOT
BRANCH   1   9
ATOM      7  C   UNL     1      -2.496  10.429  17.292  0.00  0.00    +0.000 C 
ATOM      8  O   UNL     1      -2.995   9.555  17.998  0.00  0.00    +0.000 OA
ATOM      9  N   UNL     1      -1.142  10.739  17.300  0.00  0.00    +0.000 N 
ATOM     10  H   UNL     1      -0.860  11.639  16.930  0.00  0.00    +0.000 HD
BRANCH   7  11
ATOM     11  C   UNL     1      -3.390  11.240  16.334  0.00  0.00    +0.000 C 
BRANCH  11  13
ATOM     12  C   UNL     1      -3.953   9.832  14.199  0.00  0.00    +0.000 C 
ATOM     13  C   UNL     1      -3.024  10.819  14.884  0.00  0.00    +0.000 C 
ENDBRANCH  11  13
BRANCH  11  14
ATOM     14  C   UNL     1      -4.889  11.119  16.655  0.00  0.00    +0.000 C 
ATOM     15  C   UNL     1      -5.513  12.384  17.225  0.00  0.00    +0.000 C 
ENDBRANCH  11  14
ENDBRANCH   7  11
ENDBRANCH   1   9
BRANCH   5  16
ATOM     16  S   UNL     1       0.704   9.416  21.940  0.00  0.00    +0.000 S 
ATOM     17  O   UNL     1      -0.414   8.596  22.365  0.00  0.00    +0.000 OA
ATOM     18  O   UNL     1       2.012   9.262  22.536  0.00  0.00    +0.000 OA
BRANCH  16  19
ATOM     19  N   UNL     1       0.201  11.019  22.214  0.00  0.00    +0.000 NA
ATOM     20  H   UNL     1       0.872  11.655  21.775  0.00  0.00    +0.000 HD
BRANCH  19  21
ATOM     21  C   UNL     1      -1.229  11.368  22.039  0.00  0.00    +0.000 C 
ATOM     22  C   UNL     1      -1.927  11.481  23.387  0.00  0.00    +0.000 C 
BRANCH  21  23
ATOM     23  C   UNL     1      -1.371  12.670  21.223  0.00  0.00    +0.000 C 
ATOM     24  C   UNL     1      -2.563  12.731  20.276  0.00  0.00    +0.000 C 
ENDBRANCH  21  23
ENDBRANCH  19  21
ENDBRANCH  16  19
ENDBRANCH   5  16
BRANCH   4  25
ATOM     25  O   UNL     1       2.424   7.468  20.202  0.00  0.00    +0.000 OA
BRANCH  25  26
ATOM     26  C   UNL     1       2.910   6.369  19.590  0.00  0.00    +0.000 A 
ATOM     27  C   UNL     1       3.873   6.169  18.605  0.00  0.00    +0.000 A 
ATOM     28  C   UNL     1       4.636   7.165  17.806  0.00  0.00    +0.000 C 
ATOM     29  C   UNL     1       4.042   4.758  18.530  0.00  0.00    +0.000 A 
ATOM     30  N   UNL     1       3.162   4.111  19.318  0.00  0.00    +0.000 NA
ATOM     31  N   UNL     1       2.439   5.107  19.884  0.00  0.00    +0.000 N 
BRANCH  29  32
ATOM     32  C   UNL     1       5.017   3.990  17.743  0.00  0.00    +0.000 C 
ATOM     33  O   UNL     1       4.819   3.549  16.619  0.00  0.00    +0.000 OA
BRANCH  32  34
ATOM     34  O   UNL     1       6.199   3.830  18.400  0.00  0.00    +0.000 OA
ATOM     35  H   UNL     1       6.390   2.862  18.373  0.00  0.00    +0.000 HD
ENDBRANCH  32  34
ENDBRANCH  29  32
BRANCH  31  36
ATOM     36  C   UNL     1       1.280   4.738  20.677  0.00  0.00    +0.000 C 
ATOM     37  C   UNL     1       1.121   3.238  20.851  0.00  0.00    +0.000 C 
ENDBRANCH  31  36
ENDBRANCH  25  26
ENDBRANCH   4  25
TORSDOF 13
ENDMDL
MODEL 8
REMARK VINA RESULT:      -6.7      4.160      7.935
REMARK  Name = 
REMARK  19 active torsions:
REMARK  status: ('A' for Active; 'I' for Inactive)
REMARK    1  A    between atoms: C_1  and  C_2
REMARK    2  A    between atoms: C_2  and  C_3
REMARK    3  A    between atoms: C_3  and  C_4
REMARK    4  A    between atoms: C_3  and  C_6
REMARK    5  A    between atoms: C_4  and  C_5
REMARK    6  A    between atoms: N_8  and  C_9
REMARK    7  A    between atoms: C_12  and  O_13
REMARK    8  A    between atoms: O_13  and  C_14
REMARK    9  A    between atoms: C_15  and  C_16
REMARK   10  A    between atoms: C_17  and  C_18
REMARK   11  A    between atoms: C_18  and  O_20
REMARK   12  A    between atoms: N_22  and  C_23
REMARK   13  A    between atoms: C_23  and  C_24
REMARK   14  A    between atoms: C_25  and  S_26
REMARK   15  A    between atoms: S_26  and  N_29
REMARK   16  A    between atoms: N_29  and  C_30
REMARK   17  A    between atoms: C_30  and  C_31
REMARK   18  A    between atoms: C_30  and  C_32
REMARK   19  A    between atoms: C_32  and  C_33
REMARK                            x       y       z     vdW  Elec       q    Type
REMARK                         _______ _______ _______ _____ _____    ______ ____
ROOT
ATOM      1  C   UNL     1      -2.511  10.787  18.424  0.00  0.00    +0.000 A 
ATOM      2  C   UNL     1      -1.907   9.826  17.615  0.00  0.00    +0.000 A 
ATOM      3  C   UNL     1      -0.551   9.523  17.734  0.00  0.00    +0.000 A 
ATOM      4  C   UNL     1       0.243  10.130  18.713  0.00  0.00    +0.000 A 
ATOM      5  C   UNL     1      -0.323  11.176  19.457  0.00  0.00    +0.000 A 
ATOM      6  C   UNL     1      -1.698  11.505  19.308  0.00  0.00    +0.000 A 
ENDROOT
BRANCH   1   9
ATOM      7  C   UNL     1      -4.553  11.540  17.240  0.00  0.00    +0.000 C 
ATOM      8  O   UNL     1      -3.994  11.703  16.157  0.00  0.00    +0.000 OA
ATOM      9  N   UNL     1      -3.908  11.042  18.366  0.00  0.00    +0.000 N 
ATOM     10  H   UNL     1      -4.482  10.664  19.110  0.00  0.00    +0.000 HD
BRANCH   7  11
ATOM     11  C   UNL     1      -6.044  11.896  17.391  0.00  0.00    +0.000 C 
BRANCH  11  13
ATOM     12  C   UNL     1      -7.273  11.428  19.656  0.00  0.00    +0.000 C 
ATOM     13  C   UNL     1      -6.672  10.872  18.377  0.00  0.00    +0.000 C 
ENDBRANCH  11  13
BRANCH  11  14
ATOM     14  C   UNL     1      -6.279  13.363  17.789  0.00  0.00    +0.000 C 
ATOM     15  C   UNL     1      -6.773  14.248  16.655  0.00  0.00    +0.000 C 
ENDBRANCH  11  14
ENDBRANCH   7  11
ENDBRANCH   1   9
BRANCH   5  16
ATOM     16  S   UNL     1       0.585  12.063  20.701  0.00  0.00    +0.000 S 
ATOM     17  O   UNL     1       0.942  11.099  21.724  0.00  0.00    +0.000 OA
ATOM     18  O   UNL     1       1.582  12.922  20.104  0.00  0.00    +0.000 OA
BRANCH  16  19
ATOM     19  N   UNL     1      -0.584  13.063  21.430  0.00  0.00    +0.000 NA
ATOM     20  H   UNL     1      -1.363  13.187  20.780  0.00  0.00    +0.000 HD
BRANCH  19  21
ATOM     21  C   UNL     1      -0.955  12.828  22.846  0.00  0.00    +0.000 C 
ATOM     22  C   UNL     1      -1.175  14.146  23.574  0.00  0.00    +0.000 C 
BRANCH  21  23
ATOM     23  C   UNL     1      -2.202  11.924  22.933  0.00  0.00    +0.000 C 
ATOM     24  C   UNL     1      -3.332  12.436  23.818  0.00  0.00    +0.000 C 
ENDBRANCH  21  23
ENDBRANCH  19  21
ENDBRANCH  16  19
ENDBRANCH   5  16
BRANCH   4  25
ATOM     25  O   UNL     1       1.548   9.704  18.889  0.00  0.00    +0.000 OA
BRANCH  25  26
ATOM     26  C   UNL     1       1.817   8.430  19.240  0.00  0.00    +0.000 A 
ATOM     27  C   UNL     1       1.438   7.635  20.318  0.00  0.00    +0.000 A 
ATOM     28  C   UNL     1       0.657   7.988  21.533  0.00  0.00    +0.000 C 
ATOM     29  C   UNL     1       1.917   6.331  20.005  0.00  0.00    +0.000 A 
ATOM     30  N   UNL     1       2.653   6.332  18.877  0.00  0.00    +0.000 NA
ATOM     31  N   UNL     1       2.642   7.627  18.482  0.00  0.00    +0.000 N 
BRANCH  29  32
ATOM     32  C   UNL     1       1.699   5.073  20.731  0.00  0.00    +0.000 C 
ATOM     33  O   UNL     1       2.447   4.617  21.585  0.00  0.00    +0.000 OA
BRANCH  32  34
ATOM     34  O   UNL     1       0.540   4.458  20.362  0.00  0.00    +0.000 OA
ATOM     35  H   UNL     1       0.798   3.547  20.087  0.00  0.00    +0.000 HD
ENDBRANCH  32  34
ENDBRANCH  29  32
BRANCH  31  36
ATOM     36  C   UNL     1       3.492   8.004  17.366  0.00  0.00    +0.000 C 
ATOM     37  C   UNL     1       4.522   6.948  17.009  0.00  0.00    +0.000 C 
ENDBRANCH  31  36
ENDBRANCH  25  26
ENDBRANCH   4  25
TORSDOF 13
ENDMDL
MODEL 9
REMARK VINA RESULT:      -6.6      1.637      2.334
REMARK  Name = 
REMARK  19 active torsions:
REMARK  status: ('A' for Active; 'I' for Inactive)
REMARK    1  A    between atoms: C_1  and  C_2
REMARK    2  A    between atoms: C_2  and  C_3
REMARK    3  A    between atoms: C_3  and  C_4
REMARK    4  A    between atoms: C_3  and  C_6
REMARK    5  A    between atoms: C_4  and  C_5
REMARK    6  A    between atoms: N_8  and  C_9
REMARK    7  A    between atoms: C_12  and  O_13
REMARK    8  A    between atoms: O_13  and  C_14
REMARK    9  A    between atoms: C_15  and  C_16
REMARK   10  A    between atoms: C_17  and  C_18
REMARK   11  A    between atoms: C_18  and  O_20
REMARK   12  A    between atoms: N_22  and  C_23
REMARK   13  A    between atoms: C_23  and  C_24
REMARK   14  A    between atoms: C_25  and  S_26
REMARK   15  A    between atoms: S_26  and  N_29
REMARK   16  A    between atoms: N_29  and  C_30
REMARK   17  A    between atoms: C_30  and  C_31
REMARK   18  A    between atoms: C_30  and  C_32
REMARK   19  A    between atoms: C_32  and  C_33
REMARK                            x       y       z     vdW  Elec       q    Type
REMARK                         _______ _______ _______ _____ _____    ______ ____
ROOT
ATOM      1  C   UNL     1       1.925   8.673  17.936  0.00  0.00    +0.000 A 
ATOM      2  C   UNL     1       3.219   8.773  17.424  0.00  0.00    +0.000 A 
ATOM      3  C   UNL     1       4.136   7.732  17.559  0.00  0.00    +0.000 A 
ATOM      4  C   UNL     1       3.775   6.522  18.163  0.00  0.00    +0.000 A 
ATOM      5  C   UNL     1       2.517   6.450  18.779  0.00  0.00    +0.000 A 
ATOM      6  C   UNL     1       1.596   7.527  18.668  0.00  0.00    +0.000 A 
ENDROOT
BRANCH   1   9
ATOM      7  C   UNL     1       0.177  10.230  18.747  0.00  0.00    +0.000 C 
ATOM      8  O   UNL     1       0.323   9.946  19.934  0.00  0.00    +0.000 OA
ATOM      9  N   UNL     1       0.959   9.696  17.730  0.00  0.00    +0.000 N 
ATOM     10  H   UNL     1       0.981  10.185  16.843  0.00  0.00    +0.000 HD
BRANCH   7  11
ATOM     11  C   UNL     1      -0.923  11.226  18.329  0.00  0.00    +0.000 C 
BRANCH  11  13
ATOM     12  C   UNL     1      -2.620   9.709  17.035  0.00  0.00    +0.000 C 
ATOM     13  C   UNL     1      -2.271  10.453  18.311  0.00  0.00    +0.000 C 
ENDBRANCH  11  13
BRANCH  11  14
ATOM     14  C   UNL     1      -0.948  12.498  19.193  0.00  0.00    +0.000 C 
ATOM     15  C   UNL     1      -0.253  13.697  18.564  0.00  0.00    +0.000 C 
ENDBRANCH  11  14
ENDBRANCH   7  11
ENDBRANCH   1   9
BRANCH   5  16
ATOM     16  S   UNL     1       1.948   4.991  19.619  0.00  0.00    +0.000 S 
ATOM     17  O   UNL     1       1.250   5.440  20.808  0.00  0.00    +0.000 OA
ATOM     18  O   UNL     1       1.329   4.067  18.695  0.00  0.00    +0.000 OA
BRANCH  16  19
ATOM     19  N   UNL     1       3.374   4.263  20.195  0.00  0.00    +0.000 NA
ATOM     20  H   UNL     1       3.833   4.905  20.845  0.00  0.00    +0.000 HD
BRANCH  19  21
ATOM     21  C   UNL     1       3.344   2.839  20.607  0.00  0.00    +0.000 C 
ATOM     22  C   UNL     1       1.911   2.340  20.724  0.00  0.00    +0.000 C 
BRANCH  21  23
ATOM     23  C   UNL     1       4.161   1.976  19.623  0.00  0.00    +0.000 C 
ATOM     24  C   UNL     1       3.459   1.611  18.321  0.00  0.00    +0.000 C 
ENDBRANCH  21  23
ENDBRANCH  19  21
ENDBRANCH  16  19
ENDBRANCH   5  16
BRANCH   4  25
ATOM     25  O   UNL     1       4.669   5.466  18.155  0.00  0.00    +0.000 OA
BRANCH  25  26
ATOM     26  C   UNL     1       5.537   5.303  17.136  0.00  0.00    +0.000 A 
ATOM     27  C   UNL     1       5.455   4.663  15.903  0.00  0.00    +0.000 A 
ATOM     28  C   UNL     1       4.362   3.832  15.334  0.00  0.00    +0.000 C 
ATOM     29  C   UNL     1       6.657   5.010  15.223  0.00  0.00    +0.000 A 
ATOM     30  N   UNL     1       7.490   5.711  16.016  0.00  0.00    +0.000 NA
ATOM     31  N   UNL     1       6.821   5.803  17.190  0.00  0.00    +0.000 N 
BRANCH  29  32
ATOM     32  C   UNL     1       7.049   4.711  13.839  0.00  0.00    +0.000 C 
ATOM     33  O   UNL     1       7.718   5.445  13.125  0.00  0.00    +0.000 OA
BRANCH  32  34
ATOM     34  O   UNL     1       6.595   3.494  13.426  0.00  0.00    +0.000 OA
ATOM     35  H   UNL     1       6.771   2.876  14.174  0.00  0.00    +0.000 HD
ENDBRANCH  32  34
ENDBRANCH  29  32
BRANCH  31  36
ATOM     36  C   UNL     1       7.523   6.369  18.329  0.00  0.00    +0.000 C 
ATOM     37  C   UNL     1       8.007   7.788  18.095  0.00  0.00    +0.000 C 
ENDBRANCH  31  36
ENDBRANCH  25  26
ENDBRANCH   4  25
TORSDOF 13
ENDMDL
