MODEL 1
REMARK VINA RESULT:      -7.1      0.000      0.000
REMARK  Name = 
REMARK  12 active torsions:
REMARK  status: ('A' for Active; 'I' for Inactive)
REMARK    1  A    between atoms: C_1  and  C_2
REMARK    2  A    between atoms: C_2  and  N_3
REMARK    3  A    between atoms: C_4  and  C_6
REMARK    4  A    between atoms: C_9  and  N_10
REMARK    5  A    between atoms: N_17  and  C_18
REMARK    6  A    between atoms: C_23  and  C_24
REMARK    7  A    between atoms: C_24  and  C_25
REMARK    8  A    between atoms: N_28  and  C_29
REMARK    9  A    between atoms: C_30  and  O_31
REMARK   10  A    between atoms: O_31  and  C_32
REMARK   11  A    between atoms: C_32  and  C_33
REMARK   12  A    between atoms: C_33  and  O_34
REMARK                            x       y       z     vdW  Elec       q    Type
REMARK                         _______ _______ _______ _____ _____    ______ ____
ROOT
ATOM      1  N   UNL     1       1.488   8.674  19.525  0.00  0.00    +0.000 N 
ATOM      2  C   UNL     1       1.652   7.274  19.683  0.00  0.00    +0.000 A 
ATOM      3  N   UNL     1       0.659   6.566  20.216  0.00  0.00    +0.000 NA
ATOM      4  C   UNL     1       0.927   5.290  20.538  0.00  0.00    +0.000 A 
ATOM      5  C   UNL     1       2.145   4.660  20.341  0.00  0.00    +0.000 A 
ATOM      6  C   UNL     1       3.096   5.423  19.674  0.00  0.00    +0.000 A 
ATOM      7  N   UNL     1       2.833   6.733  19.373  0.00  0.00    +0.000 NA
ATOM      8  N   UNL     1       4.339   4.893  19.357  0.00  0.00    +0.000 N 
ATOM      9  C   UNL     1       4.668   3.499  19.775  0.00  0.00    +0.000 C 
ATOM     10  C   UNL     1       3.702   2.853  20.797  0.00  0.00    +0.000 C 
ATOM     11  O   UNL     1       4.053   1.870  21.450  0.00  0.00    +0.000 OA
ATOM     12  N   UNL     1       2.420   3.370  20.867  0.00  0.00    +0.000 N 
ATOM     13  C   UNL     1       1.431   2.700  21.698  0.00  0.00    +0.000 C 
ATOM     14  H   UNL     1       2.420   9.055  19.408  0.00  0.00    +0.000 HD
ENDROOT
BRANCH   1  18
ATOM     15  C   UNL     1      -0.803  11.144  22.134  0.00  0.00    +0.000 A 
ATOM     16  C   UNL     1       0.103  10.215  22.647  0.00  0.00    +0.000 A 
ATOM     17  C   UNL     1       0.840   9.410  21.770  0.00  0.00    +0.000 A 
ATOM     18  C   UNL     1       0.677   9.487  20.376  0.00  0.00    +0.000 A 
ATOM     19  C   UNL     1      -0.203  10.475  19.867  0.00  0.00    +0.000 A 
ATOM     20  C   UNL     1      -0.948  11.276  20.755  0.00  0.00    +0.000 A 
BRANCH  15  22
ATOM     21  N   UNL     1      -2.848  11.666  23.372  0.00  0.00    +0.000 N 
ATOM     22  C   UNL     1      -1.541  12.025  23.085  0.00  0.00    +0.000 C 
ATOM     23  O   UNL     1      -0.990  13.003  23.556  0.00  0.00    +0.000 OA
ATOM     24  H   UNL     1      -3.224  10.788  23.044  0.00  0.00    +0.000 HD
BRANCH  21  26
ATOM     25  C   UNL     1      -4.735  13.249  23.543  0.00  0.00    +0.000 C 
ATOM     26  C   UNL     1      -3.657  12.465  24.274  0.00  0.00    +0.000 C 
ENDBRANCH  21  26
ENDBRANCH  15  22
BRANCH  19  27
ATOM     27  O   UNL     1      -0.334  10.569  18.504  0.00  0.00    +0.000 OA
BRANCH  27  28
ATOM     28  C   UNL     1      -1.614  10.216  17.952  0.00  0.00    +0.000 C 
BRANCH  28  29
ATOM     29  C   UNL     1      -2.267  11.499  17.436  0.00  0.00    +0.000 C 
BRANCH  29  30
ATOM     30  O   UNL     1      -2.289  11.534  16.011  0.00  0.00    +0.000 OA
ATOM     31  H   UNL     1      -3.228  11.591  15.750  0.00  0.00    +0.000 HD
ENDBRANCH  29  30
ENDBRANCH  28  29
ENDBRANCH  27  28
ENDBRANCH  19  27
ENDBRANCH   1  18
BRANCH   8  32
ATOM     32  C   UNL     1       5.365   5.723  18.687  0.00  0.00    +0.000 C 
ATOM     33  C   UNL     1       6.784   5.523  19.241  0.00  0.00    +0.000 C 
ATOM     34  C   UNL     1       7.691   6.057  18.142  0.00  0.00    +0.000 C 
ATOM     35  C   UNL     1       6.965   5.774  16.831  0.00  0.00    +0.000 C 
ATOM     36  C   UNL     1       5.509   5.463  17.179  0.00  0.00    +0.000 C 
ENDBRANCH   8  32
BRANCH   9  37
ATOM     37  C   UNL     1       4.823   2.534  18.579  0.00  0.00    +0.000 C 
ATOM     38  C   UNL     1       3.549   2.125  17.851  0.00  0.00    +0.000 C 
ENDBRANCH   9  37
TORSDOF 9
ENDMDL
MODEL 2
REMARK VINA RESULT:      -7.0      3.059     10.439
REMARK  Name = 
REMARK  12 active torsions:
REMARK  status: ('A' for Active; 'I' for Inactive)
REMARK    1  A    between atoms: C_1  and  C_2
REMARK    2  A    between atoms: C_2  and  N_3
REMARK    3  A    between atoms: C_4  and  C_6
REMARK    4  A    between atoms: C_9  and  N_10
REMARK    5  A    between atoms: N_17  and  C_18
REMARK    6  A    between atoms: C_23  and  C_24
REMARK    7  A    between atoms: C_24  and  C_25
REMARK    8  A    between atoms: N_28  and  C_29
REMARK    9  A    between atoms: C_30  and  O_31
REMARK   10  A    between atoms: O_31  and  C_32
REMARK   11  A    between atoms: C_32  and  C_33
REMARK   12  A    between atoms: C_33  and  O_34
REMARK                            x       y       z     vdW  Elec       q    Type
REMARK                         _______ _______ _______ _____ _____    ______ ____
ROOT
ATOM      1  N   UNL     1      -0.238  10.264  19.348  0.00  0.00    +0.000 N 
ATOM      2  C   UNL     1       0.032  11.569  19.832  0.00  0.00    +0.000 A 
ATOM      3  N   UNL     1       1.188  12.146  19.515  0.00  0.00    +0.000 NA
ATOM      4  C   UNL     1       1.494  13.286  20.156  0.00  0.00    +0.000 A 
ATOM      5  C   UNL     1       0.691  13.908  21.099  0.00  0.00    +0.000 A 
ATOM      6  C   UNL     1      -0.550  13.314  21.292  0.00  0.00    +0.000 A 
ATOM      7  N   UNL     1      -0.849  12.135  20.661  0.00  0.00    +0.000 NA
ATOM      8  N   UNL     1      -1.477  13.868  22.163  0.00  0.00    +0.000 N 
ATOM      9  C   UNL     1      -1.117  15.096  22.930  0.00  0.00    +0.000 C 
ATOM     10  C   UNL     1       0.380  15.486  22.918  0.00  0.00    +0.000 C 
ATOM     11  O   UNL     1       0.830  16.256  23.768  0.00  0.00    +0.000 OA
ATOM     12  N   UNL     1       1.149  15.009  21.870  0.00  0.00    +0.000 N 
ATOM     13  C   UNL     1       2.521  15.472  21.729  0.00  0.00    +0.000 C 
ATOM     14  H   UNL     1      -0.984   9.896  19.929  0.00  0.00    +0.000 HD
ENDROOT
BRANCH   1  18
ATOM     15  C   UNL     1       2.854   7.454  18.514  0.00  0.00    +0.000 A 
ATOM     16  C   UNL     1       2.479   8.403  17.562  0.00  0.00    +0.000 A 
ATOM     17  C   UNL     1       1.456   9.311  17.857  0.00  0.00    +0.000 A 
ATOM     18  C   UNL     1       0.768   9.284  19.082  0.00  0.00    +0.000 A 
ATOM     19  C   UNL     1       1.199   8.354  20.062  0.00  0.00    +0.000 A 
ATOM     20  C   UNL     1       2.223   7.436  19.755  0.00  0.00    +0.000 A 
BRANCH  15  22
ATOM     21  N   UNL     1       4.725   6.823  17.069  0.00  0.00    +0.000 N 
ATOM     22  C   UNL     1       3.980   6.527  18.197  0.00  0.00    +0.000 C 
ATOM     23  O   UNL     1       4.193   5.567  18.915  0.00  0.00    +0.000 OA
ATOM     24  H   UNL     1       4.580   7.689  16.569  0.00  0.00    +0.000 HD
BRANCH  21  26
ATOM     25  C   UNL     1       5.441   4.994  15.572  0.00  0.00    +0.000 C 
ATOM     26  C   UNL     1       5.832   5.976  16.665  0.00  0.00    +0.000 C 
ENDBRANCH  21  26
ENDBRANCH  15  22
BRANCH  19  27
ATOM     27  O   UNL     1       0.545   8.353  21.268  0.00  0.00    +0.000 OA
BRANCH  27  28
ATOM     28  C   UNL     1       1.117   9.157  22.314  0.00  0.00    +0.000 C 
BRANCH  28  29
ATOM     29  C   UNL     1       0.021   9.426  23.346  0.00  0.00    +0.000 C 
BRANCH  29  30
ATOM     30  O   UNL     1      -0.359  10.800  23.354  0.00  0.00    +0.000 OA
ATOM     31  H   UNL     1       0.410  11.298  23.692  0.00  0.00    +0.000 HD
ENDBRANCH  29  30
ENDBRANCH  28  29
ENDBRANCH  27  28
ENDBRANCH  19  27
ENDBRANCH   1  18
BRANCH   8  32
ATOM     32  C   UNL     1      -2.781  13.208  22.399  0.00  0.00    +0.000 C 
ATOM     33  C   UNL     1      -3.281  13.323  23.847  0.00  0.00    +0.000 C 
ATOM     34  C   UNL     1      -4.773  13.036  23.748  0.00  0.00    +0.000 C 
ATOM     35  C   UNL     1      -5.207  13.557  22.383  0.00  0.00    +0.000 C 
ATOM     36  C   UNL     1      -3.939  13.763  21.554  0.00  0.00    +0.000 C 
ENDBRANCH   8  32
BRANCH   9  37
ATOM     37  C   UNL     1      -1.942  16.332  22.508  0.00  0.00    +0.000 C 
ATOM     38  C   UNL     1      -1.809  16.791  21.062  0.00  0.00    +0.000 C 
ENDBRANCH   9  37
TORSDOF 9
ENDMDL
MODEL 3
REMARK VINA RESULT:      -7.0      2.918     10.306
REMARK  Name = 
REMARK  12 active torsions:
REMARK  status: ('A' for Active; 'I' for Inactive)
REMARK    1  A    between atoms: C_1  and  C_2
REMARK    2  A    between atoms: C_2  and  N_3
REMARK    3  A    between atoms: C_4  and  C_6
REMARK    4  A    between atoms: C_9  and  N_10
REMARK    5  A    between atoms: N_17  and  C_18
REMARK    6  A    between atoms: C_23  and  C_24
REMARK    7  A    between atoms: C_24  and  C_25
REMARK    8  A    between atoms: N_28  and  C_29
REMARK    9  A    between atoms: C_30  and  O_31
REMARK   10  A    between atoms: O_31  and  C_32
REMARK   11  A    between atoms: C_32  and  C_33
REMARK   12  A    between atoms: C_33  and  O_34
REMARK                            x       y       z     vdW  Elec       q    Type
REMARK                         _______ _______ _______ _____ _____    ______ ____
ROOT
ATOM      1  N   UNL     1      -0.109  10.117  19.253  0.00  0.00    +0.000 N 
ATOM      2  C   UNL     1       0.166  11.422  19.736  0.00  0.00    +0.000 A 
ATOM      3  N   UNL     1       1.335  11.984  19.442  0.00  0.00    +0.000 NA
ATOM      4  C   UNL     1       1.640  13.124  20.084  0.00  0.00    +0.000 A 
ATOM      5  C   UNL     1       0.825  13.759  21.005  0.00  0.00    +0.000 A 
ATOM      6  C   UNL     1      -0.428  13.181  21.174  0.00  0.00    +0.000 A 
ATOM      7  N   UNL     1      -0.726  12.003  20.543  0.00  0.00    +0.000 NA
ATOM      8  N   UNL     1      -1.367  13.751  22.022  0.00  0.00    +0.000 N 
ATOM      9  C   UNL     1      -1.009  14.978  22.790  0.00  0.00    +0.000 C 
ATOM     10  C   UNL     1       0.493  15.351  22.809  0.00  0.00    +0.000 C 
ATOM     11  O   UNL     1       0.933  16.120  23.665  0.00  0.00    +0.000 OA
ATOM     12  N   UNL     1       1.278  14.860  21.780  0.00  0.00    +0.000 N 
ATOM     13  C   UNL     1       2.658  15.306  21.667  0.00  0.00    +0.000 C 
ATOM     14  H   UNL     1      -0.871   9.761  19.819  0.00  0.00    +0.000 HD
ENDROOT
BRANCH   1  18
ATOM     15  C   UNL     1       2.968   7.268  18.499  0.00  0.00    +0.000 A 
ATOM     16  C   UNL     1       2.613   8.205  17.529  0.00  0.00    +0.000 A 
ATOM     17  C   UNL     1       1.595   9.127  17.797  0.00  0.00    +0.000 A 
ATOM     18  C   UNL     1       0.891   9.124  19.013  0.00  0.00    +0.000 A 
ATOM     19  C   UNL     1       1.301   8.205  20.012  0.00  0.00    +0.000 A 
ATOM     20  C   UNL     1       2.320   7.274  19.732  0.00  0.00    +0.000 A 
BRANCH  15  22
ATOM     21  N   UNL     1       4.743   5.789  19.305  0.00  0.00    +0.000 N 
ATOM     22  C   UNL     1       4.088   6.326  18.210  0.00  0.00    +0.000 C 
ATOM     23  O   UNL     1       4.385   6.075  17.056  0.00  0.00    +0.000 OA
ATOM     24  H   UNL     1       4.391   5.940  20.240  0.00  0.00    +0.000 HD
BRANCH  21  26
ATOM     25  C   UNL     1       7.201   5.581  19.187  0.00  0.00    +0.000 C 
ATOM     26  C   UNL     1       5.856   4.874  19.132  0.00  0.00    +0.000 C 
ENDBRANCH  21  26
ENDBRANCH  15  22
BRANCH  19  27
ATOM     27  O   UNL     1       0.632   8.228  21.211  0.00  0.00    +0.000 OA
BRANCH  27  28
ATOM     28  C   UNL     1       1.113   9.152  22.202  0.00  0.00    +0.000 C 
BRANCH  28  29
ATOM     29  C   UNL     1      -0.017   9.387  23.205  0.00  0.00    +0.000 C 
BRANCH  29  30
ATOM     30  O   UNL     1      -0.265  10.779  23.391  0.00  0.00    +0.000 OA
ATOM     31  H   UNL     1      -0.947  11.028  22.740  0.00  0.00    +0.000 HD
ENDBRANCH  29  30
ENDBRANCH  28  29
ENDBRANCH  27  28
ENDBRANCH  19  27
ENDBRANCH   1  18
BRANCH   8  32
ATOM     32  C   UNL     1      -2.683  13.107  22.233  0.00  0.00    +0.000 C 
ATOM     33  C   UNL     1      -3.229  13.264  23.660  0.00  0.00    +0.000 C 
ATOM     34  C   UNL     1      -4.718  12.985  23.521  0.00  0.00    +0.000 C 
ATOM     35  C   UNL     1      -5.105  13.473  22.128  0.00  0.00    +0.000 C 
ATOM     36  C   UNL     1      -3.808  13.648  21.336  0.00  0.00    +0.000 C 
ENDBRANCH   8  32
BRANCH   9  37
ATOM     37  C   UNL     1      -1.810  16.221  22.345  0.00  0.00    +0.000 C 
ATOM     38  C   UNL     1      -1.660  16.656  20.892  0.00  0.00    +0.000 C 
ENDBRANCH   9  37
TORSDOF 9
ENDMDL
MODEL 4
REMARK VINA RESULT:      -7.0      4.626     10.373
REMARK  Name = 
REMARK  12 active torsions:
REMARK  status: ('A' for Active; 'I' for Inactive)
REMARK    1  A    between atoms: C_1  and  C_2
REMARK    2  A    between atoms: C_2  and  N_3
REMARK    3  A    between atoms: C_4  and  C_6
REMARK    4  A    between atoms: C_9  and  N_10
REMARK    5  A    between atoms: N_17  and  C_18
REMARK    6  A    between atoms: C_23  and  C_24
REMARK    7  A    between atoms: C_24  and  C_25
REMARK    8  A    between atoms: N_28  and  C_29
REMARK    9  A    between atoms: C_30  and  O_31
REMARK   10  A    between atoms: O_31  and  C_32
REMARK   11  A    between atoms: C_32  and  C_33
REMARK   12  A    between atoms: C_33  and  O_34
REMARK                            x       y       z     vdW  Elec       q    Type
REMARK                         _______ _______ _______ _____ _____    ______ ____
ROOT
ATOM      1  N   UNL     1       0.491  11.267  18.533  0.00  0.00    +0.000 N 
ATOM      2  C   UNL     1       1.247  12.463  18.446  0.00  0.00    +0.000 A 
ATOM      3  N   UNL     1       2.496  12.402  17.988  0.00  0.00    +0.000 NA
ATOM      4  C   UNL     1       3.243  13.511  18.114  0.00  0.00    +0.000 A 
ATOM      5  C   UNL     1       2.807  14.706  18.661  0.00  0.00    +0.000 A 
ATOM      6  C   UNL     1       1.461  14.732  19.008  0.00  0.00    +0.000 A 
ATOM      7  N   UNL     1       0.707  13.593  18.908  0.00  0.00    +0.000 NA
ATOM      8  N   UNL     1       0.878  15.887  19.511  0.00  0.00    +0.000 N 
ATOM      9  C   UNL     1       1.719  17.102  19.717  0.00  0.00    +0.000 C 
ATOM     10  C   UNL     1       3.249  16.886  19.635  0.00  0.00    +0.000 C 
ATOM     11  O   UNL     1       4.022  17.718  20.113  0.00  0.00    +0.000 OA
ATOM     12  N   UNL     1       3.695  15.781  18.930  0.00  0.00    +0.000 N 
ATOM     13  C   UNL     1       5.121  15.620  18.693  0.00  0.00    +0.000 C 
ATOM     14  H   UNL     1      -0.275  11.464  19.168  0.00  0.00    +0.000 HD
ENDROOT
BRANCH   1  18
ATOM     15  C   UNL     1       2.316   7.470  19.172  0.00  0.00    +0.000 A 
ATOM     16  C   UNL     1       2.479   8.143  17.960  0.00  0.00    +0.000 A 
ATOM     17  C   UNL     1       1.864   9.386  17.772  0.00  0.00    +0.000 A 
ATOM     18  C   UNL     1       1.058   9.975  18.761  0.00  0.00    +0.000 A 
ATOM     19  C   UNL     1       0.949   9.308  20.008  0.00  0.00    +0.000 A 
ATOM     20  C   UNL     1       1.563   8.053  20.188  0.00  0.00    +0.000 A 
BRANCH  15  22
ATOM     21  N   UNL     1       2.276   5.143  19.929  0.00  0.00    +0.000 N 
ATOM     22  C   UNL     1       3.019   6.169  19.368  0.00  0.00    +0.000 C 
ATOM     23  O   UNL     1       4.188   6.059  19.047  0.00  0.00    +0.000 OA
ATOM     24  H   UNL     1       1.283   5.249  20.076  0.00  0.00    +0.000 HD
BRANCH  21  26
ATOM     25  C   UNL     1       2.360   3.206  21.457  0.00  0.00    +0.000 C 
ATOM     26  C   UNL     1       2.872   3.843  20.175  0.00  0.00    +0.000 C 
ENDBRANCH  21  26
ENDBRANCH  15  22
BRANCH  19  27
ATOM     27  O   UNL     1       0.187   9.902  20.983  0.00  0.00    +0.000 OA
BRANCH  27  28
ATOM     28  C   UNL     1      -0.387   9.033  21.974  0.00  0.00    +0.000 C 
BRANCH  28  29
ATOM     29  C   UNL     1      -0.193   9.694  23.339  0.00  0.00    +0.000 C 
BRANCH  29  30
ATOM     30  O   UNL     1      -0.510  11.084  23.293  0.00  0.00    +0.000 OA
ATOM     31  H   UNL     1      -1.185  11.191  22.596  0.00  0.00    +0.000 HD
ENDBRANCH  29  30
ENDBRANCH  28  29
ENDBRANCH  27  28
ENDBRANCH  19  27
ENDBRANCH   1  18
BRANCH   8  32
ATOM     32  C   UNL     1      -0.544  15.898  19.920  0.00  0.00    +0.000 C 
ATOM     33  C   UNL     1      -0.765  16.305  21.385  0.00  0.00    +0.000 C 
ATOM     34  C   UNL     1      -2.230  16.714  21.440  0.00  0.00    +0.000 C 
ATOM     35  C   UNL     1      -2.551  17.299  20.069  0.00  0.00    +0.000 C 
ATOM     36  C   UNL     1      -1.431  16.867  19.122  0.00  0.00    +0.000 C 
ENDBRANCH   8  32
BRANCH   9  37
ATOM     37  C   UNL     1       1.343  18.262  18.770  0.00  0.00    +0.000 C 
ATOM     38  C   UNL     1       1.400  17.979  17.274  0.00  0.00    +0.000 C 
ENDBRANCH   9  37
TORSDOF 9
ENDMDL
MODEL 5
REMARK VINA RESULT:      -7.0      4.650     10.564
REMARK  Name = 
REMARK  12 active torsions:
REMARK  status: ('A' for Active; 'I' for Inactive)
REMARK    1  A    between atoms: C_1  and  C_2
REMARK    2  A    between atoms: C_2  and  N_3
REMARK    3  A    between atoms: C_4  and  C_6
REMARK    4  A    between atoms: C_9  and  N_10
REMARK    5  A    between atoms: N_17  and  C_18
REMARK    6  A    between atoms: C_23  and  C_24
REMARK    7  A    between atoms: C_24  and  C_25
REMARK    8  A    between atoms: N_28  and  C_29
REMARK    9  A    between atoms: C_30  and  O_31
REMARK   10  A    between atoms: O_31  and  C_32
REMARK   11  A    between atoms: C_32  and  C_33
REMARK   12  A    between atoms: C_33  and  O_34
REMARK                            x       y       z     vdW  Elec       q    Type
REMARK                         _______ _______ _______ _____ _____    ______ ____
ROOT
ATOM      1  N   UNL     1       0.350  11.398  18.626  0.00  0.00    +0.000 N 
ATOM      2  C   UNL     1       1.110  12.589  18.513  0.00  0.00    +0.000 A 
ATOM      3  N   UNL     1       2.352  12.518  18.040  0.00  0.00    +0.000 NA
ATOM      4  C   UNL     1       3.106  13.625  18.141  0.00  0.00    +0.000 A 
ATOM      5  C   UNL     1       2.681  14.829  18.678  0.00  0.00    +0.000 A 
ATOM      6  C   UNL     1       1.340  14.866  19.042  0.00  0.00    +0.000 A 
ATOM      7  N   UNL     1       0.581  13.728  18.967  0.00  0.00    +0.000 NA
ATOM      8  N   UNL     1       0.769  16.029  19.537  0.00  0.00    +0.000 N 
ATOM      9  C   UNL     1       1.618  17.243  19.716  0.00  0.00    +0.000 C 
ATOM     10  C   UNL     1       3.146  17.020  19.617  0.00  0.00    +0.000 C 
ATOM     11  O   UNL     1       3.928  17.855  20.073  0.00  0.00    +0.000 OA
ATOM     12  N   UNL     1       3.578  15.904  18.920  0.00  0.00    +0.000 N 
ATOM     13  C   UNL     1       5.000  15.733  18.667  0.00  0.00    +0.000 C 
ATOM     14  H   UNL     1      -0.406  11.607  19.268  0.00  0.00    +0.000 HD
ENDROOT
BRANCH   1  18
ATOM     15  C   UNL     1       2.158   7.593  19.261  0.00  0.00    +0.000 A 
ATOM     16  C   UNL     1       2.086   8.141  17.981  0.00  0.00    +0.000 A 
ATOM     17  C   UNL     1       1.482   9.390  17.796  0.00  0.00    +0.000 A 
ATOM     18  C   UNL     1       0.915  10.107  18.864  0.00  0.00    +0.000 A 
ATOM     19  C   UNL     1       1.048   9.565  20.168  0.00  0.00    +0.000 A 
ATOM     20  C   UNL     1       1.649   8.304  20.345  0.00  0.00    +0.000 A 
BRANCH  15  22
ATOM     21  N   UNL     1       3.907   6.019  18.587  0.00  0.00    +0.000 N 
ATOM     22  C   UNL     1       2.850   6.283  19.442  0.00  0.00    +0.000 C 
ATOM     23  O   UNL     1       2.467   5.511  20.302  0.00  0.00    +0.000 OA
ATOM     24  H   UNL     1       4.255   6.734  17.965  0.00  0.00    +0.000 HD
BRANCH  21  26
ATOM     25  C   UNL     1       4.446   3.904  17.434  0.00  0.00    +0.000 C 
ATOM     26  C   UNL     1       4.636   4.767  18.671  0.00  0.00    +0.000 C 
ENDBRANCH  21  26
ENDBRANCH  15  22
BRANCH  19  27
ATOM     27  O   UNL     1       0.521  10.285  21.212  0.00  0.00    +0.000 OA
BRANCH  27  28
ATOM     28  C   UNL     1       0.259   9.562  22.427  0.00  0.00    +0.000 C 
BRANCH  28  29
ATOM     29  C   UNL     1      -0.876  10.280  23.158  0.00  0.00    +0.000 C 
BRANCH  29  30
ATOM     30  O   UNL     1      -0.663  11.690  23.189  0.00  0.00    +0.000 OA
ATOM     31  H   UNL     1      -0.285  11.932  22.323  0.00  0.00    +0.000 HD
ENDBRANCH  29  30
ENDBRANCH  28  29
ENDBRANCH  27  28
ENDBRANCH  19  27
ENDBRANCH   1  18
BRANCH   8  32
ATOM     32  C   UNL     1      -0.648  16.052  19.965  0.00  0.00    +0.000 C 
ATOM     33  C   UNL     1      -0.862  16.631  21.372  0.00  0.00    +0.000 C 
ATOM     34  C   UNL     1      -2.337  17.003  21.400  0.00  0.00    +0.000 C 
ATOM     35  C   UNL     1      -2.692  17.405  19.973  0.00  0.00    +0.000 C 
ATOM     36  C   UNL     1      -1.572  16.890  19.067  0.00  0.00    +0.000 C 
ENDBRANCH   8  32
BRANCH   9  37
ATOM     37  C   UNL     1       1.234  18.392  18.759  0.00  0.00    +0.000 C 
ATOM     38  C   UNL     1       1.301  18.099  17.265  0.00  0.00    +0.000 C 
ENDBRANCH   9  37
TORSDOF 9
ENDMDL
MODEL 6
REMARK VINA RESULT:      -6.9      4.378     10.308
REMARK  Name = 
REMARK  12 active torsions:
REMARK  status: ('A' for Active; 'I' for Inactive)
REMARK    1  A    between atoms: C_1  and  C_2
REMARK    2  A    between atoms: C_2  and  N_3
REMARK    3  A    between atoms: C_4  and  C_6
REMARK    4  A    between atoms: C_9  and  N_10
REMARK    5  A    between atoms: N_17  and  C_18
REMARK    6  A    between atoms: C_23  and  C_24
REMARK    7  A    between atoms: C_24  and  C_25
REMARK    8  A    between atoms: N_28  and  C_29
REMARK    9  A    between atoms: C_30  and  O_31
REMARK   10  A    between atoms: O_31  and  C_32
REMARK   11  A    between atoms: C_32  and  C_33
REMARK   12  A    between atoms: C_33  and  O_34
REMARK                            x       y       z     vdW  Elec       q    Type
REMARK                         _______ _______ _______ _____ _____    ______ ____
ROOT
ATOM      1  N   UNL     1       0.590  10.843  18.970  0.00  0.00    +0.000 N 
ATOM      2  C   UNL     1       1.311  12.051  18.794  0.00  0.00    +0.000 A 
ATOM      3  N   UNL     1       2.419  12.037  18.058  0.00  0.00    +0.000 NA
ATOM      4  C   UNL     1       3.180  13.144  18.085  0.00  0.00    +0.000 A 
ATOM      5  C   UNL     1       2.887  14.293  18.801  0.00  0.00    +0.000 A 
ATOM      6  C   UNL     1       1.657  14.279  19.449  0.00  0.00    +0.000 A 
ATOM      7  N   UNL     1       0.897  13.140  19.446  0.00  0.00    +0.000 NA
ATOM      8  N   UNL     1       1.211  15.389  20.152  0.00  0.00    +0.000 N 
ATOM      9  C   UNL     1       2.083  16.596  20.243  0.00  0.00    +0.000 C 
ATOM     10  C   UNL     1       3.552  16.405  19.796  0.00  0.00    +0.000 C 
ATOM     11  O   UNL     1       4.417  17.212  20.140  0.00  0.00    +0.000 OA
ATOM     12  N   UNL     1       3.818  15.357  18.932  0.00  0.00    +0.000 N 
ATOM     13  C   UNL     1       5.150  15.229  18.362  0.00  0.00    +0.000 C 
ATOM     14  H   UNL     1      -0.008  10.986  19.776  0.00  0.00    +0.000 HD
ENDROOT
BRANCH   1  18
ATOM     15  C   UNL     1       2.493   7.032  18.897  0.00  0.00    +0.000 A 
ATOM     16  C   UNL     1       2.323   7.765  17.722  0.00  0.00    +0.000 A 
ATOM     17  C   UNL     1       1.690   9.011  17.770  0.00  0.00    +0.000 A 
ATOM     18  C   UNL     1       1.188   9.545  18.970  0.00  0.00    +0.000 A 
ATOM     19  C   UNL     1       1.420   8.817  20.165  0.00  0.00    +0.000 A 
ATOM     20  C   UNL     1       2.051   7.558  20.108  0.00  0.00    +0.000 A 
BRANCH  15  22
ATOM     21  N   UNL     1       2.800   4.841  17.849  0.00  0.00    +0.000 N 
ATOM     22  C   UNL     1       3.215   5.727  18.830  0.00  0.00    +0.000 C 
ATOM     23  O   UNL     1       4.111   5.490  19.620  0.00  0.00    +0.000 OA
ATOM     24  H   UNL     1       2.130   5.126  17.150  0.00  0.00    +0.000 HD
BRANCH  21  26
ATOM     25  C   UNL     1       2.423   2.402  17.794  0.00  0.00    +0.000 C 
ATOM     26  C   UNL     1       3.427   3.540  17.710  0.00  0.00    +0.000 C 
ENDBRANCH  21  26
ENDBRANCH  15  22
BRANCH  19  27
ATOM     27  O   UNL     1       0.958   9.357  21.339  0.00  0.00    +0.000 OA
BRANCH  27  28
ATOM     28  C   UNL     1      -0.329   8.907  21.794  0.00  0.00    +0.000 C 
BRANCH  28  29
ATOM     29  C   UNL     1      -0.665   9.677  23.072  0.00  0.00    +0.000 C 
BRANCH  29  30
ATOM     30  O   UNL     1       0.439   9.694  23.974  0.00  0.00    +0.000 OA
ATOM     31  H   UNL     1       0.078   9.491  24.857  0.00  0.00    +0.000 HD
ENDBRANCH  29  30
ENDBRANCH  28  29
ENDBRANCH  27  28
ENDBRANCH  19  27
ENDBRANCH   1  18
BRANCH   8  32
ATOM     32  C   UNL     1      -0.078  15.354  20.878  0.00  0.00    +0.000 C 
ATOM     33  C   UNL     1      -0.081  16.176  22.176  0.00  0.00    +0.000 C 
ATOM     34  C   UNL     1      -1.558  16.398  22.472  0.00  0.00    +0.000 C 
ATOM     35  C   UNL     1      -2.247  16.472  21.114  0.00  0.00    +0.000 C 
ATOM     36  C   UNL     1      -1.273  15.902  20.082  0.00  0.00    +0.000 C 
ENDBRANCH   8  32
BRANCH   9  37
ATOM     37  C   UNL     1       1.503  17.815  19.492  0.00  0.00    +0.000 C 
ATOM     38  C   UNL     1       1.293  17.665  17.990  0.00  0.00    +0.000 C 
ENDBRANCH   9  37
TORSDOF 9
ENDMDL
MODEL 7
REMARK VINA RESULT:      -6.9      3.835     10.160
REMARK  Name = 
REMARK  12 active torsions:
REMARK  status: ('A' for Active; 'I' for Inactive)
REMARK    1  A    between atoms: C_1  and  C_2
REMARK    2  A    between atoms: C_2  and  N_3
REMARK    3  A    between atoms: C_4  and  C_6
REMARK    4  A    between atoms: C_9  and  N_10
REMARK    5  A    between atoms: N_17  and  C_18
REMARK    6  A    between atoms: C_23  and  C_24
REMARK    7  A    between atoms: C_24  and  C_25
REMARK    8  A    between atoms: N_28  and  C_29
REMARK    9  A    between atoms: C_30  and  O_31
REMARK   10  A    between atoms: O_31  and  C_32
REMARK   11  A    between atoms: C_32  and  C_33
REMARK   12  A    between atoms: C_33  and  O_34
REMARK                            x       y       z     vdW  Elec       q    Type
REMARK                         _______ _______ _______ _____ _____    ______ ____
ROOT
ATOM      1  N   UNL     1       0.619  10.128  19.241  0.00  0.00    +0.000 N 
ATOM      2  C   UNL     1       1.135  11.428  19.011  0.00  0.00    +0.000 A 
ATOM      3  N   UNL     1       2.127  11.581  18.137  0.00  0.00    +0.000 NA
ATOM      4  C   UNL     1       2.723  12.784  18.100  0.00  0.00    +0.000 A 
ATOM      5  C   UNL     1       2.371  13.870  18.883  0.00  0.00    +0.000 A 
ATOM      6  C   UNL     1       1.253  13.674  19.685  0.00  0.00    +0.000 A 
ATOM      7  N   UNL     1       0.664  12.439  19.746  0.00  0.00    +0.000 NA
ATOM      8  N   UNL     1       0.754  14.700  20.475  0.00  0.00    +0.000 N 
ATOM      9  C   UNL     1       1.454  16.018  20.490  0.00  0.00    +0.000 C 
ATOM     10  C   UNL     1       2.862  16.043  19.849  0.00  0.00    +0.000 C 
ATOM     11  O   UNL     1       3.645  16.960  20.103  0.00  0.00    +0.000 OA
ATOM     12  N   UNL     1       3.154  15.055  18.925  0.00  0.00    +0.000 N 
ATOM     13  C   UNL     1       4.403  15.125  18.183  0.00  0.00    +0.000 C 
ATOM     14  H   UNL     1       0.119  10.175  20.122  0.00  0.00    +0.000 HD
ENDROOT
BRANCH   1  18
ATOM     15  C   UNL     1       3.029   6.636  18.856  0.00  0.00    +0.000 A 
ATOM     16  C   UNL     1       2.997   7.593  17.842  0.00  0.00    +0.000 A 
ATOM     17  C   UNL     1       2.193   8.729  17.988  0.00  0.00    +0.000 A 
ATOM     18  C   UNL     1       1.387   8.928  19.122  0.00  0.00    +0.000 A 
ATOM     19  C   UNL     1       1.474   7.977  20.170  0.00  0.00    +0.000 A 
ATOM     20  C   UNL     1       2.278   6.831  20.013  0.00  0.00    +0.000 A 
BRANCH  15  22
ATOM     21  N   UNL     1       3.418   4.231  19.088  0.00  0.00    +0.000 N 
ATOM     22  C   UNL     1       3.931   5.457  18.700  0.00  0.00    +0.000 C 
ATOM     23  O   UNL     1       5.055   5.609  18.258  0.00  0.00    +0.000 OA
ATOM     24  H   UNL     1       2.445   4.138  19.345  0.00  0.00    +0.000 HD
BRANCH  21  26
ATOM     25  C   UNL     1       3.493   1.905  18.262  0.00  0.00    +0.000 C 
ATOM     26  C   UNL     1       4.219   3.025  18.990  0.00  0.00    +0.000 C 
ENDBRANCH  21  26
ENDBRANCH  15  22
BRANCH  19  27
ATOM     27  O   UNL     1       0.709   8.192  21.290  0.00  0.00    +0.000 OA
BRANCH  27  28
ATOM     28  C   UNL     1       1.262   9.062  22.292  0.00  0.00    +0.000 C 
BRANCH  28  29
ATOM     29  C   UNL     1       0.107   9.850  22.911  0.00  0.00    +0.000 C 
BRANCH  29  30
ATOM     30  O   UNL     1       0.002  11.152  22.339  0.00  0.00    +0.000 OA
ATOM     31  H   UNL     1      -0.916  11.239  22.017  0.00  0.00    +0.000 HD
ENDBRANCH  29  30
ENDBRANCH  28  29
ENDBRANCH  27  28
ENDBRANCH  19  27
ENDBRANCH   1  18
BRANCH   8  32
ATOM     32  C   UNL     1      -0.409  14.474  21.361  0.00  0.00    +0.000 C 
ATOM     33  C   UNL     1      -0.307  15.192  22.715  0.00  0.00    +0.000 C 
ATOM     34  C   UNL     1      -1.741  15.232  23.224  0.00  0.00    +0.000 C 
ATOM     35  C   UNL     1      -2.620  15.332  21.983  0.00  0.00    +0.000 C 
ATOM     36  C   UNL     1      -1.753  14.947  20.783  0.00  0.00    +0.000 C 
ENDBRANCH   8  32
BRANCH   9  37
ATOM     37  C   UNL     1       0.615  17.151  19.859  0.00  0.00    +0.000 C 
ATOM     38  C   UNL     1       0.201  16.976  18.404  0.00  0.00    +0.000 C 
ENDBRANCH   9  37
TORSDOF 9
ENDMDL
MODEL 8
REMARK VINA RESULT:      -6.9      3.610     10.221
REMARK  Name = 
REMARK  12 active torsions:
REMARK  status: ('A' for Active; 'I' for Inactive)
REMARK    1  A    between atoms: C_1  and  C_2
REMARK    2  A    between atoms: C_2  and  N_3
REMARK    3  A    between atoms: C_4  and  C_6
REMARK    4  A    between atoms: C_9  and  N_10
REMARK    5  A    between atoms: N_17  and  C_18
REMARK    6  A    between atoms: C_23  and  C_24
REMARK    7  A    between atoms: C_24  and  C_25
REMARK    8  A    between atoms: N_28  and  C_29
REMARK    9  A    between atoms: C_30  and  O_31
REMARK   10  A    between atoms: O_31  and  C_32
REMARK   11  A    between atoms: C_32  and  C_33
REMARK   12  A    between atoms: C_33  and  O_34
REMARK                            x       y       z     vdW  Elec       q    Type
REMARK                         _______ _______ _______ _____ _____    ______ ____
ROOT
ATOM      1  N   UNL     1       0.647   9.901  19.114  0.00  0.00    +0.000 N 
ATOM      2  C   UNL     1       1.090  11.241  18.972  0.00  0.00    +0.000 A 
ATOM      3  N   UNL     1       2.117  11.497  18.165  0.00  0.00    +0.000 NA
ATOM      4  C   UNL     1       2.635  12.735  18.216  0.00  0.00    +0.000 A 
ATOM      5  C   UNL     1       2.170  13.759  19.024  0.00  0.00    +0.000 A 
ATOM      6  C   UNL     1       1.024  13.455  19.750  0.00  0.00    +0.000 A 
ATOM      7  N   UNL     1       0.514  12.185  19.722  0.00  0.00    +0.000 NA
ATOM      8  N   UNL     1       0.417  14.410  20.553  0.00  0.00    +0.000 N 
ATOM      9  C   UNL     1       1.028  15.767  20.666  0.00  0.00    +0.000 C 
ATOM     10  C   UNL     1       2.465  15.910  20.111  0.00  0.00    +0.000 C 
ATOM     11  O   UNL     1       3.172  16.860  20.450  0.00  0.00    +0.000 OA
ATOM     12  N   UNL     1       2.871  14.986  19.164  0.00  0.00    +0.000 N 
ATOM     13  C   UNL     1       4.153  15.169  18.500  0.00  0.00    +0.000 C 
ATOM     14  H   UNL     1       0.097   9.875  19.966  0.00  0.00    +0.000 HD
ENDROOT
BRANCH   1  18
ATOM     15  C   UNL     1       3.294   6.588  18.705  0.00  0.00    +0.000 A 
ATOM     16  C   UNL     1       3.171   7.531  17.684  0.00  0.00    +0.000 A 
ATOM     17  C   UNL     1       2.290   8.607  17.839  0.00  0.00    +0.000 A 
ATOM     18  C   UNL     1       1.497   8.759  18.989  0.00  0.00    +0.000 A 
ATOM     19  C   UNL     1       1.674   7.827  20.042  0.00  0.00    +0.000 A 
ATOM     20  C   UNL     1       2.556   6.740  19.876  0.00  0.00    +0.000 A 
BRANCH  15  22
ATOM     21  N   UNL     1       5.141   5.571  17.463  0.00  0.00    +0.000 N 
ATOM     22  C   UNL     1       4.274   5.475  18.539  0.00  0.00    +0.000 C 
ATOM     23  O   UNL     1       4.273   4.546  19.325  0.00  0.00    +0.000 OA
ATOM     24  H   UNL     1       5.177   6.412  16.905  0.00  0.00    +0.000 HD
BRANCH  21  26
ATOM     25  C   UNL     1       7.484   4.866  17.794  0.00  0.00    +0.000 C 
ATOM     26  C   UNL     1       6.123   4.534  17.205  0.00  0.00    +0.000 C 
ENDBRANCH  21  26
ENDBRANCH  15  22
BRANCH  19  27
ATOM     27  O   UNL     1       0.921   7.998  21.177  0.00  0.00    +0.000 OA
BRANCH  27  28
ATOM     28  C   UNL     1       1.396   8.964  22.129  0.00  0.00    +0.000 C 
BRANCH  28  29
ATOM     29  C   UNL     1       0.177   9.570  22.824  0.00  0.00    +0.000 C 
BRANCH  29  30
ATOM     30  O   UNL     1      -0.592  10.365  21.924  0.00  0.00    +0.000 OA
ATOM     31  H   UNL     1      -1.471   9.945  21.865  0.00  0.00    +0.000 HD
ENDBRANCH  29  30
ENDBRANCH  28  29
ENDBRANCH  27  28
ENDBRANCH  19  27
ENDBRANCH   1  18
BRANCH   8  32
ATOM     32  C   UNL     1      -0.777  14.070  21.359  0.00  0.00    +0.000 C 
ATOM     33  C   UNL     1      -0.782  14.703  22.758  0.00  0.00    +0.000 C 
ATOM     34  C   UNL     1      -2.240  14.640  23.190  0.00  0.00    +0.000 C 
ATOM     35  C   UNL     1      -3.059  14.777  21.911  0.00  0.00    +0.000 C 
ATOM     36  C   UNL     1      -2.112  14.514  20.739  0.00  0.00    +0.000 C 
ENDBRANCH   8  32
BRANCH   9  37
ATOM     37  C   UNL     1       0.154  16.874  20.038  0.00  0.00    +0.000 C 
ATOM     38  C   UNL     1      -0.155  16.750  18.551  0.00  0.00    +0.000 C 
ENDBRANCH   9  37
TORSDOF 9
ENDMDL
MODEL 9
REMARK VINA RESULT:      -6.8      3.659     10.418
REMARK  Name = 
REMARK  12 active torsions:
REMARK  status: ('A' for Active; 'I' for Inactive)
REMARK    1  A    between atoms: C_1  and  C_2
REMARK    2  A    between atoms: C_2  and  N_3
REMARK    3  A    between atoms: C_4  and  C_6
REMARK    4  A    between atoms: C_9  and  N_10
REMARK    5  A    between atoms: N_17  and  C_18
REMARK    6  A    between atoms: C_23  and  C_24
REMARK    7  A    between atoms: C_24  and  C_25
REMARK    8  A    between atoms: N_28  and  C_29
REMARK    9  A    between atoms: C_30  and  O_31
REMARK   10  A    between atoms: O_31  and  C_32
REMARK   11  A    between atoms: C_32  and  C_33
REMARK   12  A    between atoms: C_33  and  O_34
REMARK                            x       y       z     vdW  Elec       q    Type
REMARK                         _______ _______ _______ _____ _____    ______ ____
ROOT
ATOM      1  N   UNL     1       0.201  10.775  19.638  0.00  0.00    +0.000 N 
ATOM      2  C   UNL     1       0.779  12.042  19.900  0.00  0.00    +0.000 A 
ATOM      3  N   UNL     1       1.919  12.367  19.294  0.00  0.00    +0.000 NA
ATOM      4  C   UNL     1       2.539  13.479  19.721  0.00  0.00    +0.000 A 
ATOM      5  C   UNL     1       2.073  14.314  20.723  0.00  0.00    +0.000 A 
ATOM      6  C   UNL     1       0.821  13.979  21.227  0.00  0.00    +0.000 A 
ATOM      7  N   UNL     1       0.204  12.829  20.813  0.00  0.00    +0.000 NA
ATOM      8  N   UNL     1       0.209  14.766  22.192  0.00  0.00    +0.000 N 
ATOM      9  C   UNL     1       0.923  15.965  22.720  0.00  0.00    +0.000 C 
ATOM     10  C   UNL     1       2.426  16.067  22.365  0.00  0.00    +0.000 C 
ATOM     11  O   UNL     1       3.169  16.808  23.012  0.00  0.00    +0.000 OA
ATOM     12  N   UNL     1       2.861  15.371  21.251  0.00  0.00    +0.000 N 
ATOM     13  C   UNL     1       4.227  15.558  20.787  0.00  0.00    +0.000 C 
ATOM     14  H   UNL     1      -0.452  10.602  20.395  0.00  0.00    +0.000 HD
ENDROOT
BRANCH   1  18
ATOM     15  C   UNL     1       2.534   7.381  18.551  0.00  0.00    +0.000 A 
ATOM     16  C   UNL     1       2.124   8.301  17.585  0.00  0.00    +0.000 A 
ATOM     17  C   UNL     1       1.353   9.404  17.966  0.00  0.00    +0.000 A 
ATOM     18  C   UNL     1       0.950   9.607  19.297  0.00  0.00    +0.000 A 
ATOM     19  C   UNL     1       1.423   8.696  20.276  0.00  0.00    +0.000 A 
ATOM     20  C   UNL     1       2.191   7.582  19.885  0.00  0.00    +0.000 A 
BRANCH  15  22
ATOM     21  N   UNL     1       4.604   6.561  17.535  0.00  0.00    +0.000 N 
ATOM     22  C   UNL     1       3.397   6.237  18.130  0.00  0.00    +0.000 C 
ATOM     23  O   UNL     1       3.017   5.095  18.312  0.00  0.00    +0.000 OA
ATOM     24  H   UNL     1       4.923   7.519  17.506  0.00  0.00    +0.000 HD
BRANCH  21  26
ATOM     25  C   UNL     1       5.396   5.275  15.581  0.00  0.00    +0.000 C 
ATOM     26  C   UNL     1       5.509   5.522  17.077  0.00  0.00    +0.000 C 
ENDBRANCH  21  26
ENDBRANCH  15  22
BRANCH  19  27
ATOM     27  O   UNL     1       1.053   8.916  21.580  0.00  0.00    +0.000 OA
BRANCH  27  28
ATOM     28  C   UNL     1      -0.315   8.637  21.919  0.00  0.00    +0.000 C 
BRANCH  28  29
ATOM     29  C   UNL     1      -0.733   9.620  23.014  0.00  0.00    +0.000 C 
BRANCH  29  30
ATOM     30  O   UNL     1      -0.000  10.840  22.923  0.00  0.00    +0.000 OA
ATOM     31  H   UNL     1       0.536  10.780  22.109  0.00  0.00    +0.000 HD
ENDBRANCH  29  30
ENDBRANCH  28  29
ENDBRANCH  27  28
ENDBRANCH  19  27
ENDBRANCH   1  18
BRANCH   8  32
ATOM     32  C   UNL     1      -1.104  14.382  22.758  0.00  0.00    +0.000 C 
ATOM     33  C   UNL     1      -1.257  14.715  24.250  0.00  0.00    +0.000 C 
ATOM     34  C   UNL     1      -2.761  14.700  24.481  0.00  0.00    +0.000 C 
ATOM     35  C   UNL     1      -3.388  15.169  23.172  0.00  0.00    +0.000 C 
ATOM     36  C   UNL     1      -2.310  15.064  22.093  0.00  0.00    +0.000 C 
ENDBRANCH   8  32
BRANCH   9  37
ATOM     37  C   UNL     1       0.241  17.293  22.326  0.00  0.00    +0.000 C 
ATOM     38  C   UNL     1       0.154  17.611  20.838  0.00  0.00    +0.000 C 
ENDBRANCH   9  37
TORSDOF 9
ENDMDL
