MODEL 1
REMARK VINA RESULT:      -8.9      0.000      0.000
REMARK  Name = 
REMARK  11 active torsions:
REMARK  status: ('A' for Active; 'I' for Inactive)
REMARK    1  A    between atoms: C_1  and  O_2
REMARK    2  A    between atoms: O_2  and  C_3
REMARK    3  A    between atoms: C_5  and  O_6
REMARK    4  A    between atoms: O_6  and  C_7
REMARK    5  A    between atoms: C_9  and  N_10
REMARK    6  A    between atoms: N_10  and  C_11
REMARK    7  A    between atoms: N_10  and  C_18
REMARK    8  A    between atoms: C_11  and  C_12
REMARK    9  A    between atoms: C_12  and  N_13
REMARK   10  A    between atoms: C_24  and  C_25
REMARK   11  A    between atoms: N_28  and  C_29
REMARK                            x       y       z     vdW  Elec       q    Type
REMARK                         _______ _______ _______ _____ _____    ______ ____
ROOT
ATOM      1  N   UNL     1       3.166   5.416  17.789  0.00  0.00    +0.000 N 
ENDROOT
BRANCH   1   2
ATOM      2  C   UNL     1       2.487   6.525  18.516  0.00  0.00    +0.000 A 
ATOM      3  C   UNL     1       2.085   6.269  19.855  0.00  0.00    +0.000 A 
ATOM      4  C   UNL     1       1.598   7.244  20.702  0.00  0.00    +0.000 A 
ATOM      5  C   UNL     1       1.441   8.536  20.270  0.00  0.00    +0.000 A 
ATOM      6  N   UNL     1       1.053   9.470  21.160  0.00  0.00    +0.000 NA
ATOM      7  C   UNL     1       0.870  10.759  20.818  0.00  0.00    +0.000 A 
ATOM      8  C   UNL     1       1.020  11.159  19.487  0.00  0.00    +0.000 A 
ATOM      9  N   UNL     1       1.445  10.211  18.558  0.00  0.00    +0.000 NA
ATOM     10  C   UNL     1       1.696   8.894  18.925  0.00  0.00    +0.000 A 
ATOM     11  C   UNL     1       2.233   7.879  18.038  0.00  0.00    +0.000 A 
BRANCH   8  12
ATOM     12  C   UNL     1       0.701  12.604  19.165  0.00  0.00    +0.000 A 
ATOM     13  C   UNL     1      -0.523  13.181  18.862  0.00  0.00    +0.000 A 
ATOM     14  N   UNL     1      -0.358  14.509  18.650  0.00  0.00    +0.000 NA
ATOM     15  N   UNL     1       0.923  14.798  18.807  0.00  0.00    +0.000 N 
ATOM     16  C   UNL     1       1.497  16.140  18.635  0.00  0.00    +0.000 C 
ATOM     17  C   UNL     1       1.601  13.683  19.133  0.00  0.00    +0.000 A 
ENDBRANCH   8  12
ENDBRANCH   1   2
BRANCH   1  22
ATOM     18  C   UNL     1       6.895   6.213  17.348  0.00  0.00    +0.000 A 
ATOM     19  C   UNL     1       7.229   5.383  16.268  0.00  0.00    +0.000 A 
ATOM     20  C   UNL     1       6.262   4.575  15.675  0.00  0.00    +0.000 A 
ATOM     21  C   UNL     1       4.949   4.613  16.168  0.00  0.00    +0.000 A 
ATOM     22  C   UNL     1       4.555   5.412  17.294  0.00  0.00    +0.000 A 
ATOM     23  C   UNL     1       5.573   6.219  17.846  0.00  0.00    +0.000 A 
BRANCH  18  25
ATOM     24  C   UNL     1       7.956   8.375  17.774  0.00  0.00    +0.000 C 
ATOM     25  O   UNL     1       7.823   7.009  17.945  0.00  0.00    +0.000 OA
ENDBRANCH  18  25
BRANCH  20  26
ATOM     26  O   UNL     1       6.555   3.737  14.638  0.00  0.00    +0.000 OA
ATOM     27  C   UNL     1       5.990   3.776  13.372  0.00  0.00    +0.000 C 
ENDBRANCH  20  26
ENDBRANCH   1  22
BRANCH   1  28
ATOM     28  C   UNL     1       2.305   4.249  17.431  0.00  0.00    +0.000 C 
BRANCH  28  29
ATOM     29  C   UNL     1       2.665   2.873  18.055  0.00  0.00    +0.000 C 
BRANCH  29  30
ATOM     30  N   UNL     1       2.371   2.778  19.482  0.00  0.00    +0.000 N 
ATOM     31  C   UNL     1       1.132   2.774  20.007  0.00  0.00    +0.000 A 
ATOM     32  C   UNL     1       1.209   2.734  21.379  0.00  0.00    +0.000 A 
ATOM     33  C   UNL     1       2.553   2.713  21.699  0.00  0.00    +0.000 A 
ATOM     34  C   UNL     1       3.247   2.740  20.505  0.00  0.00    +0.000 A 
ENDBRANCH  29  30
ENDBRANCH  28  29
ENDBRANCH   1  28
TORSDOF 8
ENDMDL
MODEL 2
REMARK VINA RESULT:      -8.8      0.882      1.078
REMARK  Name = 
REMARK  11 active torsions:
REMARK  status: ('A' for Active; 'I' for Inactive)
REMARK    1  A    between atoms: C_1  and  O_2
REMARK    2  A    between atoms: O_2  and  C_3
REMARK    3  A    between atoms: C_5  and  O_6
REMARK    4  A    between atoms: O_6  and  C_7
REMARK    5  A    between atoms: C_9  and  N_10
REMARK    6  A    between atoms: N_10  and  C_11
REMARK    7  A    between atoms: N_10  and  C_18
REMARK    8  A    between atoms: C_11  and  C_12
REMARK    9  A    between atoms: C_12  and  N_13
REMARK   10  A    between atoms: C_24  and  C_25
REMARK   11  A    between atoms: N_28  and  C_29
REMARK                            x       y       z     vdW  Elec       q    Type
REMARK                         _______ _______ _______ _____ _____    ______ ____
ROOT
ATOM      1  N   UNL     1       3.058   5.289  17.863  0.00  0.00    +0.000 N 
ENDROOT
BRANCH   1   2
ATOM      2  C   UNL     1       2.421   6.428  18.582  0.00  0.00    +0.000 A 
ATOM      3  C   UNL     1       2.056   6.213  19.938  0.00  0.00    +0.000 A 
ATOM      4  C   UNL     1       1.612   7.218  20.774  0.00  0.00    +0.000 A 
ATOM      5  C   UNL     1       1.465   8.501  20.315  0.00  0.00    +0.000 A 
ATOM      6  N   UNL     1       1.120   9.463  21.192  0.00  0.00    +0.000 NA
ATOM      7  C   UNL     1       0.948  10.746  20.823  0.00  0.00    +0.000 A 
ATOM      8  C   UNL     1       1.065  11.110  19.477  0.00  0.00    +0.000 A 
ATOM      9  N   UNL     1       1.445  10.132  18.561  0.00  0.00    +0.000 NA
ATOM     10  C   UNL     1       1.684   8.820  18.954  0.00  0.00    +0.000 A 
ATOM     11  C   UNL     1       2.176   7.774  18.077  0.00  0.00    +0.000 A 
BRANCH   8  12
ATOM     12  C   UNL     1       0.762  12.552  19.129  0.00  0.00    +0.000 A 
ATOM     13  C   UNL     1      -0.437  13.117  18.717  0.00  0.00    +0.000 A 
ATOM     14  N   UNL     1      -0.266  14.447  18.521  0.00  0.00    +0.000 NA
ATOM     15  N   UNL     1       0.992  14.749  18.792  0.00  0.00    +0.000 N 
ATOM     16  C   UNL     1       1.565  16.097  18.674  0.00  0.00    +0.000 C 
ATOM     17  C   UNL     1       1.650  13.640  19.178  0.00  0.00    +0.000 A 
ENDBRANCH   8  12
ENDBRANCH   1   2
BRANCH   1  22
ATOM     18  C   UNL     1       6.879   4.941  17.980  0.00  0.00    +0.000 A 
ATOM     19  C   UNL     1       7.206   5.027  16.620  0.00  0.00    +0.000 A 
ATOM     20  C   UNL     1       6.208   5.203  15.664  0.00  0.00    +0.000 A 
ATOM     21  C   UNL     1       4.874   5.305  16.087  0.00  0.00    +0.000 A 
ATOM     22  C   UNL     1       4.473   5.187  17.460  0.00  0.00    +0.000 A 
ATOM     23  C   UNL     1       5.528   5.021  18.383  0.00  0.00    +0.000 A 
BRANCH  18  25
ATOM     24  C   UNL     1       8.206   5.686  19.895  0.00  0.00    +0.000 C 
ATOM     25  O   UNL     1       7.837   4.766  18.931  0.00  0.00    +0.000 OA
ENDBRANCH  18  25
BRANCH  20  26
ATOM     26  O   UNL     1       6.486   5.268  14.330  0.00  0.00    +0.000 OA
ATOM     27  C   UNL     1       6.707   4.188  13.487  0.00  0.00    +0.000 C 
ENDBRANCH  20  26
ENDBRANCH   1  22
BRANCH   1  28
ATOM     28  C   UNL     1       2.134   4.207  17.410  0.00  0.00    +0.000 C 
BRANCH  28  29
ATOM     29  C   UNL     1       2.321   2.796  18.031  0.00  0.00    +0.000 C 
BRANCH  29  30
ATOM     30  N   UNL     1       2.173   2.768  19.484  0.00  0.00    +0.000 N 
ATOM     31  C   UNL     1       3.193   2.637  20.353  0.00  0.00    +0.000 A 
ATOM     32  C   UNL     1       2.705   2.588  21.637  0.00  0.00    +0.000 A 
ATOM     33  C   UNL     1       1.331   2.695  21.543  0.00  0.00    +0.000 A 
ATOM     34  C   UNL     1       1.031   2.805  20.199  0.00  0.00    +0.000 A 
ENDBRANCH  29  30
ENDBRANCH  28  29
ENDBRANCH   1  28
TORSDOF 8
ENDMDL
MODEL 3
REMARK VINA RESULT:      -8.7      0.598      1.013
REMARK  Name = 
REMARK  11 active torsions:
REMARK  status: ('A' for Active; 'I' for Inactive)
REMARK    1  A    between atoms: C_1  and  O_2
REMARK    2  A    between atoms: O_2  and  C_3
REMARK    3  A    between atoms: C_5  and  O_6
REMARK    4  A    between atoms: O_6  and  C_7
REMARK    5  A    between atoms: C_9  and  N_10
REMARK    6  A    between atoms: N_10  and  C_11
REMARK    7  A    between atoms: N_10  and  C_18
REMARK    8  A    between atoms: C_11  and  C_12
REMARK    9  A    between atoms: C_12  and  N_13
REMARK   10  A    between atoms: C_24  and  C_25
REMARK   11  A    between atoms: N_28  and  C_29
REMARK                            x       y       z     vdW  Elec       q    Type
REMARK                         _______ _______ _______ _____ _____    ______ ____
ROOT
ATOM      1  N   UNL     1       3.062   5.441  17.793  0.00  0.00    +0.000 N 
ENDROOT
BRANCH   1   2
ATOM      2  C   UNL     1       2.414   6.524  18.584  0.00  0.00    +0.000 A 
ATOM      3  C   UNL     1       2.082   6.228  19.934  0.00  0.00    +0.000 A 
ATOM      4  C   UNL     1       1.632   7.177  20.831  0.00  0.00    +0.000 A 
ATOM      5  C   UNL     1       1.445   8.478  20.444  0.00  0.00    +0.000 A 
ATOM      6  N   UNL     1       1.097   9.384  21.377  0.00  0.00    +0.000 NA
ATOM      7  C   UNL     1       0.888  10.680  21.081  0.00  0.00    +0.000 A 
ATOM      8  C   UNL     1       0.968  11.118  19.755  0.00  0.00    +0.000 A 
ATOM      9  N   UNL     1       1.352  10.199  18.780  0.00  0.00    +0.000 NA
ATOM     10  C   UNL     1       1.629   8.875  19.098  0.00  0.00    +0.000 A 
ATOM     11  C   UNL     1       2.127   7.888  18.157  0.00  0.00    +0.000 A 
BRANCH   8  12
ATOM     12  C   UNL     1       0.624  12.569  19.490  0.00  0.00    +0.000 A 
ATOM     13  C   UNL     1       1.193  13.448  18.581  0.00  0.00    +0.000 A 
ATOM     14  N   UNL     1       0.574  14.651  18.667  0.00  0.00    +0.000 NA
ATOM     15  N   UNL     1      -0.365  14.570  19.595  0.00  0.00    +0.000 N 
ATOM     16  C   UNL     1      -1.237  15.684  19.992  0.00  0.00    +0.000 C 
ATOM     17  C   UNL     1      -0.383  13.327  20.110  0.00  0.00    +0.000 A 
ENDBRANCH   8  12
ENDBRANCH   1   2
BRANCH   1  22
ATOM     18  C   UNL     1       6.788   6.237  17.327  0.00  0.00    +0.000 A 
ATOM     19  C   UNL     1       7.125   5.375  16.273  0.00  0.00    +0.000 A 
ATOM     20  C   UNL     1       6.161   4.545  15.706  0.00  0.00    +0.000 A 
ATOM     21  C   UNL     1       4.848   4.594  16.198  0.00  0.00    +0.000 A 
ATOM     22  C   UNL     1       4.451   5.426  17.299  0.00  0.00    +0.000 A 
ATOM     23  C   UNL     1       5.467   6.253  17.824  0.00  0.00    +0.000 A 
BRANCH  18  25
ATOM     24  C   UNL     1       7.844   8.414  17.682  0.00  0.00    +0.000 C 
ATOM     25  O   UNL     1       7.713   7.054  17.898  0.00  0.00    +0.000 OA
ENDBRANCH  18  25
BRANCH  20  26
ATOM     26  O   UNL     1       6.457   3.677  14.695  0.00  0.00    +0.000 OA
ATOM     27  C   UNL     1       6.184   3.867  13.349  0.00  0.00    +0.000 C 
ENDBRANCH  20  26
ENDBRANCH   1  22
BRANCH   1  28
ATOM     28  C   UNL     1       2.169   4.321  17.369  0.00  0.00    +0.000 C 
BRANCH  28  29
ATOM     29  C   UNL     1       2.433   2.920  17.983  0.00  0.00    +0.000 C 
BRANCH  29  30
ATOM     30  N   UNL     1       2.225   2.861  19.427  0.00  0.00    +0.000 N 
ATOM     31  C   UNL     1       3.209   2.719  20.335  0.00  0.00    +0.000 A 
ATOM     32  C   UNL     1       2.669   2.641  21.596  0.00  0.00    +0.000 A 
ATOM     33  C   UNL     1       1.298   2.740  21.448  0.00  0.00    +0.000 A 
ATOM     34  C   UNL     1       1.054   2.876  20.095  0.00  0.00    +0.000 A 
ENDBRANCH  29  30
ENDBRANCH  28  29
ENDBRANCH   1  28
TORSDOF 8
ENDMDL
MODEL 4
REMARK VINA RESULT:      -8.7      0.389      2.147
REMARK  Name = 
REMARK  11 active torsions:
REMARK  status: ('A' for Active; 'I' for Inactive)
REMARK    1  A    between atoms: C_1  and  O_2
REMARK    2  A    between atoms: O_2  and  C_3
REMARK    3  A    between atoms: C_5  and  O_6
REMARK    4  A    between atoms: O_6  and  C_7
REMARK    5  A    between atoms: C_9  and  N_10
REMARK    6  A    between atoms: N_10  and  C_11
REMARK    7  A    between atoms: N_10  and  C_18
REMARK    8  A    between atoms: C_11  and  C_12
REMARK    9  A    between atoms: C_12  and  N_13
REMARK   10  A    between atoms: C_24  and  C_25
REMARK   11  A    between atoms: N_28  and  C_29
REMARK                            x       y       z     vdW  Elec       q    Type
REMARK                         _______ _______ _______ _____ _____    ______ ____
ROOT
ATOM      1  N   UNL     1       3.196   5.135  17.617  0.00  0.00    +0.000 N 
ENDROOT
BRANCH   1   2
ATOM      2  C   UNL     1       2.555   6.245  18.376  0.00  0.00    +0.000 A 
ATOM      3  C   UNL     1       2.225   5.993  19.735  0.00  0.00    +0.000 A 
ATOM      4  C   UNL     1       1.782   6.970  20.603  0.00  0.00    +0.000 A 
ATOM      5  C   UNL     1       1.600   8.260  20.176  0.00  0.00    +0.000 A 
ATOM      6  N   UNL     1       1.258   9.197  21.082  0.00  0.00    +0.000 NA
ATOM      7  C   UNL     1       1.054  10.484  20.746  0.00  0.00    +0.000 A 
ATOM      8  C   UNL     1       1.133  10.880  19.407  0.00  0.00    +0.000 A 
ATOM      9  N   UNL     1       1.510   9.929  18.461  0.00  0.00    +0.000 NA
ATOM     10  C   UNL     1       1.782   8.614  18.818  0.00  0.00    +0.000 A 
ATOM     11  C   UNL     1       2.273   7.597  17.907  0.00  0.00    +0.000 A 
BRANCH   8  12
ATOM     12  C   UNL     1       0.795  12.323  19.098  0.00  0.00    +0.000 A 
ATOM     13  C   UNL     1      -0.427  12.876  18.744  0.00  0.00    +0.000 A 
ATOM     14  N   UNL     1      -0.284  14.212  18.567  0.00  0.00    +0.000 NA
ATOM     15  N   UNL     1       0.979  14.529  18.795  0.00  0.00    +0.000 N 
ATOM     16  C   UNL     1       1.527  15.888  18.680  0.00  0.00    +0.000 C 
ATOM     17  C   UNL     1       1.668  13.424  19.134  0.00  0.00    +0.000 A 
ENDBRANCH   8  12
ENDBRANCH   1   2
BRANCH   1  22
ATOM     18  C   UNL     1       6.120   4.428  15.233  0.00  0.00    +0.000 A 
ATOM     19  C   UNL     1       7.125   5.238  15.780  0.00  0.00    +0.000 A 
ATOM     20  C   UNL     1       6.872   6.006  16.915  0.00  0.00    +0.000 A 
ATOM     21  C   UNL     1       5.601   5.944  17.506  0.00  0.00    +0.000 A 
ATOM     22  C   UNL     1       4.521   5.164  16.971  0.00  0.00    +0.000 A 
ATOM     23  C   UNL     1       4.840   4.399  15.829  0.00  0.00    +0.000 A 
BRANCH  18  25
ATOM     24  C   UNL     1       6.950   4.098  12.956  0.00  0.00    +0.000 C 
ATOM     25  O   UNL     1       6.343   3.672  14.124  0.00  0.00    +0.000 OA
ENDBRANCH  18  25
BRANCH  20  26
ATOM     26  O   UNL     1       7.817   6.824  17.462  0.00  0.00    +0.000 OA
ATOM     27  C   UNL     1       7.711   8.196  17.633  0.00  0.00    +0.000 C 
ENDBRANCH  20  26
ENDBRANCH   1  22
BRANCH   1  28
ATOM     28  C   UNL     1       2.351   3.922  17.400  0.00  0.00    +0.000 C 
BRANCH  28  29
ATOM     29  C   UNL     1       2.770   2.616  18.129  0.00  0.00    +0.000 C 
BRANCH  29  30
ATOM     30  N   UNL     1       2.436   2.602  19.551  0.00  0.00    +0.000 N 
ATOM     31  C   UNL     1       1.183   2.654  20.041  0.00  0.00    +0.000 A 
ATOM     32  C   UNL     1       1.224   2.684  21.415  0.00  0.00    +0.000 A 
ATOM     33  C   UNL     1       2.558   2.648  21.773  0.00  0.00    +0.000 A 
ATOM     34  C   UNL     1       3.284   2.597  20.598  0.00  0.00    +0.000 A 
ENDBRANCH  29  30
ENDBRANCH  28  29
ENDBRANCH   1  28
TORSDOF 8
ENDMDL
MODEL 5
REMARK VINA RESULT:      -8.6      1.059      2.244
REMARK  Name = 
REMARK  11 active torsions:
REMARK  status: ('A' for Active; 'I' for Inactive)
REMARK    1  A    between atoms: C_1  and  O_2
REMARK    2  A    between atoms: O_2  and  C_3
REMARK    3  A    between atoms: C_5  and  O_6
REMARK    4  A    between atoms: O_6  and  C_7
REMARK    5  A    between atoms: C_9  and  N_10
REMARK    6  A    between atoms: N_10  and  C_11
REMARK    7  A    between atoms: N_10  and  C_18
REMARK    8  A    between atoms: C_11  and  C_12
REMARK    9  A    between atoms: C_12  and  N_13
REMARK   10  A    between atoms: C_24  and  C_25
REMARK   11  A    between atoms: N_28  and  C_29
REMARK                            x       y       z     vdW  Elec       q    Type
REMARK                         _______ _______ _______ _____ _____    ______ ____
ROOT
ATOM      1  N   UNL     1       3.030   5.256  17.862  0.00  0.00    +0.000 N 
ENDROOT
BRANCH   1   2
ATOM      2  C   UNL     1       2.397   6.359  18.638  0.00  0.00    +0.000 A 
ATOM      3  C   UNL     1       2.060   6.087  19.992  0.00  0.00    +0.000 A 
ATOM      4  C   UNL     1       1.624   7.053  20.875  0.00  0.00    +0.000 A 
ATOM      5  C   UNL     1       1.457   8.352  20.471  0.00  0.00    +0.000 A 
ATOM      6  N   UNL     1       1.121   9.276  21.392  0.00  0.00    +0.000 NA
ATOM      7  C   UNL     1       0.932  10.571  21.078  0.00  0.00    +0.000 A 
ATOM      8  C   UNL     1       1.020  10.989  19.746  0.00  0.00    +0.000 A 
ATOM      9  N   UNL     1       1.390  10.052  18.785  0.00  0.00    +0.000 NA
ATOM     10  C   UNL     1       1.647   8.728  19.120  0.00  0.00    +0.000 A 
ATOM     11  C   UNL     1       2.131   7.722  18.193  0.00  0.00    +0.000 A 
BRANCH   8  12
ATOM     12  C   UNL     1       0.697  12.442  19.462  0.00  0.00    +0.000 A 
ATOM     13  C   UNL     1       1.239  13.284  18.502  0.00  0.00    +0.000 A 
ATOM     14  N   UNL     1       0.655  14.504  18.589  0.00  0.00    +0.000 NA
ATOM     15  N   UNL     1      -0.235  14.469  19.566  0.00  0.00    +0.000 N 
ATOM     16  C   UNL     1      -1.057  15.615  19.979  0.00  0.00    +0.000 C 
ATOM     17  C   UNL     1      -0.257  13.241  20.114  0.00  0.00    +0.000 A 
ENDBRANCH   8  12
ENDBRANCH   1   2
BRANCH   1  22
ATOM     18  C   UNL     1       6.215   5.119  15.725  0.00  0.00    +0.000 A 
ATOM     19  C   UNL     1       7.202   4.967  16.710  0.00  0.00    +0.000 A 
ATOM     20  C   UNL     1       6.851   4.902  18.056  0.00  0.00    +0.000 A 
ATOM     21  C   UNL     1       5.494   4.978  18.408  0.00  0.00    +0.000 A 
ATOM     22  C   UNL     1       4.443   5.171  17.450  0.00  0.00    +0.000 A 
ATOM     23  C   UNL     1       4.858   5.218  16.102  0.00  0.00    +0.000 A 
BRANCH  18  25
ATOM     24  C   UNL     1       6.483   4.146  13.497  0.00  0.00    +0.000 C 
ATOM     25  O   UNL     1       6.535   5.188  14.405  0.00  0.00    +0.000 OA
ENDBRANCH  18  25
BRANCH  20  26
ATOM     26  O   UNL     1       7.785   4.778  19.043  0.00  0.00    +0.000 OA
ATOM     27  C   UNL     1       8.202   5.781  19.905  0.00  0.00    +0.000 C 
ENDBRANCH  20  26
ENDBRANCH   1  22
BRANCH   1  28
ATOM     28  C   UNL     1       2.102   4.198  17.361  0.00  0.00    +0.000 C 
BRANCH  28  29
ATOM     29  C   UNL     1       2.275   2.763  17.929  0.00  0.00    +0.000 C 
BRANCH  29  30
ATOM     30  N   UNL     1       2.195   2.694  19.386  0.00  0.00    +0.000 N 
ATOM     31  C   UNL     1       1.050   2.753  20.091  0.00  0.00    +0.000 A 
ATOM     32  C   UNL     1       1.332   2.720  21.436  0.00  0.00    +0.000 A 
ATOM     33  C   UNL     1       2.706   2.637  21.552  0.00  0.00    +0.000 A 
ATOM     34  C   UNL     1       3.213   2.622  20.266  0.00  0.00    +0.000 A 
ENDBRANCH  29  30
ENDBRANCH  28  29
ENDBRANCH   1  28
TORSDOF 8
ENDMDL
MODEL 6
REMARK VINA RESULT:      -8.2      4.147      9.354
REMARK  Name = 
REMARK  11 active torsions:
REMARK  status: ('A' for Active; 'I' for Inactive)
REMARK    1  A    between atoms: C_1  and  O_2
REMARK    2  A    between atoms: O_2  and  C_3
REMARK    3  A    between atoms: C_5  and  O_6
REMARK    4  A    between atoms: O_6  and  C_7
REMARK    5  A    between atoms: C_9  and  N_10
REMARK    6  A    between atoms: N_10  and  C_11
REMARK    7  A    between atoms: N_10  and  C_18
REMARK    8  A    between atoms: C_11  and  C_12
REMARK    9  A    between atoms: C_12  and  N_13
REMARK   10  A    between atoms: C_24  and  C_25
REMARK   11  A    between atoms: N_28  and  C_29
REMARK                            x       y       z     vdW  Elec       q    Type
REMARK                         _______ _______ _______ _____ _____    ______ ____
ROOT
ATOM      1  N   UNL     1      -0.066  10.986  18.802  0.00  0.00    +0.000 N 
ENDROOT
BRANCH   1   2
ATOM      2  C   UNL     1       0.904   9.866  18.954  0.00  0.00    +0.000 A 
ATOM      3  C   UNL     1       0.828   9.102  20.150  0.00  0.00    +0.000 A 
ATOM      4  C   UNL     1       1.545   7.941  20.357  0.00  0.00    +0.000 A 
ATOM      5  C   UNL     1       2.416   7.473  19.407  0.00  0.00    +0.000 A 
ATOM      6  N   UNL     1       3.019   6.287  19.616  0.00  0.00    +0.000 NA
ATOM      7  C   UNL     1       3.892   5.759  18.737  0.00  0.00    +0.000 A 
ATOM      8  C   UNL     1       4.249   6.473  17.589  0.00  0.00    +0.000 A 
ATOM      9  N   UNL     1       3.616   7.690  17.346  0.00  0.00    +0.000 NA
ATOM     10  C   UNL     1       2.668   8.204  18.223  0.00  0.00    +0.000 A 
ATOM     11  C   UNL     1       1.897   9.412  17.988  0.00  0.00    +0.000 A 
BRANCH   8  12
ATOM     12  C   UNL     1       5.310   5.856  16.701  0.00  0.00    +0.000 A 
ATOM     13  C   UNL     1       6.682   5.794  16.894  0.00  0.00    +0.000 A 
ATOM     14  N   UNL     1       7.256   5.141  15.854  0.00  0.00    +0.000 NA
ATOM     15  N   UNL     1       6.303   4.787  15.009  0.00  0.00    +0.000 N 
ATOM     16  C   UNL     1       6.539   4.077  13.744  0.00  0.00    +0.000 C 
ATOM     17  C   UNL     1       5.108   5.183  15.484  0.00  0.00    +0.000 A 
ENDBRANCH   8  12
ENDBRANCH   1   2
BRANCH   1  22
ATOM     18  C   UNL     1      -3.862  11.339  18.360  0.00  0.00    +0.000 A 
ATOM     19  C   UNL     1      -4.064  10.660  17.150  0.00  0.00    +0.000 A 
ATOM     20  C   UNL     1      -2.989  10.084  16.477  0.00  0.00    +0.000 A 
ATOM     21  C   UNL     1      -1.706  10.184  17.037  0.00  0.00    +0.000 A 
ATOM     22  C   UNL     1      -1.431  10.896  18.252  0.00  0.00    +0.000 A 
ATOM     23  C   UNL     1      -2.560  11.448  18.895  0.00  0.00    +0.000 A 
BRANCH  18  25
ATOM     24  C   UNL     1      -4.802  12.648  20.200  0.00  0.00    +0.000 C 
ATOM     25  O   UNL     1      -4.897  11.911  19.033  0.00  0.00    +0.000 OA
ENDBRANCH  18  25
BRANCH  20  26
ATOM     26  O   UNL     1      -3.143   9.437  15.285  0.00  0.00    +0.000 OA
ATOM     27  C   UNL     1      -3.188  10.030  14.032  0.00  0.00    +0.000 C 
ENDBRANCH  20  26
ENDBRANCH   1  22
BRANCH   1  28
ATOM     28  C   UNL     1       0.454  12.346  19.136  0.00  0.00    +0.000 C 
BRANCH  28  29
ATOM     29  C   UNL     1       1.104  12.543  20.533  0.00  0.00    +0.000 C 
BRANCH  29  30
ATOM     30  N   UNL     1       0.137  12.733  21.611  0.00  0.00    +0.000 N 
ATOM     31  C   UNL     1      -0.543  11.737  22.209  0.00  0.00    +0.000 A 
ATOM     32  C   UNL     1      -1.412  12.261  23.137  0.00  0.00    +0.000 A 
ATOM     33  C   UNL     1      -1.251  13.633  23.100  0.00  0.00    +0.000 A 
ATOM     34  C   UNL     1      -0.286  13.895  22.146  0.00  0.00    +0.000 A 
ENDBRANCH  29  30
ENDBRANCH  28  29
ENDBRANCH   1  28
TORSDOF 8
ENDMDL
MODEL 7
REMARK VINA RESULT:      -8.2      1.274      1.461
REMARK  Name = 
REMARK  11 active torsions:
REMARK  status: ('A' for Active; 'I' for Inactive)
REMARK    1  A    between atoms: C_1  and  O_2
REMARK    2  A    between atoms: O_2  and  C_3
REMARK    3  A    between atoms: C_5  and  O_6
REMARK    4  A    between atoms: O_6  and  C_7
REMARK    5  A    between atoms: C_9  and  N_10
REMARK    6  A    between atoms: N_10  and  C_11
REMARK    7  A    between atoms: N_10  and  C_18
REMARK    8  A    between atoms: C_11  and  C_12
REMARK    9  A    between atoms: C_12  and  N_13
REMARK   10  A    between atoms: C_24  and  C_25
REMARK   11  A    between atoms: N_28  and  C_29
REMARK                            x       y       z     vdW  Elec       q    Type
REMARK                         _______ _______ _______ _____ _____    ______ ____
ROOT
ATOM      1  N   UNL     1       2.702   5.988  18.309  0.00  0.00    +0.000 N 
ENDROOT
BRANCH   1   2
ATOM      2  C   UNL     1       2.095   7.164  18.993  0.00  0.00    +0.000 A 
ATOM      3  C   UNL     1       1.653   6.977  20.330  0.00  0.00    +0.000 A 
ATOM      4  C   UNL     1       1.225   8.010  21.140  0.00  0.00    +0.000 A 
ATOM      5  C   UNL     1       1.172   9.297  20.670  0.00  0.00    +0.000 A 
ATOM      6  N   UNL     1       0.840  10.282  21.526  0.00  0.00    +0.000 NA
ATOM      7  C   UNL     1       0.758  11.571  21.145  0.00  0.00    +0.000 A 
ATOM      8  C   UNL     1       0.962  11.920  19.806  0.00  0.00    +0.000 A 
ATOM      9  N   UNL     1       1.331  10.917  18.913  0.00  0.00    +0.000 NA
ATOM     10  C   UNL     1       1.476   9.596  19.321  0.00  0.00    +0.000 A 
ATOM     11  C   UNL     1       1.951   8.519  18.472  0.00  0.00    +0.000 A 
BRANCH   8  12
ATOM     12  C   UNL     1       0.757  13.375  19.439  0.00  0.00    +0.000 A 
ATOM     13  C   UNL     1       1.598  14.224  18.734  0.00  0.00    +0.000 A 
ATOM     14  N   UNL     1       1.018  15.444  18.622  0.00  0.00    +0.000 NA
ATOM     15  N   UNL     1      -0.157  15.403  19.228  0.00  0.00    +0.000 N 
ATOM     16  C   UNL     1      -1.072  16.547  19.338  0.00  0.00    +0.000 C 
ATOM     17  C   UNL     1      -0.366  14.170  19.724  0.00  0.00    +0.000 A 
ENDBRANCH   8  12
ENDBRANCH   1   2
BRANCH   1  22
ATOM     18  C   UNL     1       6.443   5.308  18.835  0.00  0.00    +0.000 A 
ATOM     19  C   UNL     1       6.922   5.362  17.518  0.00  0.00    +0.000 A 
ATOM     20  C   UNL     1       6.052   5.621  16.462  0.00  0.00    +0.000 A 
ATOM     21  C   UNL     1       4.694   5.840  16.740  0.00  0.00    +0.000 A 
ATOM     22  C   UNL     1       4.138   5.761  18.061  0.00  0.00    +0.000 A 
ATOM     23  C   UNL     1       5.069   5.507  19.091  0.00  0.00    +0.000 A 
BRANCH  18  25
ATOM     24  C   UNL     1       8.474   5.690  20.145  0.00  0.00    +0.000 C 
ATOM     25  O   UNL     1       7.274   5.053  19.882  0.00  0.00    +0.000 OA
ENDBRANCH  18  25
BRANCH  20  26
ATOM     26  O   UNL     1       6.476   5.658  15.166  0.00  0.00    +0.000 OA
ATOM     27  C   UNL     1       6.612   4.568  14.319  0.00  0.00    +0.000 C 
ENDBRANCH  20  26
ENDBRANCH   1  22
BRANCH   1  28
ATOM     28  C   UNL     1       1.739   5.008  17.722  0.00  0.00    +0.000 C 
BRANCH  28  29
ATOM     29  C   UNL     1       1.983   3.502  18.008  0.00  0.00    +0.000 C 
BRANCH  29  30
ATOM     30  N   UNL     1       2.011   3.170  19.430  0.00  0.00    +0.000 N 
ATOM     31  C   UNL     1       0.984   3.364  20.279  0.00  0.00    +0.000 A 
ATOM     32  C   UNL     1       1.359   3.001  21.551  0.00  0.00    +0.000 A 
ATOM     33  C   UNL     1       2.669   2.569  21.470  0.00  0.00    +0.000 A 
ATOM     34  C   UNL     1       3.044   2.685  20.145  0.00  0.00    +0.000 A 
ENDBRANCH  29  30
ENDBRANCH  28  29
ENDBRANCH   1  28
TORSDOF 8
ENDMDL
MODEL 8
REMARK VINA RESULT:      -8.1      3.981      9.638
REMARK  Name = 
REMARK  11 active torsions:
REMARK  status: ('A' for Active; 'I' for Inactive)
REMARK    1  A    between atoms: C_1  and  O_2
REMARK    2  A    between atoms: O_2  and  C_3
REMARK    3  A    between atoms: C_5  and  O_6
REMARK    4  A    between atoms: O_6  and  C_7
REMARK    5  A    between atoms: C_9  and  N_10
REMARK    6  A    between atoms: N_10  and  C_11
REMARK    7  A    between atoms: N_10  and  C_18
REMARK    8  A    between atoms: C_11  and  C_12
REMARK    9  A    between atoms: C_12  and  N_13
REMARK   10  A    between atoms: C_24  and  C_25
REMARK   11  A    between atoms: N_28  and  C_29
REMARK                            x       y       z     vdW  Elec       q    Type
REMARK                         _______ _______ _______ _____ _____    ______ ____
ROOT
ATOM      1  N   UNL     1      -0.194  10.953  19.067  0.00  0.00    +0.000 N 
ENDROOT
BRANCH   1   2
ATOM      2  C   UNL     1       0.795   9.841  19.157  0.00  0.00    +0.000 A 
ATOM      3  C   UNL     1       0.750   9.029  20.322  0.00  0.00    +0.000 A 
ATOM      4  C   UNL     1       1.486   7.871  20.470  0.00  0.00    +0.000 A 
ATOM      5  C   UNL     1       2.346   7.454  19.487  0.00  0.00    +0.000 A 
ATOM      6  N   UNL     1       2.970   6.270  19.636  0.00  0.00    +0.000 NA
ATOM      7  C   UNL     1       3.834   5.790  18.722  0.00  0.00    +0.000 A 
ATOM      8  C   UNL     1       4.161   6.555  17.598  0.00  0.00    +0.000 A 
ATOM      9  N   UNL     1       3.506   7.771  17.416  0.00  0.00    +0.000 NA
ATOM     10  C   UNL     1       2.567   8.236  18.328  0.00  0.00    +0.000 A 
ATOM     11  C   UNL     1       1.776   9.441  18.156  0.00  0.00    +0.000 A 
BRANCH   8  12
ATOM     12  C   UNL     1       5.213   5.990  16.667  0.00  0.00    +0.000 A 
ATOM     13  C   UNL     1       6.578   6.237  16.640  0.00  0.00    +0.000 A 
ATOM     14  N   UNL     1       7.150   5.512  15.648  0.00  0.00    +0.000 NA
ATOM     15  N   UNL     1       6.202   4.815  15.044  0.00  0.00    +0.000 N 
ATOM     16  C   UNL     1       6.432   3.923  13.899  0.00  0.00    +0.000 C 
ATOM     17  C   UNL     1       5.018   5.058  15.634  0.00  0.00    +0.000 A 
ENDBRANCH   8  12
ENDBRANCH   1   2
BRANCH   1  22
ATOM     18  C   UNL     1      -3.910  11.410  18.223  0.00  0.00    +0.000 A 
ATOM     19  C   UNL     1      -3.984  10.799  16.963  0.00  0.00    +0.000 A 
ATOM     20  C   UNL     1      -2.850  10.234  16.386  0.00  0.00    +0.000 A 
ATOM     21  C   UNL     1      -1.637  10.277  17.090  0.00  0.00    +0.000 A 
ATOM     22  C   UNL     1      -1.489  10.921  18.364  0.00  0.00    +0.000 A 
ATOM     23  C   UNL     1      -2.674  11.465  18.905  0.00  0.00    +0.000 A 
BRANCH  18  25
ATOM     24  C   UNL     1      -4.998  12.874  19.853  0.00  0.00    +0.000 C 
ATOM     25  O   UNL     1      -5.004  11.971  18.805  0.00  0.00    +0.000 OA
ENDBRANCH  18  25
BRANCH  20  26
ATOM     26  O   UNL     1      -2.879   9.651  15.152  0.00  0.00    +0.000 OA
ATOM     27  C   UNL     1      -3.691  10.022  14.091  0.00  0.00    +0.000 C 
ENDBRANCH  20  26
ENDBRANCH   1  22
BRANCH   1  28
ATOM     28  C   UNL     1       0.239  12.257  19.654  0.00  0.00    +0.000 C 
BRANCH  28  29
ATOM     29  C   UNL     1       0.250  13.497  18.720  0.00  0.00    +0.000 C 
BRANCH  29  30
ATOM     30  N   UNL     1       1.570  14.102  18.560  0.00  0.00    +0.000 N 
ATOM     31  C   UNL     1       2.700  13.414  18.309  0.00  0.00    +0.000 A 
ATOM     32  C   UNL     1       3.770  14.276  18.277  0.00  0.00    +0.000 A 
ATOM     33  C   UNL     1       3.268  15.540  18.519  0.00  0.00    +0.000 A 
ATOM     34  C   UNL     1       1.904  15.401  18.690  0.00  0.00    +0.000 A 
ENDBRANCH  29  30
ENDBRANCH  28  29
ENDBRANCH   1  28
TORSDOF 8
ENDMDL
MODEL 9
REMARK VINA RESULT:      -8.1      0.684      2.375
REMARK  Name = 
REMARK  11 active torsions:
REMARK  status: ('A' for Active; 'I' for Inactive)
REMARK    1  A    between atoms: C_1  and  O_2
REMARK    2  A    between atoms: O_2  and  C_3
REMARK    3  A    between atoms: C_5  and  O_6
REMARK    4  A    between atoms: O_6  and  C_7
REMARK    5  A    between atoms: C_9  and  N_10
REMARK    6  A    between atoms: N_10  and  C_11
REMARK    7  A    between atoms: N_10  and  C_18
REMARK    8  A    between atoms: C_11  and  C_12
REMARK    9  A    between atoms: C_12  and  N_13
REMARK   10  A    between atoms: C_24  and  C_25
REMARK   11  A    between atoms: N_28  and  C_29
REMARK                            x       y       z     vdW  Elec       q    Type
REMARK                         _______ _______ _______ _____ _____    ______ ____
ROOT
ATOM      1  N   UNL     1       2.924   5.558  17.852  0.00  0.00    +0.000 N 
ENDROOT
BRANCH   1   2
ATOM      2  C   UNL     1       2.311   6.697  18.591  0.00  0.00    +0.000 A 
ATOM      3  C   UNL     1       1.967   6.474  19.952  0.00  0.00    +0.000 A 
ATOM      4  C   UNL     1       1.548   7.477  20.803  0.00  0.00    +0.000 A 
ATOM      5  C   UNL     1       1.404   8.764  20.356  0.00  0.00    +0.000 A 
ATOM      6  N   UNL     1       1.085   9.723  21.247  0.00  0.00    +0.000 NA
ATOM      7  C   UNL     1       0.919  11.011  20.890  0.00  0.00    +0.000 A 
ATOM      8  C   UNL     1       1.016  11.384  19.546  0.00  0.00    +0.000 A 
ATOM      9  N   UNL     1       1.371  10.410  18.616  0.00  0.00    +0.000 NA
ATOM     10  C   UNL     1       1.604   9.093  18.994  0.00  0.00    +0.000 A 
ATOM     11  C   UNL     1       2.071   8.049  18.101  0.00  0.00    +0.000 A 
BRANCH   8  12
ATOM     12  C   UNL     1       0.721  12.832  19.214  0.00  0.00    +0.000 A 
ATOM     13  C   UNL     1      -0.500  13.435  18.952  0.00  0.00    +0.000 A 
ATOM     14  N   UNL     1      -0.311  14.756  18.712  0.00  0.00    +0.000 NA
ATOM     15  N   UNL     1       0.983  15.014  18.810  0.00  0.00    +0.000 N 
ATOM     16  C   UNL     1       1.582  16.338  18.593  0.00  0.00    +0.000 C 
ATOM     17  C   UNL     1       1.645  13.887  19.127  0.00  0.00    +0.000 A 
ENDBRANCH   8  12
ENDBRANCH   1   2
BRANCH   1  22
ATOM     18  C   UNL     1       6.084   4.494  15.951  0.00  0.00    +0.000 A 
ATOM     19  C   UNL     1       7.059   5.294  16.564  0.00  0.00    +0.000 A 
ATOM     20  C   UNL     1       6.709   6.168  17.590  0.00  0.00    +0.000 A 
ATOM     21  C   UNL     1       5.370   6.226  18.006  0.00  0.00    +0.000 A 
ATOM     22  C   UNL     1       4.322   5.461  17.392  0.00  0.00    +0.000 A 
ATOM     23  C   UNL     1       4.738   4.584  16.367  0.00  0.00    +0.000 A 
BRANCH  18  25
ATOM     24  C   UNL     1       6.042   3.765  13.616  0.00  0.00    +0.000 C 
ATOM     25  O   UNL     1       6.403   3.634  14.945  0.00  0.00    +0.000 OA
ENDBRANCH  18  25
BRANCH  20  26
ATOM     26  O   UNL     1       7.625   6.979  18.195  0.00  0.00    +0.000 OA
ATOM     27  C   UNL     1       7.964   8.265  17.802  0.00  0.00    +0.000 C 
ENDBRANCH  20  26
ENDBRANCH   1  22
BRANCH   1  28
ATOM     28  C   UNL     1       1.988   4.467  17.445  0.00  0.00    +0.000 C 
BRANCH  28  29
ATOM     29  C   UNL     1       1.647   3.381  18.501  0.00  0.00    +0.000 C 
BRANCH  29  30
ATOM     30  N   UNL     1       2.820   2.713  19.058  0.00  0.00    +0.000 N 
ATOM     31  C   UNL     1       3.481   1.705  18.458  0.00  0.00    +0.000 A 
ATOM     32  C   UNL     1       4.495   1.265  19.274  0.00  0.00    +0.000 A 
ATOM     33  C   UNL     1       4.448   2.039  20.418  0.00  0.00    +0.000 A 
ATOM     34  C   UNL     1       3.402   2.926  20.255  0.00  0.00    +0.000 A 
ENDBRANCH  29  30
ENDBRANCH  28  29
ENDBRANCH   1  28
TORSDOF 8
ENDMDL
