MODEL 1
REMARK VINA RESULT:      -8.6      0.000      0.000
REMARK  Name = 
REMARK  6 active torsions:
REMARK  status: ('A' for Active; 'I' for Inactive)
REMARK    1  A    between atoms: C_1  and  O_2
REMARK    2  A    between atoms: O_2  and  C_3
REMARK    3  A    between atoms: C_6  and  C_7
REMARK    4  A    between atoms: C_9  and  O_10
REMARK    5  A    between atoms: O_10  and  C_11
REMARK    6  A    between atoms: N_22  and  C_23
REMARK                            x       y       z     vdW  Elec       q    Type
REMARK                         _______ _______ _______ _____ _____    ______ ____
ROOT
ATOM      1  C   UNL     1       1.772   6.892  20.121  0.00  0.00    +0.000 A 
ATOM      2  C   UNL     1       1.276   5.672  20.608  0.00  0.00    +0.000 A 
ATOM      3  C   UNL     1       1.744   4.426  20.116  0.00  0.00    +0.000 A 
ATOM      4  C   UNL     1       2.749   4.393  19.129  0.00  0.00    +0.000 A 
ATOM      5  C   UNL     1       3.236   5.610  18.576  0.00  0.00    +0.000 A 
ATOM      6  C   UNL     1       2.699   6.821  19.069  0.00  0.00    +0.000 A 
ATOM      7  C   UNL     1       4.179   5.559  17.518  0.00  0.00    +0.000 A 
ATOM      8  C   UNL     1       4.456   6.617  16.622  0.00  0.00    +0.000 A 
ATOM      9  C   UNL     1       5.316   6.439  15.536  0.00  0.00    +0.000 A 
ATOM     10  C   UNL     1       5.979   5.231  15.361  0.00  0.00    +0.000 A 
ATOM     11  C   UNL     1       5.797   4.204  16.279  0.00  0.00    +0.000 A 
ATOM     12  C   UNL     1       4.871   4.353  17.319  0.00  0.00    +0.000 A 
ATOM     13  C   UNL     1       4.510   3.256  18.084  0.00  0.00    +0.000 A 
ATOM     14  N   UNL     1       3.257   3.240  18.589  0.00  0.00    +0.000 N 
ATOM     15  C   UNL     1       2.335   2.407  17.755  0.00  0.00    +0.000 C 
ENDROOT
BRANCH   1  19
ATOM     16  C   UNL     1       0.440  10.763  21.549  0.00  0.00    +0.000 A 
ATOM     17  C   UNL     1       0.726  10.560  20.206  0.00  0.00    +0.000 A 
ATOM     18  C   UNL     1       1.193   9.315  19.768  0.00  0.00    +0.000 A 
ATOM     19  C   UNL     1       1.382   8.230  20.649  0.00  0.00    +0.000 A 
ATOM     20  C   UNL     1       1.137   8.473  22.011  0.00  0.00    +0.000 A 
ATOM     21  C   UNL     1       0.671   9.729  22.455  0.00  0.00    +0.000 A 
BRANCH  16  23
ATOM     22  C   UNL     1      -1.098  12.058  22.789  0.00  0.00    +0.000 C 
ATOM     23  O   UNL     1      -0.020  12.012  21.859  0.00  0.00    +0.000 OA
ENDBRANCH  16  23
ENDBRANCH   1  19
BRANCH   3  24
ATOM     24  O   UNL     1       1.087   3.346  20.649  0.00  0.00    +0.000 OA
ATOM     25  C   UNL     1       1.699   2.634  21.720  0.00  0.00    +0.000 C 
ENDBRANCH   3  24
TORSDOF 3
ENDMDL
MODEL 2
REMARK VINA RESULT:      -8.3      0.746      1.213
REMARK  Name = 
REMARK  6 active torsions:
REMARK  status: ('A' for Active; 'I' for Inactive)
REMARK    1  A    between atoms: C_1  and  O_2
REMARK    2  A    between atoms: O_2  and  C_3
REMARK    3  A    between atoms: C_6  and  C_7
REMARK    4  A    between atoms: C_9  and  O_10
REMARK    5  A    between atoms: O_10  and  C_11
REMARK    6  A    between atoms: N_22  and  C_23
REMARK                            x       y       z     vdW  Elec       q    Type
REMARK                         _______ _______ _______ _____ _____    ______ ____
ROOT
ATOM      1  C   UNL     1       2.019   7.020  20.140  0.00  0.00    +0.000 A 
ATOM      2  C   UNL     1       1.861   5.859  20.913  0.00  0.00    +0.000 A 
ATOM      3  C   UNL     1       2.596   4.676  20.643  0.00  0.00    +0.000 A 
ATOM      4  C   UNL     1       3.532   4.655  19.588  0.00  0.00    +0.000 A 
ATOM      5  C   UNL     1       3.679   5.796  18.753  0.00  0.00    +0.000 A 
ATOM      6  C   UNL     1       2.884   6.931  19.037  0.00  0.00    +0.000 A 
ATOM      7  C   UNL     1       4.554   5.729  17.639  0.00  0.00    +0.000 A 
ATOM      8  C   UNL     1       4.521   6.595  16.523  0.00  0.00    +0.000 A 
ATOM      9  C   UNL     1       5.346   6.382  15.416  0.00  0.00    +0.000 A 
ATOM     10  C   UNL     1       6.277   5.350  15.427  0.00  0.00    +0.000 A 
ATOM     11  C   UNL     1       6.395   4.540  16.550  0.00  0.00    +0.000 A 
ATOM     12  C   UNL     1       5.511   4.700  17.624  0.00  0.00    +0.000 A 
ATOM     13  C   UNL     1       5.467   3.748  18.629  0.00  0.00    +0.000 A 
ATOM     14  N   UNL     1       4.280   3.559  19.249  0.00  0.00    +0.000 N 
ATOM     15  C   UNL     1       3.553   2.372  18.699  0.00  0.00    +0.000 C 
ENDROOT
BRANCH   1  19
ATOM     16  C   UNL     1       0.211  10.847  21.082  0.00  0.00    +0.000 A 
ATOM     17  C   UNL     1       0.345   9.864  22.053  0.00  0.00    +0.000 A 
ATOM     18  C   UNL     1       0.895   8.620  21.722  0.00  0.00    +0.000 A 
ATOM     19  C   UNL     1       1.338   8.316  20.419  0.00  0.00    +0.000 A 
ATOM     20  C   UNL     1       1.146   9.305  19.440  0.00  0.00    +0.000 A 
ATOM     21  C   UNL     1       0.586  10.558  19.771  0.00  0.00    +0.000 A 
BRANCH  16  23
ATOM     22  C   UNL     1      -1.058  11.951  22.740  0.00  0.00    +0.000 C 
ATOM     23  O   UNL     1      -0.326  12.024  21.521  0.00  0.00    +0.000 OA
ENDBRANCH  16  23
ENDBRANCH   1  19
BRANCH   3  24
ATOM     24  O   UNL     1       2.250   3.620  21.448  0.00  0.00    +0.000 OA
ATOM     25  C   UNL     1       1.075   2.877  21.132  0.00  0.00    +0.000 C 
ENDBRANCH   3  24
TORSDOF 3
ENDMDL
MODEL 3
REMARK VINA RESULT:      -8.3      1.282      1.523
REMARK  Name = 
REMARK  6 active torsions:
REMARK  status: ('A' for Active; 'I' for Inactive)
REMARK    1  A    between atoms: C_1  and  O_2
REMARK    2  A    between atoms: O_2  and  C_3
REMARK    3  A    between atoms: C_6  and  C_7
REMARK    4  A    between atoms: C_9  and  O_10
REMARK    5  A    between atoms: O_10  and  C_11
REMARK    6  A    between atoms: N_22  and  C_23
REMARK                            x       y       z     vdW  Elec       q    Type
REMARK                         _______ _______ _______ _____ _____    ______ ____
ROOT
ATOM      1  C   UNL     1       2.099   7.222  19.629  0.00  0.00    +0.000 A 
ATOM      2  C   UNL     1       1.911   6.160  20.529  0.00  0.00    +0.000 A 
ATOM      3  C   UNL     1       2.674   4.968  20.447  0.00  0.00    +0.000 A 
ATOM      4  C   UNL     1       3.668   4.836  19.455  0.00  0.00    +0.000 A 
ATOM      5  C   UNL     1       3.849   5.870  18.495  0.00  0.00    +0.000 A 
ATOM      6  C   UNL     1       3.026   7.015  18.595  0.00  0.00    +0.000 A 
ATOM      7  C   UNL     1       4.787   5.684  17.448  0.00  0.00    +0.000 A 
ATOM      8  C   UNL     1       4.807   6.407  16.234  0.00  0.00    +0.000 A 
ATOM      9  C   UNL     1       5.696   6.076  15.209  0.00  0.00    +0.000 A 
ATOM     10  C   UNL     1       6.636   5.071  15.398  0.00  0.00    +0.000 A 
ATOM     11  C   UNL     1       6.701   4.406  16.616  0.00  0.00    +0.000 A 
ATOM     12  C   UNL     1       5.755   4.679  17.612  0.00  0.00    +0.000 A 
ATOM     13  C   UNL     1       5.665   3.856  18.722  0.00  0.00    +0.000 A 
ATOM     14  N   UNL     1       4.448   3.721  19.294  0.00  0.00    +0.000 N 
ATOM     15  C   UNL     1       3.767   2.463  18.854  0.00  0.00    +0.000 C 
ENDROOT
BRANCH   1  19
ATOM     16  C   UNL     1      -0.129  10.940  19.725  0.00  0.00    +0.000 A 
ATOM     17  C   UNL     1       0.507  10.521  18.565  0.00  0.00    +0.000 A 
ATOM     18  C   UNL     1       1.255   9.338  18.562  0.00  0.00    +0.000 A 
ATOM     19  C   UNL     1       1.387   8.529  19.709  0.00  0.00    +0.000 A 
ATOM     20  C   UNL     1       0.779   8.997  20.886  0.00  0.00    +0.000 A 
ATOM     21  C   UNL     1       0.030  10.193  20.892  0.00  0.00    +0.000 A 
BRANCH  16  23
ATOM     22  C   UNL     1      -0.589  12.861  18.430  0.00  0.00    +0.000 C 
ATOM     23  O   UNL     1      -0.840  12.101  19.608  0.00  0.00    +0.000 OA
ENDBRANCH  16  23
ENDBRANCH   1  19
BRANCH   3  24
ATOM     24  O   UNL     1       2.295   4.011  21.354  0.00  0.00    +0.000 OA
ATOM     25  C   UNL     1       1.176   3.184  21.048  0.00  0.00    +0.000 C 
ENDBRANCH   3  24
TORSDOF 3
ENDMDL
MODEL 4
REMARK VINA RESULT:      -8.0      2.626      4.333
REMARK  Name = 
REMARK  6 active torsions:
REMARK  status: ('A' for Active; 'I' for Inactive)
REMARK    1  A    between atoms: C_1  and  O_2
REMARK    2  A    between atoms: O_2  and  C_3
REMARK    3  A    between atoms: C_6  and  C_7
REMARK    4  A    between atoms: C_9  and  O_10
REMARK    5  A    between atoms: O_10  and  C_11
REMARK    6  A    between atoms: N_22  and  C_23
REMARK                            x       y       z     vdW  Elec       q    Type
REMARK                         _______ _______ _______ _____ _____    ______ ____
ROOT
ATOM      1  C   UNL     1       2.590   8.170  17.932  0.00  0.00    +0.000 A 
ATOM      2  C   UNL     1       3.822   8.113  17.259  0.00  0.00    +0.000 A 
ATOM      3  C   UNL     1       4.514   6.890  17.072  0.00  0.00    +0.000 A 
ATOM      4  C   UNL     1       3.954   5.685  17.546  0.00  0.00    +0.000 A 
ATOM      5  C   UNL     1       2.735   5.714  18.277  0.00  0.00    +0.000 A 
ATOM      6  C   UNL     1       2.113   6.968  18.478  0.00  0.00    +0.000 A 
ATOM      7  C   UNL     1       2.232   4.508  18.829  0.00  0.00    +0.000 A 
ATOM      8  C   UNL     1       1.286   4.423  19.875  0.00  0.00    +0.000 A 
ATOM      9  C   UNL     1       0.935   3.193  20.436  0.00  0.00    +0.000 A 
ATOM     10  C   UNL     1       1.459   2.014  19.918  0.00  0.00    +0.000 A 
ATOM     11  C   UNL     1       2.320   2.062  18.829  0.00  0.00    +0.000 A 
ATOM     12  C   UNL     1       2.737   3.298  18.322  0.00  0.00    +0.000 A 
ATOM     13  C   UNL     1       3.773   3.354  17.404  0.00  0.00    +0.000 A 
ATOM     14  N   UNL     1       4.552   4.459  17.418  0.00  0.00    +0.000 N 
ATOM     15  C   UNL     1       5.822   4.230  18.176  0.00  0.00    +0.000 C 
ENDROOT
BRANCH   1  19
ATOM     16  C   UNL     1       0.153  11.693  18.601  0.00  0.00    +0.000 A 
ATOM     17  C   UNL     1      -0.432  10.454  18.387  0.00  0.00    +0.000 A 
ATOM     18  C   UNL     1       0.369   9.333  18.133  0.00  0.00    +0.000 A 
ATOM     19  C   UNL     1       1.776   9.408  18.093  0.00  0.00    +0.000 A 
ATOM     20  C   UNL     1       2.345  10.681  18.260  0.00  0.00    +0.000 A 
ATOM     21  C   UNL     1       1.539  11.813  18.510  0.00  0.00    +0.000 A 
BRANCH  16  23
ATOM     22  C   UNL     1      -0.203  14.027  18.686  0.00  0.00    +0.000 C 
ATOM     23  O   UNL     1      -0.723  12.711  18.851  0.00  0.00    +0.000 OA
ENDBRANCH  16  23
ENDBRANCH   1  19
BRANCH   3  24
ATOM     24  O   UNL     1       5.737   7.039  16.469  0.00  0.00    +0.000 OA
ATOM     25  C   UNL     1       6.849   7.434  17.267  0.00  0.00    +0.000 C 
ENDBRANCH   3  24
TORSDOF 3
ENDMDL
MODEL 5
REMARK VINA RESULT:      -7.9      1.366      1.846
REMARK  Name = 
REMARK  6 active torsions:
REMARK  status: ('A' for Active; 'I' for Inactive)
REMARK    1  A    between atoms: C_1  and  O_2
REMARK    2  A    between atoms: O_2  and  C_3
REMARK    3  A    between atoms: C_6  and  C_7
REMARK    4  A    between atoms: C_9  and  O_10
REMARK    5  A    between atoms: O_10  and  C_11
REMARK    6  A    between atoms: N_22  and  C_23
REMARK                            x       y       z     vdW  Elec       q    Type
REMARK                         _______ _______ _______ _____ _____    ______ ____
ROOT
ATOM      1  C   UNL     1       2.290   7.415  19.136  0.00  0.00    +0.000 A 
ATOM      2  C   UNL     1       2.063   6.424  20.105  0.00  0.00    +0.000 A 
ATOM      3  C   UNL     1       2.797   5.211  20.118  0.00  0.00    +0.000 A 
ATOM      4  C   UNL     1       3.800   4.985  19.153  0.00  0.00    +0.000 A 
ATOM      5  C   UNL     1       4.019   5.944  18.126  0.00  0.00    +0.000 A 
ATOM      6  C   UNL     1       3.225   7.114  18.133  0.00  0.00    +0.000 A 
ATOM      7  C   UNL     1       4.966   5.662  17.108  0.00  0.00    +0.000 A 
ATOM      8  C   UNL     1       5.020   6.297  15.847  0.00  0.00    +0.000 A 
ATOM      9  C   UNL     1       5.914   5.873  14.860  0.00  0.00    +0.000 A 
ATOM     10  C   UNL     1       6.826   4.861  15.133  0.00  0.00    +0.000 A 
ATOM     11  C   UNL     1       6.857   4.282  16.395  0.00  0.00    +0.000 A 
ATOM     12  C   UNL     1       5.907   4.648  17.356  0.00  0.00    +0.000 A 
ATOM     13  C   UNL     1       5.781   3.907  18.520  0.00  0.00    +0.000 A 
ATOM     14  N   UNL     1       4.554   3.843  19.082  0.00  0.00    +0.000 N 
ATOM     15  C   UNL     1       3.847   2.574  18.722  0.00  0.00    +0.000 C 
ENDROOT
BRANCH   1  19
ATOM     16  C   UNL     1       0.448  11.339  19.240  0.00  0.00    +0.000 A 
ATOM     17  C   UNL     1       0.273  10.442  20.285  0.00  0.00    +0.000 A 
ATOM     18  C   UNL     1       0.842   9.165  20.218  0.00  0.00    +0.000 A 
ATOM     19  C   UNL     1       1.610   8.741  19.114  0.00  0.00    +0.000 A 
ATOM     20  C   UNL     1       1.731   9.644  18.045  0.00  0.00    +0.000 A 
ATOM     21  C   UNL     1       1.153  10.931  18.109  0.00  0.00    +0.000 A 
BRANCH  16  23
ATOM     22  C   UNL     1      -0.584  12.839  20.744  0.00  0.00    +0.000 C 
ATOM     23  O   UNL     1      -0.140  12.558  19.420  0.00  0.00    +0.000 OA
ENDBRANCH  16  23
ENDBRANCH   1  19
BRANCH   3  24
ATOM     24  O   UNL     1       2.383   4.330  21.085  0.00  0.00    +0.000 OA
ATOM     25  C   UNL     1       1.191   3.581  20.862  0.00  0.00    +0.000 C 
ENDBRANCH   3  24
TORSDOF 3
ENDMDL
MODEL 6
REMARK VINA RESULT:      -7.6      2.353      4.196
REMARK  Name = 
REMARK  6 active torsions:
REMARK  status: ('A' for Active; 'I' for Inactive)
REMARK    1  A    between atoms: C_1  and  O_2
REMARK    2  A    between atoms: O_2  and  C_3
REMARK    3  A    between atoms: C_6  and  C_7
REMARK    4  A    between atoms: C_9  and  O_10
REMARK    5  A    between atoms: O_10  and  C_11
REMARK    6  A    between atoms: N_22  and  C_23
REMARK                            x       y       z     vdW  Elec       q    Type
REMARK                         _______ _______ _______ _____ _____    ______ ____
ROOT
ATOM      1  C   UNL     1       2.602   8.209  18.140  0.00  0.00    +0.000 A 
ATOM      2  C   UNL     1       3.791   8.148  17.394  0.00  0.00    +0.000 A 
ATOM      3  C   UNL     1       4.409   6.912  17.074  0.00  0.00    +0.000 A 
ATOM      4  C   UNL     1       3.816   5.702  17.488  0.00  0.00    +0.000 A 
ATOM      5  C   UNL     1       2.642   5.729  18.289  0.00  0.00    +0.000 A 
ATOM      6  C   UNL     1       2.096   6.991  18.620  0.00  0.00    +0.000 A 
ATOM      7  C   UNL     1       2.110   4.508  18.776  0.00  0.00    +0.000 A 
ATOM      8  C   UNL     1       1.218   4.384  19.866  0.00  0.00    +0.000 A 
ATOM      9  C   UNL     1       0.838   3.131  20.352  0.00  0.00    +0.000 A 
ATOM     10  C   UNL     1       1.272   1.975  19.716  0.00  0.00    +0.000 A 
ATOM     11  C   UNL     1       2.074   2.068  18.585  0.00  0.00    +0.000 A 
ATOM     12  C   UNL     1       2.524   3.320  18.150  0.00  0.00    +0.000 A 
ATOM     13  C   UNL     1       3.510   3.400  17.180  0.00  0.00    +0.000 A 
ATOM     14  N   UNL     1       4.343   4.463  17.232  0.00  0.00    +0.000 N 
ATOM     15  C   UNL     1       5.640   4.117  17.895  0.00  0.00    +0.000 C 
ENDROOT
BRANCH   1  19
ATOM     16  C   UNL     1       0.416  11.895  18.796  0.00  0.00    +0.000 A 
ATOM     17  C   UNL     1       1.665  11.906  18.190  0.00  0.00    +0.000 A 
ATOM     18  C   UNL     1       2.374  10.711  18.022  0.00  0.00    +0.000 A 
ATOM     19  C   UNL     1       1.862   9.467  18.441  0.00  0.00    +0.000 A 
ATOM     20  C   UNL     1       0.621   9.484  19.099  0.00  0.00    +0.000 A 
ATOM     21  C   UNL     1      -0.094  10.689  19.274  0.00  0.00    +0.000 A 
BRANCH  16  23
ATOM     22  C   UNL     1      -1.376  13.153  19.682  0.00  0.00    +0.000 C 
ATOM     23  O   UNL     1      -0.189  13.116  18.896  0.00  0.00    +0.000 OA
ENDBRANCH  16  23
ENDBRANCH   1  19
BRANCH   3  24
ATOM     24  O   UNL     1       5.604   7.052  16.414  0.00  0.00    +0.000 OA
ATOM     25  C   UNL     1       6.773   7.351  17.172  0.00  0.00    +0.000 C 
ENDBRANCH   3  24
TORSDOF 3
ENDMDL
MODEL 7
REMARK VINA RESULT:      -7.4      3.767      8.341
REMARK  Name = 
REMARK  6 active torsions:
REMARK  status: ('A' for Active; 'I' for Inactive)
REMARK    1  A    between atoms: C_1  and  O_2
REMARK    2  A    between atoms: O_2  and  C_3
REMARK    3  A    between atoms: C_6  and  C_7
REMARK    4  A    between atoms: C_9  and  O_10
REMARK    5  A    between atoms: O_10  and  C_11
REMARK    6  A    between atoms: N_22  and  C_23
REMARK                            x       y       z     vdW  Elec       q    Type
REMARK                         _______ _______ _______ _____ _____    ______ ____
ROOT
ATOM      1  C   UNL     1       1.289   9.327  19.122  0.00  0.00    +0.000 A 
ATOM      2  C   UNL     1       1.528  10.310  20.097  0.00  0.00    +0.000 A 
ATOM      3  C   UNL     1       0.608  11.363  20.335  0.00  0.00    +0.000 A 
ATOM      4  C   UNL     1      -0.593  11.427  19.599  0.00  0.00    +0.000 A 
ATOM      5  C   UNL     1      -0.842  10.479  18.570  0.00  0.00    +0.000 A 
ATOM      6  C   UNL     1       0.133   9.480  18.342  0.00  0.00    +0.000 A 
ATOM      7  C   UNL     1      -2.010  10.611  17.776  0.00  0.00    +0.000 A 
ATOM      8  C   UNL     1      -2.205  10.018  16.508  0.00  0.00    +0.000 A 
ATOM      9  C   UNL     1      -3.340  10.298  15.744  0.00  0.00    +0.000 A 
ATOM     10  C   UNL     1      -4.343  11.112  16.257  0.00  0.00    +0.000 A 
ATOM     11  C   UNL     1      -4.221  11.633  17.539  0.00  0.00    +0.000 A 
ATOM     12  C   UNL     1      -3.046  11.422  18.270  0.00  0.00    +0.000 A 
ATOM     13  C   UNL     1      -2.821  12.134  19.437  0.00  0.00    +0.000 A 
ATOM     14  N   UNL     1      -1.536  12.410  19.754  0.00  0.00    +0.000 N 
ATOM     15  C   UNL     1      -1.154  13.800  19.353  0.00  0.00    +0.000 C 
ENDROOT
BRANCH   1  19
ATOM     16  C   UNL     1       3.680   5.785  18.387  0.00  0.00    +0.000 A 
ATOM     17  C   UNL     1       2.933   5.911  19.550  0.00  0.00    +0.000 A 
ATOM     18  C   UNL     1       2.198   7.078  19.790  0.00  0.00    +0.000 A 
ATOM     19  C   UNL     1       2.175   8.153  18.878  0.00  0.00    +0.000 A 
ATOM     20  C   UNL     1       2.978   8.027  17.733  0.00  0.00    +0.000 A 
ATOM     21  C   UNL     1       3.725   6.853  17.492  0.00  0.00    +0.000 A 
BRANCH  16  23
ATOM     22  C   UNL     1       4.244   3.708  19.358  0.00  0.00    +0.000 C 
ATOM     23  O   UNL     1       4.346   4.600  18.253  0.00  0.00    +0.000 OA
ENDBRANCH  16  23
ENDBRANCH   1  19
BRANCH   3  24
ATOM     24  O   UNL     1       1.047  12.274  21.262  0.00  0.00    +0.000 OA
ATOM     25  C   UNL     1       2.063  13.199  20.884  0.00  0.00    +0.000 C 
ENDBRANCH   3  24
TORSDOF 3
ENDMDL
MODEL 8
REMARK VINA RESULT:      -7.4      3.789      8.341
REMARK  Name = 
REMARK  6 active torsions:
REMARK  status: ('A' for Active; 'I' for Inactive)
REMARK    1  A    between atoms: C_1  and  O_2
REMARK    2  A    between atoms: O_2  and  C_3
REMARK    3  A    between atoms: C_6  and  C_7
REMARK    4  A    between atoms: C_9  and  O_10
REMARK    5  A    between atoms: O_10  and  C_11
REMARK    6  A    between atoms: N_22  and  C_23
REMARK                            x       y       z     vdW  Elec       q    Type
REMARK                         _______ _______ _______ _____ _____    ______ ____
ROOT
ATOM      1  C   UNL     1       1.284   9.293  19.081  0.00  0.00    +0.000 A 
ATOM      2  C   UNL     1       1.551  10.271  20.054  0.00  0.00    +0.000 A 
ATOM      3  C   UNL     1       0.649  11.336  20.307  0.00  0.00    +0.000 A 
ATOM      4  C   UNL     1      -0.562  11.418  19.590  0.00  0.00    +0.000 A 
ATOM      5  C   UNL     1      -0.839  10.475  18.563  0.00  0.00    +0.000 A 
ATOM      6  C   UNL     1       0.118   9.463  18.319  0.00  0.00    +0.000 A 
ATOM      7  C   UNL     1      -2.017  10.625  17.787  0.00  0.00    +0.000 A 
ATOM      8  C   UNL     1      -2.239  10.037  16.521  0.00  0.00    +0.000 A 
ATOM      9  C   UNL     1      -3.382  10.335  15.775  0.00  0.00    +0.000 A 
ATOM     10  C   UNL     1      -4.366  11.161  16.305  0.00  0.00    +0.000 A 
ATOM     11  C   UNL     1      -4.217  11.678  17.586  0.00  0.00    +0.000 A 
ATOM     12  C   UNL     1      -3.034  11.449  18.299  0.00  0.00    +0.000 A 
ATOM     13  C   UNL     1      -2.781  12.156  19.463  0.00  0.00    +0.000 A 
ATOM     14  N   UNL     1      -1.489  12.413  19.762  0.00  0.00    +0.000 N 
ATOM     15  C   UNL     1      -1.093  13.799  19.358  0.00  0.00    +0.000 C 
ENDROOT
BRANCH   1  19
ATOM     16  C   UNL     1       3.981   5.977  18.351  0.00  0.00    +0.000 A 
ATOM     17  C   UNL     1       3.873   7.020  17.442  0.00  0.00    +0.000 A 
ATOM     18  C   UNL     1       2.968   8.063  17.674  0.00  0.00    +0.000 A 
ATOM     19  C   UNL     1       2.150   8.107  18.821  0.00  0.00    +0.000 A 
ATOM     20  C   UNL     1       2.237   7.017  19.701  0.00  0.00    +0.000 A 
ATOM     21  C   UNL     1       3.144   5.961  19.466  0.00  0.00    +0.000 A 
BRANCH  16  23
ATOM     22  C   UNL     1       4.536   4.143  16.971  0.00  0.00    +0.000 C 
ATOM     23  O   UNL     1       4.904   5.023  18.029  0.00  0.00    +0.000 OA
ENDBRANCH  16  23
ENDBRANCH   1  19
BRANCH   3  24
ATOM     24  O   UNL     1       1.115  12.239  21.230  0.00  0.00    +0.000 OA
ATOM     25  C   UNL     1       2.113  13.174  20.828  0.00  0.00    +0.000 C 
ENDBRANCH   3  24
TORSDOF 3
ENDMDL
MODEL 9
REMARK VINA RESULT:      -7.3      2.620      7.297
REMARK  Name = 
REMARK  6 active torsions:
REMARK  status: ('A' for Active; 'I' for Inactive)
REMARK    1  A    between atoms: C_1  and  O_2
REMARK    2  A    between atoms: O_2  and  C_3
REMARK    3  A    between atoms: C_6  and  C_7
REMARK    4  A    between atoms: C_9  and  O_10
REMARK    5  A    between atoms: O_10  and  C_11
REMARK    6  A    between atoms: N_22  and  C_23
REMARK                            x       y       z     vdW  Elec       q    Type
REMARK                         _______ _______ _______ _____ _____    ______ ____
ROOT
ATOM      1  C   UNL     1       3.339   6.509  18.092  0.00  0.00    +0.000 A 
ATOM      2  C   UNL     1       2.855   5.847  19.233  0.00  0.00    +0.000 A 
ATOM      3  C   UNL     1       2.001   6.492  20.163  0.00  0.00    +0.000 A 
ATOM      4  C   UNL     1       1.598   7.825  19.942  0.00  0.00    +0.000 A 
ATOM      5  C   UNL     1       2.111   8.541  18.826  0.00  0.00    +0.000 A 
ATOM      6  C   UNL     1       2.999   7.864  17.957  0.00  0.00    +0.000 A 
ATOM      7  C   UNL     1       1.772   9.909  18.668  0.00  0.00    +0.000 A 
ATOM      8  C   UNL     1       2.481  10.837  17.872  0.00  0.00    +0.000 A 
ATOM      9  C   UNL     1       2.144  12.193  17.868  0.00  0.00    +0.000 A 
ATOM     10  C   UNL     1       1.047  12.642  18.593  0.00  0.00    +0.000 A 
ATOM     11  C   UNL     1       0.276  11.736  19.310  0.00  0.00    +0.000 A 
ATOM     12  C   UNL     1       0.663  10.392  19.382  0.00  0.00    +0.000 A 
ATOM     13  C   UNL     1       0.043   9.543  20.284  0.00  0.00    +0.000 A 
ATOM     14  N   UNL     1       0.783   8.530  20.788  0.00  0.00    +0.000 N 
ATOM     15  C   UNL     1       1.321   8.862  22.145  0.00  0.00    +0.000 C 
ENDROOT
BRANCH   1  19
ATOM     16  C   UNL     1       5.947   4.732  15.119  0.00  0.00    +0.000 A 
ATOM     17  C   UNL     1       5.748   6.104  15.162  0.00  0.00    +0.000 A 
ATOM     18  C   UNL     1       4.872   6.658  16.104  0.00  0.00    +0.000 A 
ATOM     19  C   UNL     1       4.173   5.866  17.037  0.00  0.00    +0.000 A 
ATOM     20  C   UNL     1       4.347   4.476  16.942  0.00  0.00    +0.000 A 
ATOM     21  C   UNL     1       5.226   3.915  15.990  0.00  0.00    +0.000 A 
BRANCH  16  23
ATOM     22  C   UNL     1       6.255   3.694  13.020  0.00  0.00    +0.000 C 
ATOM     23  O   UNL     1       6.831   4.305  14.170  0.00  0.00    +0.000 OA
ENDBRANCH  16  23
ENDBRANCH   1  19
BRANCH   3  24
ATOM     24  O   UNL     1       1.698   5.718  21.256  0.00  0.00    +0.000 OA
ATOM     25  C   UNL     1       1.933   4.314  21.185  0.00  0.00    +0.000 C 
ENDBRANCH   3  24
TORSDOF 3
ENDMDL
