MODEL 1
REMARK VINA RESULT:      -9.1      0.000      0.000
REMARK  Name = 
REMARK  4 active torsions:
REMARK  status: ('A' for Active; 'I' for Inactive)
REMARK    1  A    between atoms: C_2  and  C_18
REMARK    2  A    between atoms: N_3  and  C_4
REMARK    3  A    between atoms: C_4  and  C_5
REMARK    4  A    between atoms: C_21  and  C_22
REMARK                            x       y       z     vdW  Elec       q    Type
REMARK                         _______ _______ _______ _____ _____    ______ ____
ROOT
ATOM      1  O   UNL     1       1.530  10.794  18.872  0.00  0.00    +0.000 OA
ATOM      2  C   UNL     1       0.707  10.046  18.360  0.00  0.00    +0.000 C 
ATOM      3  N   UNL     1       1.019   8.788  17.890  0.00  0.00    +0.000 N 
ATOM      4  H   UNL     1       0.372   8.265  17.310  0.00  0.00    +0.000 HD
ENDROOT
BRANCH   2   5
ATOM      5  C   UNL     1      -0.709  10.481  18.194  0.00  0.00    +0.000 A 
ATOM      6  C   UNL     1      -1.213  11.498  19.015  0.00  0.00    +0.000 A 
ATOM      7  C   UNL     1      -2.546  11.908  18.892  0.00  0.00    +0.000 A 
ATOM      8  C   UNL     1      -3.399  11.296  17.961  0.00  0.00    +0.000 A 
ATOM      9  C   UNL     1      -2.887  10.271  17.148  0.00  0.00    +0.000 A 
ATOM     10  C   UNL     1      -1.553   9.865  17.265  0.00  0.00    +0.000 A 
BRANCH   8  11
ATOM     11  C   UNL     1      -4.846  11.712  17.833  0.00  0.00    +0.000 C 
ATOM     12  F   UNL     1      -5.253  12.576  18.803  0.00  0.00    +0.000 F 
ATOM     13  F   UNL     1      -5.106  12.331  16.648  0.00  0.00    +0.000 F 
ATOM     14  F   UNL     1      -5.700  10.652  17.896  0.00  0.00    +0.000 F 
ENDBRANCH   8  11
ENDBRANCH   2   5
BRANCH   3  15
ATOM     15  C   UNL     1       2.376   8.280  17.969  0.00  0.00    +0.000 C 
BRANCH  15  16
ATOM     16  C   UNL     1       2.562   7.264  19.110  0.00  0.00    +0.000 C 
ATOM     17  O   UNL     1       1.898   7.363  20.146  0.00  0.00    +0.000 OA
ATOM     18  N   UNL     1       3.480   6.236  18.894  0.00  0.00    +0.000 N 
ATOM     19  C   UNL     1       4.302   6.092  17.695  0.00  0.00    +0.000 C 
ATOM     20  C   UNL     1       3.913   4.826  16.944  0.00  0.00    +0.000 C 
ATOM     21  C   UNL     1       4.012   3.605  17.860  0.00  0.00    +0.000 C 
ATOM     22  C   UNL     1       3.204   3.765  19.178  0.00  0.00    +0.000 C 
ATOM     23  C   UNL     1       1.678   3.717  18.886  0.00  0.00    +0.000 C 
ATOM     24  C   UNL     1       0.843   3.492  20.116  0.00  0.00    +0.000 C 
ATOM     25  C   UNL     1       1.339   2.997  21.260  0.00  0.00    +0.000 C 
ATOM     26  C   UNL     1       2.771   2.586  21.424  0.00  0.00    +0.000 C 
ATOM     27  C   UNL     1       3.542   2.565  20.101  0.00  0.00    +0.000 C 
ATOM     28  C   UNL     1       3.586   5.122  19.846  0.00  0.00    +0.000 C 
ENDBRANCH  15  16
ENDBRANCH   3  15
TORSDOF 4
ENDMDL
MODEL 2
REMARK VINA RESULT:      -8.6      0.723      1.120
REMARK  Name = 
REMARK  4 active torsions:
REMARK  status: ('A' for Active; 'I' for Inactive)
REMARK    1  A    between atoms: C_2  and  C_18
REMARK    2  A    between atoms: N_3  and  C_4
REMARK    3  A    between atoms: C_4  and  C_5
REMARK    4  A    between atoms: C_21  and  C_22
REMARK                            x       y       z     vdW  Elec       q    Type
REMARK                         _______ _______ _______ _____ _____    ______ ____
ROOT
ATOM      1  O   UNL     1       1.293  10.434  19.582  0.00  0.00    +0.000 OA
ATOM      2  C   UNL     1       0.659   9.990  18.635  0.00  0.00    +0.000 C 
ATOM      3  N   UNL     1       1.178   9.082  17.737  0.00  0.00    +0.000 N 
ATOM      4  H   UNL     1       0.705   8.870  16.865  0.00  0.00    +0.000 HD
ENDROOT
BRANCH   2   5
ATOM      5  C   UNL     1      -0.741  10.439  18.385  0.00  0.00    +0.000 A 
ATOM      6  C   UNL     1      -1.284  11.458  19.178  0.00  0.00    +0.000 A 
ATOM      7  C   UNL     1      -2.604  11.880  18.976  0.00  0.00    +0.000 A 
ATOM      8  C   UNL     1      -3.404  11.280  17.992  0.00  0.00    +0.000 A 
ATOM      9  C   UNL     1      -2.853  10.253  17.207  0.00  0.00    +0.000 A 
ATOM     10  C   UNL     1      -1.533   9.834  17.403  0.00  0.00    +0.000 A 
BRANCH   8  11
ATOM     11  C   UNL     1      -4.836  11.710  17.778  0.00  0.00    +0.000 C 
ATOM     12  F   UNL     1      -5.029  12.413  16.629  0.00  0.00    +0.000 F 
ATOM     13  F   UNL     1      -5.693  10.653  17.718  0.00  0.00    +0.000 F 
ATOM     14  F   UNL     1      -5.297  12.506  18.783  0.00  0.00    +0.000 F 
ENDBRANCH   8  11
ENDBRANCH   2   5
BRANCH   3  15
ATOM     15  C   UNL     1       2.543   8.607  17.866  0.00  0.00    +0.000 C 
BRANCH  15  16
ATOM     16  C   UNL     1       2.651   7.349  18.748  0.00  0.00    +0.000 C 
ATOM     17  O   UNL     1       1.814   7.135  19.630  0.00  0.00    +0.000 OA
ATOM     18  N   UNL     1       3.705   6.478  18.475  0.00  0.00    +0.000 N 
ATOM     19  C   UNL     1       4.729   6.702  17.458  0.00  0.00    +0.000 C 
ATOM     20  C   UNL     1       4.623   5.644  16.368  0.00  0.00    +0.000 C 
ATOM     21  C   UNL     1       4.707   4.241  16.970  0.00  0.00    +0.000 C 
ATOM     22  C   UNL     1       3.675   4.003  18.108  0.00  0.00    +0.000 C 
ATOM     23  C   UNL     1       2.236   3.923  17.525  0.00  0.00    +0.000 C 
ATOM     24  C   UNL     1       1.237   3.333  18.482  0.00  0.00    +0.000 C 
ATOM     25  C   UNL     1       1.587   2.601  19.549  0.00  0.00    +0.000 C 
ATOM     26  C   UNL     1       3.008   2.264  19.884  0.00  0.00    +0.000 C 
ATOM     27  C   UNL     1       3.989   2.634  18.767  0.00  0.00    +0.000 C 
ATOM     28  C   UNL     1       3.778   5.168  19.139  0.00  0.00    +0.000 C 
ENDBRANCH  15  16
ENDBRANCH   3  15
TORSDOF 4
ENDMDL
MODEL 3
REMARK VINA RESULT:      -8.6      0.739      1.462
REMARK  Name = 
REMARK  4 active torsions:
REMARK  status: ('A' for Active; 'I' for Inactive)
REMARK    1  A    between atoms: C_2  and  C_18
REMARK    2  A    between atoms: N_3  and  C_4
REMARK    3  A    between atoms: C_4  and  C_5
REMARK    4  A    between atoms: C_21  and  C_22
REMARK                            x       y       z     vdW  Elec       q    Type
REMARK                         _______ _______ _______ _____ _____    ______ ____
ROOT
ATOM      1  O   UNL     1       1.256  10.409  19.689  0.00  0.00    +0.000 OA
ATOM      2  C   UNL     1       0.623   9.951  18.746  0.00  0.00    +0.000 C 
ATOM      3  N   UNL     1       1.146   9.035  17.858  0.00  0.00    +0.000 N 
ATOM      4  H   UNL     1       0.674   8.812  16.989  0.00  0.00    +0.000 HD
ENDROOT
BRANCH   2   5
ATOM      5  C   UNL     1      -0.778  10.391  18.492  0.00  0.00    +0.000 A 
ATOM      6  C   UNL     1      -1.495   9.814  17.435  0.00  0.00    +0.000 A 
ATOM      7  C   UNL     1      -2.805  10.228  17.163  0.00  0.00    +0.000 A 
ATOM      8  C   UNL     1      -3.411  11.233  17.931  0.00  0.00    +0.000 A 
ATOM      9  C   UNL     1      -2.681  11.812  18.983  0.00  0.00    +0.000 A 
ATOM     10  C   UNL     1      -1.375  11.396  19.260  0.00  0.00    +0.000 A 
BRANCH   8  11
ATOM     11  C   UNL     1      -4.815  11.705  17.635  0.00  0.00    +0.000 C 
ATOM     12  F   UNL     1      -5.741  10.707  17.647  0.00  0.00    +0.000 F 
ATOM     13  F   UNL     1      -5.253  12.631  18.533  0.00  0.00    +0.000 F 
ATOM     14  F   UNL     1      -4.920  12.295  16.411  0.00  0.00    +0.000 F 
ENDBRANCH   8  11
ENDBRANCH   2   5
BRANCH   3  15
ATOM     15  C   UNL     1       2.513   8.567  17.993  0.00  0.00    +0.000 C 
BRANCH  15  16
ATOM     16  C   UNL     1       2.621   7.288  18.843  0.00  0.00    +0.000 C 
ATOM     17  O   UNL     1       1.789   7.057  19.725  0.00  0.00    +0.000 OA
ATOM     18  N   UNL     1       3.668   6.418  18.541  0.00  0.00    +0.000 N 
ATOM     19  C   UNL     1       4.685   6.662  17.522  0.00  0.00    +0.000 C 
ATOM     20  C   UNL     1       4.566   5.631  16.407  0.00  0.00    +0.000 C 
ATOM     21  C   UNL     1       4.646   4.213  16.974  0.00  0.00    +0.000 C 
ATOM     22  C   UNL     1       3.621   3.953  18.113  0.00  0.00    +0.000 C 
ATOM     23  C   UNL     1       2.178   3.895  17.539  0.00  0.00    +0.000 C 
ATOM     24  C   UNL     1       1.182   3.288  18.488  0.00  0.00    +0.000 C 
ATOM     25  C   UNL     1       1.535   2.528  19.535  0.00  0.00    +0.000 C 
ATOM     26  C   UNL     1       2.957   2.175  19.851  0.00  0.00    +0.000 C 
ATOM     27  C   UNL     1       3.932   2.567  18.737  0.00  0.00    +0.000 C 
ATOM     28  C   UNL     1       3.738   5.092  19.172  0.00  0.00    +0.000 C 
ENDBRANCH  15  16
ENDBRANCH   3  15
TORSDOF 4
ENDMDL
MODEL 4
REMARK VINA RESULT:      -8.4      6.795      8.731
REMARK  Name = 
REMARK  4 active torsions:
REMARK  status: ('A' for Active; 'I' for Inactive)
REMARK    1  A    between atoms: C_2  and  C_18
REMARK    2  A    between atoms: N_3  and  C_4
REMARK    3  A    between atoms: C_4  and  C_5
REMARK    4  A    between atoms: C_21  and  C_22
REMARK                            x       y       z     vdW  Elec       q    Type
REMARK                         _______ _______ _______ _____ _____    ______ ____
ROOT
ATOM      1  O   UNL     1       6.926   8.173  16.779  0.00  0.00    +0.000 OA
ATOM      2  C   UNL     1       7.735   8.123  17.696  0.00  0.00    +0.000 C 
ATOM      3  N   UNL     1       8.113   6.946  18.307  0.00  0.00    +0.000 N 
ATOM      4  H   UNL     1       8.637   6.945  19.175  0.00  0.00    +0.000 HD
ENDROOT
BRANCH   2   5
ATOM      5  C   UNL     1       8.355   9.370  18.227  0.00  0.00    +0.000 A 
ATOM      6  C   UNL     1       8.240  10.558  17.492  0.00  0.00    +0.000 A 
ATOM      7  C   UNL     1       8.833  11.737  17.960  0.00  0.00    +0.000 A 
ATOM      8  C   UNL     1       9.563  11.743  19.158  0.00  0.00    +0.000 A 
ATOM      9  C   UNL     1       9.680  10.546  19.884  0.00  0.00    +0.000 A 
ATOM     10  C   UNL     1       9.083   9.368  19.421  0.00  0.00    +0.000 A 
BRANCH   8  11
ATOM     11  C   UNL     1      10.227  13.002  19.664  0.00  0.00    +0.000 C 
ATOM     12  F   UNL     1       9.398  14.081  19.696  0.00  0.00    +0.000 F 
ATOM     13  F   UNL     1      10.709  12.863  20.930  0.00  0.00    +0.000 F 
ATOM     14  F   UNL     1      11.291  13.374  18.899  0.00  0.00    +0.000 F 
ENDBRANCH   8  11
ENDBRANCH   2   5
BRANCH   3  15
ATOM     15  C   UNL     1       7.543   5.678  17.892  0.00  0.00    +0.000 C 
BRANCH  15  16
ATOM     16  C   UNL     1       6.427   5.193  18.835  0.00  0.00    +0.000 C 
ATOM     17  O   UNL     1       6.355   5.629  19.989  0.00  0.00    +0.000 OA
ATOM     18  N   UNL     1       5.510   4.283  18.311  0.00  0.00    +0.000 N 
ATOM     19  C   UNL     1       5.568   3.726  16.961  0.00  0.00    +0.000 C 
ATOM     20  C   UNL     1       4.364   4.189  16.153  0.00  0.00    +0.000 C 
ATOM     21  C   UNL     1       3.063   3.826  16.869  0.00  0.00    +0.000 C 
ATOM     22  C   UNL     1       3.008   4.345  18.334  0.00  0.00    +0.000 C 
ATOM     23  C   UNL     1       2.864   5.892  18.354  0.00  0.00    +0.000 C 
ATOM     24  C   UNL     1       2.435   6.433  19.690  0.00  0.00    +0.000 C 
ATOM     25  C   UNL     1       1.862   5.678  20.638  0.00  0.00    +0.000 C 
ATOM     26  C   UNL     1       1.557   4.222  20.455  0.00  0.00    +0.000 C 
ATOM     27  C   UNL     1       1.746   3.748  19.011  0.00  0.00    +0.000 C 
ATOM     28  C   UNL     1       4.310   3.911  19.075  0.00  0.00    +0.000 C 
ENDBRANCH  15  16
ENDBRANCH   3  15
TORSDOF 4
ENDMDL
MODEL 5
REMARK VINA RESULT:      -8.3      6.713      8.650
REMARK  Name = 
REMARK  4 active torsions:
REMARK  status: ('A' for Active; 'I' for Inactive)
REMARK    1  A    between atoms: C_2  and  C_18
REMARK    2  A    between atoms: N_3  and  C_4
REMARK    3  A    between atoms: C_4  and  C_5
REMARK    4  A    between atoms: C_21  and  C_22
REMARK                            x       y       z     vdW  Elec       q    Type
REMARK                         _______ _______ _______ _____ _____    ______ ____
ROOT
ATOM      1  O   UNL     1       6.840   8.095  16.776  0.00  0.00    +0.000 OA
ATOM      2  C   UNL     1       7.687   8.062  17.659  0.00  0.00    +0.000 C 
ATOM      3  N   UNL     1       8.103   6.896  18.264  0.00  0.00    +0.000 N 
ATOM      4  H   UNL     1       8.663   6.909  19.109  0.00  0.00    +0.000 HD
ENDROOT
BRANCH   2   5
ATOM      5  C   UNL     1       8.313   9.322  18.153  0.00  0.00    +0.000 A 
ATOM      6  C   UNL     1       9.034   9.301  19.354  0.00  0.00    +0.000 A 
ATOM      7  C   UNL     1       9.612  10.477  19.849  0.00  0.00    +0.000 A 
ATOM      8  C   UNL     1       9.463  11.691  19.162  0.00  0.00    +0.000 A 
ATOM      9  C   UNL     1       8.732  11.703  17.962  0.00  0.00    +0.000 A 
ATOM     10  C   UNL     1       8.159  10.528  17.463  0.00  0.00    +0.000 A 
BRANCH   8  11
ATOM     11  C   UNL     1      10.062  12.971  19.696  0.00  0.00    +0.000 C 
ATOM     12  F   UNL     1      10.166  13.956  18.762  0.00  0.00    +0.000 F 
ATOM     13  F   UNL     1       9.332  13.501  20.717  0.00  0.00    +0.000 F 
ATOM     14  F   UNL     1      11.319  12.793  20.190  0.00  0.00    +0.000 F 
ENDBRANCH   8  11
ENDBRANCH   2   5
BRANCH   3  15
ATOM     15  C   UNL     1       7.532   5.617  17.884  0.00  0.00    +0.000 C 
BRANCH  15  16
ATOM     16  C   UNL     1       6.403   5.169  18.829  0.00  0.00    +0.000 C 
ATOM     17  O   UNL     1       6.340   5.615  19.979  0.00  0.00    +0.000 OA
ATOM     18  N   UNL     1       5.464   4.278  18.310  0.00  0.00    +0.000 N 
ATOM     19  C   UNL     1       5.511   3.708  16.965  0.00  0.00    +0.000 C 
ATOM     20  C   UNL     1       4.320   4.194  16.151  0.00  0.00    +0.000 C 
ATOM     21  C   UNL     1       3.009   3.870  16.868  0.00  0.00    +0.000 C 
ATOM     22  C   UNL     1       2.965   4.402  18.328  0.00  0.00    +0.000 C 
ATOM     23  C   UNL     1       2.860   5.953  18.335  0.00  0.00    +0.000 C 
ATOM     24  C   UNL     1       2.442   6.516  19.666  0.00  0.00    +0.000 C 
ATOM     25  C   UNL     1       1.848   5.783  20.619  0.00  0.00    +0.000 C 
ATOM     26  C   UNL     1       1.508   4.333  20.447  0.00  0.00    +0.000 C 
ATOM     27  C   UNL     1       1.687   3.843  19.008  0.00  0.00    +0.000 C 
ATOM     28  C   UNL     1       4.254   3.942  19.075  0.00  0.00    +0.000 C 
ENDBRANCH  15  16
ENDBRANCH   3  15
TORSDOF 4
ENDMDL
MODEL 6
REMARK VINA RESULT:      -7.9      2.711      3.378
REMARK  Name = 
REMARK  4 active torsions:
REMARK  status: ('A' for Active; 'I' for Inactive)
REMARK    1  A    between atoms: C_2  and  C_18
REMARK    2  A    between atoms: N_3  and  C_4
REMARK    3  A    between atoms: C_4  and  C_5
REMARK    4  A    between atoms: C_21  and  C_22
REMARK                            x       y       z     vdW  Elec       q    Type
REMARK                         _______ _______ _______ _____ _____    ______ ____
ROOT
ATOM      1  O   UNL     1       1.325  11.057  19.280  0.00  0.00    +0.000 OA
ATOM      2  C   UNL     1       0.754  10.343  20.095  0.00  0.00    +0.000 C 
ATOM      3  N   UNL     1       1.013   8.996  20.231  0.00  0.00    +0.000 N 
ATOM      4  H   UNL     1       0.406   8.394  20.777  0.00  0.00    +0.000 HD
ENDROOT
BRANCH   2   5
ATOM      5  C   UNL     1      -0.295  10.908  20.991  0.00  0.00    +0.000 A 
ATOM      6  C   UNL     1      -1.162  11.890  20.494  0.00  0.00    +0.000 A 
ATOM      7  C   UNL     1      -2.141  12.451  21.324  0.00  0.00    +0.000 A 
ATOM      8  C   UNL     1      -2.256  12.052  22.664  0.00  0.00    +0.000 A 
ATOM      9  C   UNL     1      -1.377  11.072  23.155  0.00  0.00    +0.000 A 
ATOM     10  C   UNL     1      -0.403  10.506  22.326  0.00  0.00    +0.000 A 
BRANCH   8  11
ATOM     11  C   UNL     1      -3.293  12.664  23.577  0.00  0.00    +0.000 C 
ATOM     12  F   UNL     1      -2.822  13.707  24.316  0.00  0.00    +0.000 F 
ATOM     13  F   UNL     1      -4.368  13.146  22.894  0.00  0.00    +0.000 F 
ATOM     14  F   UNL     1      -3.792  11.768  24.474  0.00  0.00    +0.000 F 
ENDBRANCH   8  11
ENDBRANCH   2   5
BRANCH   3  15
ATOM     15  C   UNL     1       1.989   8.338  19.384  0.00  0.00    +0.000 C 
BRANCH  15  16
ATOM     16  C   UNL     1       2.271   6.889  19.820  0.00  0.00    +0.000 C 
ATOM     17  O   UNL     1       1.545   6.338  20.653  0.00  0.00    +0.000 OA
ATOM     18  N   UNL     1       3.348   6.246  19.211  0.00  0.00    +0.000 N 
ATOM     19  C   UNL     1       4.245   6.865  18.238  0.00  0.00    +0.000 C 
ATOM     20  C   UNL     1       4.100   6.182  16.885  0.00  0.00    +0.000 C 
ATOM     21  C   UNL     1       4.340   4.677  17.013  0.00  0.00    +0.000 C 
ATOM     22  C   UNL     1       3.447   4.007  18.096  0.00  0.00    +0.000 C 
ATOM     23  C   UNL     1       1.965   3.971  17.629  0.00  0.00    +0.000 C 
ATOM     24  C   UNL     1       1.111   3.026  18.429  0.00  0.00    +0.000 C 
ATOM     25  C   UNL     1       1.616   2.042  19.186  0.00  0.00    +0.000 C 
ATOM     26  C   UNL     1       3.084   1.757  19.289  0.00  0.00    +0.000 C 
ATOM     27  C   UNL     1       3.919   2.540  18.272  0.00  0.00    +0.000 C 
ATOM     28  C   UNL     1       3.576   4.810  19.427  0.00  0.00    +0.000 C 
ENDBRANCH  15  16
ENDBRANCH   3  15
TORSDOF 4
ENDMDL
MODEL 7
REMARK VINA RESULT:      -7.8      3.491      4.231
REMARK  Name = 
REMARK  4 active torsions:
REMARK  status: ('A' for Active; 'I' for Inactive)
REMARK    1  A    between atoms: C_2  and  C_18
REMARK    2  A    between atoms: N_3  and  C_4
REMARK    3  A    between atoms: C_4  and  C_5
REMARK    4  A    between atoms: C_21  and  C_22
REMARK                            x       y       z     vdW  Elec       q    Type
REMARK                         _______ _______ _______ _____ _____    ______ ____
ROOT
ATOM      1  O   UNL     1       0.193   9.907  18.279  0.00  0.00    +0.000 OA
ATOM      2  C   UNL     1       1.333  10.344  18.364  0.00  0.00    +0.000 C 
ATOM      3  N   UNL     1       2.455   9.584  18.109  0.00  0.00    +0.000 N 
ATOM      4  H   UNL     1       3.382   9.909  18.362  0.00  0.00    +0.000 HD
ENDROOT
BRANCH   2   5
ATOM      5  C   UNL     1       1.572  11.755  18.781  0.00  0.00    +0.000 A 
ATOM      6  C   UNL     1       0.813  12.298  19.827  0.00  0.00    +0.000 A 
ATOM      7  C   UNL     1       1.006  13.628  20.220  0.00  0.00    +0.000 A 
ATOM      8  C   UNL     1       1.945  14.438  19.565  0.00  0.00    +0.000 A 
ATOM      9  C   UNL     1       2.695  13.888  18.513  0.00  0.00    +0.000 A 
ATOM     10  C   UNL     1       2.509  12.558  18.122  0.00  0.00    +0.000 A 
BRANCH   8  11
ATOM     11  C   UNL     1       2.147  15.882  19.965  0.00  0.00    +0.000 C 
ATOM     12  F   UNL     1       1.195  16.722  19.474  0.00  0.00    +0.000 F 
ATOM     13  F   UNL     1       2.136  16.054  21.316  0.00  0.00    +0.000 F 
ATOM     14  F   UNL     1       3.340  16.379  19.535  0.00  0.00    +0.000 F 
ENDBRANCH   8  11
ENDBRANCH   2   5
BRANCH   3  15
ATOM     15  C   UNL     1       2.336   8.188  17.732  0.00  0.00    +0.000 C 
BRANCH  15  16
ATOM     16  C   UNL     1       2.511   7.234  18.928  0.00  0.00    +0.000 C 
ATOM     17  O   UNL     1       1.818   7.373  19.940  0.00  0.00    +0.000 OA
ATOM     18  N   UNL     1       3.452   6.215  18.788  0.00  0.00    +0.000 N 
ATOM     19  C   UNL     1       4.307   6.026  17.618  0.00  0.00    +0.000 C 
ATOM     20  C   UNL     1       3.961   4.716  16.924  0.00  0.00    +0.000 C 
ATOM     21  C   UNL     1       4.058   3.546  17.903  0.00  0.00    +0.000 C 
ATOM     22  C   UNL     1       3.213   3.756  19.190  0.00  0.00    +0.000 C 
ATOM     23  C   UNL     1       1.697   3.665  18.863  0.00  0.00    +0.000 C 
ATOM     24  C   UNL     1       0.833   3.486  20.082  0.00  0.00    +0.000 C 
ATOM     25  C   UNL     1       1.308   3.059  21.261  0.00  0.00    +0.000 C 
ATOM     26  C   UNL     1       2.743   2.685  21.482  0.00  0.00    +0.000 C 
ATOM     27  C   UNL     1       3.548   2.611  20.182  0.00  0.00    +0.000 C 
ATOM     28  C   UNL     1       3.553   5.152  19.798  0.00  0.00    +0.000 C 
ENDBRANCH  15  16
ENDBRANCH   3  15
TORSDOF 4
ENDMDL
MODEL 8
REMARK VINA RESULT:      -7.8      3.304      4.064
REMARK  Name = 
REMARK  4 active torsions:
REMARK  status: ('A' for Active; 'I' for Inactive)
REMARK    1  A    between atoms: C_2  and  C_18
REMARK    2  A    between atoms: N_3  and  C_4
REMARK    3  A    between atoms: C_4  and  C_5
REMARK    4  A    between atoms: C_21  and  C_22
REMARK                            x       y       z     vdW  Elec       q    Type
REMARK                         _______ _______ _______ _____ _____    ______ ____
ROOT
ATOM      1  O   UNL     1       0.201   9.737  17.915  0.00  0.00    +0.000 OA
ATOM      2  C   UNL     1       1.292  10.229  18.173  0.00  0.00    +0.000 C 
ATOM      3  N   UNL     1       2.476   9.526  18.093  0.00  0.00    +0.000 N 
ATOM      4  H   UNL     1       3.336   9.894  18.484  0.00  0.00    +0.000 HD
ENDROOT
BRANCH   2   5
ATOM      5  C   UNL     1       1.395  11.646  18.622  0.00  0.00    +0.000 A 
ATOM      6  C   UNL     1       2.472  12.427  18.181  0.00  0.00    +0.000 A 
ATOM      7  C   UNL     1       2.601  13.754  18.607  0.00  0.00    +0.000 A 
ATOM      8  C   UNL     1       1.668  14.315  19.492  0.00  0.00    +0.000 A 
ATOM      9  C   UNL     1       0.597  13.522  19.936  0.00  0.00    +0.000 A 
ATOM     10  C   UNL     1       0.462  12.198  19.506  0.00  0.00    +0.000 A 
BRANCH   8  11
ATOM     11  C   UNL     1       1.807  15.739  19.978  0.00  0.00    +0.000 C 
ATOM     12  F   UNL     1       2.617  16.506  19.197  0.00  0.00    +0.000 F 
ATOM     13  F   UNL     1       0.612  16.390  20.029  0.00  0.00    +0.000 F 
ATOM     14  F   UNL     1       2.326  15.812  21.236  0.00  0.00    +0.000 F 
ENDBRANCH   8  11
ENDBRANCH   2   5
BRANCH   3  15
ATOM     15  C   UNL     1       2.486   8.129  17.702  0.00  0.00    +0.000 C 
BRANCH  15  16
ATOM     16  C   UNL     1       2.631   7.178  18.904  0.00  0.00    +0.000 C 
ATOM     17  O   UNL     1       1.940   7.343  19.914  0.00  0.00    +0.000 OA
ATOM     18  N   UNL     1       3.543   6.132  18.772  0.00  0.00    +0.000 N 
ATOM     19  C   UNL     1       4.396   5.912  17.606  0.00  0.00    +0.000 C 
ATOM     20  C   UNL     1       4.014   4.608  16.919  0.00  0.00    +0.000 C 
ATOM     21  C   UNL     1       4.076   3.441  17.905  0.00  0.00    +0.000 C 
ATOM     22  C   UNL     1       3.234   3.684  19.190  0.00  0.00    +0.000 C 
ATOM     23  C   UNL     1       1.717   3.633  18.860  0.00  0.00    +0.000 C 
ATOM     24  C   UNL     1       0.846   3.486  20.078  0.00  0.00    +0.000 C 
ATOM     25  C   UNL     1       1.306   3.054  21.260  0.00  0.00    +0.000 C 
ATOM     26  C   UNL     1       2.729   2.640  21.487  0.00  0.00    +0.000 C 
ATOM     27  C   UNL     1       3.535   2.536  20.189  0.00  0.00    +0.000 C 
ATOM     28  C   UNL     1       3.613   5.073  19.790  0.00  0.00    +0.000 C 
ENDBRANCH  15  16
ENDBRANCH   3  15
TORSDOF 4
ENDMDL
MODEL 9
REMARK VINA RESULT:      -7.8      2.561      3.210
REMARK  Name = 
REMARK  4 active torsions:
REMARK  status: ('A' for Active; 'I' for Inactive)
REMARK    1  A    between atoms: C_2  and  C_18
REMARK    2  A    between atoms: N_3  and  C_4
REMARK    3  A    between atoms: C_4  and  C_5
REMARK    4  A    between atoms: C_21  and  C_22
REMARK                            x       y       z     vdW  Elec       q    Type
REMARK                         _______ _______ _______ _____ _____    ______ ____
ROOT
ATOM      1  O   UNL     1       0.417  10.357  18.255  0.00  0.00    +0.000 OA
ATOM      2  C   UNL     1       0.467  10.066  19.443  0.00  0.00    +0.000 C 
ATOM      3  N   UNL     1       1.275   9.067  19.943  0.00  0.00    +0.000 N 
ATOM      4  H   UNL     1       1.165   8.722  20.890  0.00  0.00    +0.000 HD
ENDROOT
BRANCH   2   5
ATOM      5  C   UNL     1      -0.385  10.783  20.433  0.00  0.00    +0.000 A 
ATOM      6  C   UNL     1      -0.223  10.512  21.798  0.00  0.00    +0.000 A 
ATOM      7  C   UNL     1      -1.027  11.158  22.745  0.00  0.00    +0.000 A 
ATOM      8  C   UNL     1      -2.015  12.068  22.342  0.00  0.00    +0.000 A 
ATOM      9  C   UNL     1      -2.177  12.327  20.971  0.00  0.00    +0.000 A 
ATOM     10  C   UNL     1      -1.370  11.688  20.024  0.00  0.00    +0.000 A 
BRANCH   8  11
ATOM     11  C   UNL     1      -2.906  12.755  23.352  0.00  0.00    +0.000 C 
ATOM     12  F   UNL     1      -2.245  13.637  24.151  0.00  0.00    +0.000 F 
ATOM     13  F   UNL     1      -3.909  13.463  22.763  0.00  0.00    +0.000 F 
ATOM     14  F   UNL     1      -3.516  11.874  24.194  0.00  0.00    +0.000 F 
ENDBRANCH   8  11
ENDBRANCH   2   5
BRANCH   3  15
ATOM     15  C   UNL     1       2.117   8.281  19.060  0.00  0.00    +0.000 C 
BRANCH  15  16
ATOM     16  C   UNL     1       2.372   6.860  19.594  0.00  0.00    +0.000 C 
ATOM     17  O   UNL     1       1.637   6.382  20.464  0.00  0.00    +0.000 OA
ATOM     18  N   UNL     1       3.434   6.156  19.029  0.00  0.00    +0.000 N 
ATOM     19  C   UNL     1       4.341   6.689  18.015  0.00  0.00    +0.000 C 
ATOM     20  C   UNL     1       4.179   5.918  16.712  0.00  0.00    +0.000 C 
ATOM     21  C   UNL     1       4.389   4.421  16.942  0.00  0.00    +0.000 C 
ATOM     22  C   UNL     1       3.486   3.845  18.069  0.00  0.00    +0.000 C 
ATOM     23  C   UNL     1       2.003   3.806  17.607  0.00  0.00    +0.000 C 
ATOM     24  C   UNL     1       1.132   2.936  18.470  0.00  0.00    +0.000 C 
ATOM     25  C   UNL     1       1.620   1.995  19.292  0.00  0.00    +0.000 C 
ATOM     26  C   UNL     1       3.082   1.689  19.413  0.00  0.00    +0.000 C 
ATOM     27  C   UNL     1       3.929   2.384  18.344  0.00  0.00    +0.000 C 
ATOM     28  C   UNL     1       3.635   4.734  19.342  0.00  0.00    +0.000 C 
ENDBRANCH  15  16
ENDBRANCH   3  15
TORSDOF 4
ENDMDL
