MODEL 1
REMARK VINA RESULT:      -8.0      0.000      0.000
REMARK  Name = 
REMARK  16 active torsions:
REMARK  status: ('A' for Active; 'I' for Inactive)
REMARK    1  A    between atoms: C_1  and  C_2
REMARK    2  A    between atoms: C_2  and  C_3
REMARK    3  A    between atoms: C_2  and  C_4
REMARK    4  A    between atoms: C_4  and  C_5
REMARK    5  A    between atoms: C_5  and  C_6
REMARK    6  A    between atoms: C_9  and  C_10
REMARK    7  A    between atoms: C_10  and  O_11
REMARK    8  A    between atoms: O_11  and  C_12
REMARK    9  A    between atoms: C_15  and  C_16
REMARK   10  A    between atoms: C_16  and  C_17
REMARK   11  A    between atoms: C_17  and  C_18
REMARK   12  A    between atoms: C_18  and  C_19
REMARK   13  A    between atoms: C_18  and  C_20
REMARK   14  A    between atoms: C_18  and  S_24
REMARK   15  A    between atoms: N_22  and  O_23
REMARK   16  A    between atoms: S_24  and  C_25
REMARK                            x       y       z     vdW  Elec       q    Type
REMARK                         _______ _______ _______ _____ _____    ______ ____
ROOT
ATOM      1  C   UNL     1       1.237   9.285  19.181  0.00  0.00    +0.000 A 
ATOM      2  C   UNL     1       1.949   9.096  18.002  0.00  0.00    +0.000 A 
ATOM      3  C   UNL     1       2.769   7.981  17.844  0.00  0.00    +0.000 A 
ATOM      4  C   UNL     1       2.927   7.054  18.883  0.00  0.00    +0.000 A 
ATOM      5  C   UNL     1       2.178   7.238  20.056  0.00  0.00    +0.000 A 
ATOM      6  C   UNL     1       1.343   8.352  20.209  0.00  0.00    +0.000 A 
ENDROOT
BRANCH   1   7
ATOM      7  O   UNL     1       0.514  10.437  19.229  0.00  0.00    +0.000 OA
BRANCH   7   8
ATOM      8  C   UNL     1       0.970  11.434  20.139  0.00  0.00    +0.000 C 
BRANCH   8  12
ATOM      9  C   UNL     1      -1.551  11.663  22.625  0.00  0.00    +0.000 A 
ATOM     10  N   UNL     1      -0.644  10.971  23.328  0.00  0.00    +0.000 NA
ATOM     11  O   UNL     1       0.404  10.810  22.417  0.00  0.00    +0.000 OA
ATOM     12  C   UNL     1       0.004  11.415  21.261  0.00  0.00    +0.000 A 
ATOM     13  N   UNL     1      -1.198  11.942  21.333  0.00  0.00    +0.000 NA
BRANCH   9  14
ATOM     14  C   UNL     1      -2.852  12.097  23.190  0.00  0.00    +0.000 C 
BRANCH  14  15
ATOM     15  C   UNL     1      -3.014  13.619  23.120  0.00  0.00    +0.000 C 
BRANCH  15  17
ATOM     16  C   UNL     1      -1.097  14.969  24.002  0.00  0.00    +0.000 C 
ATOM     17  C   UNL     1      -2.459  14.362  24.347  0.00  0.00    +0.000 C 
ATOM     18  C   UNL     1      -3.404  15.459  24.843  0.00  0.00    +0.000 C 
ENDBRANCH  15  17
ENDBRANCH  14  15
ENDBRANCH   9  14
ENDBRANCH   8  12
ENDBRANCH   7   8
ENDBRANCH   1   7
BRANCH   4  19
ATOM     19  C   UNL     1       3.862   5.865  18.761  0.00  0.00    +0.000 C 
BRANCH  19  20
ATOM     20  C   UNL     1       4.661   5.859  17.445  0.00  0.00    +0.000 C 
BRANCH  20  21
ATOM     21  C   UNL     1       6.201   5.896  17.577  0.00  0.00    +0.000 C 
ATOM     22  C   UNL     1       6.734   7.332  17.462  0.00  0.00    +0.000 C 
BRANCH  21  23
ATOM     23  C   UNL     1       6.656   5.249  18.883  0.00  0.00    +0.000 C 
ATOM     24  O   UNL     1       6.129   4.233  19.340  0.00  0.00    +0.000 OA
ATOM     25  N   UNL     1       7.721   5.835  19.532  0.00  0.00    +0.000 N 
ATOM     26  H   UNL     1       7.913   6.839  19.446  0.00  0.00    +0.000 HD
BRANCH  25  27
ATOM     27  O   UNL     1       8.046   5.262  20.785  0.00  0.00    +0.000 OA
ATOM     28  H   UNL     1       9.025   5.345  20.819  0.00  0.00    +0.000 HD
ENDBRANCH  25  27
ENDBRANCH  21  23
BRANCH  21  29
ATOM     29  S   UNL     1       6.887   4.886  16.221  0.00  0.00    +0.000 S 
ATOM     30  C   UNL     1       5.672   3.641  15.846  0.00  0.00    +0.000 C 
ATOM     31  O   UNL     1       6.990   5.743  15.048  0.00  0.00    +0.000 OA
ATOM     32  O   UNL     1       8.064   4.199  16.714  0.00  0.00    +0.000 OA
ENDBRANCH  21  29
ENDBRANCH  20  21
ENDBRANCH  19  20
ENDBRANCH   4  19
TORSDOF 12
ENDMDL
MODEL 2
REMARK VINA RESULT:      -7.9      1.588      2.134
REMARK  Name = 
REMARK  16 active torsions:
REMARK  status: ('A' for Active; 'I' for Inactive)
REMARK    1  A    between atoms: C_1  and  C_2
REMARK    2  A    between atoms: C_2  and  C_3
REMARK    3  A    between atoms: C_2  and  C_4
REMARK    4  A    between atoms: C_4  and  C_5
REMARK    5  A    between atoms: C_5  and  C_6
REMARK    6  A    between atoms: C_9  and  C_10
REMARK    7  A    between atoms: C_10  and  O_11
REMARK    8  A    between atoms: O_11  and  C_12
REMARK    9  A    between atoms: C_15  and  C_16
REMARK   10  A    between atoms: C_16  and  C_17
REMARK   11  A    between atoms: C_17  and  C_18
REMARK   12  A    between atoms: C_18  and  C_19
REMARK   13  A    between atoms: C_18  and  C_20
REMARK   14  A    between atoms: C_18  and  S_24
REMARK   15  A    between atoms: N_22  and  O_23
REMARK   16  A    between atoms: S_24  and  C_25
REMARK                            x       y       z     vdW  Elec       q    Type
REMARK                         _______ _______ _______ _____ _____    ______ ____
ROOT
ATOM      1  C   UNL     1       1.661   8.470  19.893  0.00  0.00    +0.000 A 
ATOM      2  C   UNL     1       1.918   8.739  18.553  0.00  0.00    +0.000 A 
ATOM      3  C   UNL     1       2.545   7.788  17.751  0.00  0.00    +0.000 A 
ATOM      4  C   UNL     1       2.967   6.564  18.285  0.00  0.00    +0.000 A 
ATOM      5  C   UNL     1       2.673   6.290  19.630  0.00  0.00    +0.000 A 
ATOM      6  C   UNL     1       2.030   7.241  20.434  0.00  0.00    +0.000 A 
ENDROOT
BRANCH   1   7
ATOM      7  O   UNL     1       1.092   9.498  20.579  0.00  0.00    +0.000 OA
BRANCH   7   8
ATOM      8  C   UNL     1       0.287   9.144  21.700  0.00  0.00    +0.000 C 
BRANCH   8  12
ATOM      9  C   UNL     1      -1.675  12.078  22.066  0.00  0.00    +0.000 A 
ATOM     10  N   UNL     1      -1.149  12.037  23.298  0.00  0.00    +0.000 NA
ATOM     11  O   UNL     1      -0.356  10.887  23.264  0.00  0.00    +0.000 OA
ATOM     12  C   UNL     1      -0.504  10.355  22.016  0.00  0.00    +0.000 A 
ATOM     13  N   UNL     1      -1.317  11.043  21.246  0.00  0.00    +0.000 NA
BRANCH   9  14
ATOM     14  C   UNL     1      -2.588  13.155  21.611  0.00  0.00    +0.000 C 
BRANCH  14  15
ATOM     15  C   UNL     1      -4.038  12.868  22.013  0.00  0.00    +0.000 C 
BRANCH  15  17
ATOM     16  C   UNL     1      -4.573  12.347  19.622  0.00  0.00    +0.000 C 
ATOM     17  C   UNL     1      -5.052  13.080  20.877  0.00  0.00    +0.000 C 
ATOM     18  C   UNL     1      -6.457  12.601  21.250  0.00  0.00    +0.000 C 
ENDBRANCH  15  17
ENDBRANCH  14  15
ENDBRANCH   9  14
ENDBRANCH   8  12
ENDBRANCH   7   8
ENDBRANCH   1   7
BRANCH   4  19
ATOM     19  C   UNL     1       3.708   5.537  17.449  0.00  0.00    +0.000 C 
BRANCH  19  20
ATOM     20  C   UNL     1       5.055   5.118  18.064  0.00  0.00    +0.000 C 
BRANCH  20  21
ATOM     21  C   UNL     1       6.303   5.890  17.576  0.00  0.00    +0.000 C 
ATOM     22  C   UNL     1       5.912   7.236  16.947  0.00  0.00    +0.000 C 
BRANCH  21  23
ATOM     23  C   UNL     1       7.303   6.091  18.712  0.00  0.00    +0.000 C 
ATOM     24  O   UNL     1       8.143   6.994  18.706  0.00  0.00    +0.000 OA
ATOM     25  N   UNL     1       7.214   5.229  19.783  0.00  0.00    +0.000 N 
ATOM     26  H   UNL     1       6.858   4.274  19.672  0.00  0.00    +0.000 HD
BRANCH  25  27
ATOM     27  O   UNL     1       8.220   5.390  20.766  0.00  0.00    +0.000 OA
ATOM     28  H   UNL     1       7.742   5.835  21.501  0.00  0.00    +0.000 HD
ENDBRANCH  25  27
ENDBRANCH  21  23
BRANCH  21  29
ATOM     29  S   UNL     1       7.128   4.854  16.323  0.00  0.00    +0.000 S 
ATOM     30  C   UNL     1       5.908   3.705  15.725  0.00  0.00    +0.000 C 
ATOM     31  O   UNL     1       7.479   5.717  15.204  0.00  0.00    +0.000 OA
ATOM     32  O   UNL     1       8.159   4.076  16.981  0.00  0.00    +0.000 OA
ENDBRANCH  21  29
ENDBRANCH  20  21
ENDBRANCH  19  20
ENDBRANCH   4  19
TORSDOF 12
ENDMDL
MODEL 3
REMARK VINA RESULT:      -7.7      2.361      3.436
REMARK  Name = 
REMARK  16 active torsions:
REMARK  status: ('A' for Active; 'I' for Inactive)
REMARK    1  A    between atoms: C_1  and  C_2
REMARK    2  A    between atoms: C_2  and  C_3
REMARK    3  A    between atoms: C_2  and  C_4
REMARK    4  A    between atoms: C_4  and  C_5
REMARK    5  A    between atoms: C_5  and  C_6
REMARK    6  A    between atoms: C_9  and  C_10
REMARK    7  A    between atoms: C_10  and  O_11
REMARK    8  A    between atoms: O_11  and  C_12
REMARK    9  A    between atoms: C_15  and  C_16
REMARK   10  A    between atoms: C_16  and  C_17
REMARK   11  A    between atoms: C_17  and  C_18
REMARK   12  A    between atoms: C_18  and  C_19
REMARK   13  A    between atoms: C_18  and  C_20
REMARK   14  A    between atoms: C_18  and  S_24
REMARK   15  A    between atoms: N_22  and  O_23
REMARK   16  A    between atoms: S_24  and  C_25
REMARK                            x       y       z     vdW  Elec       q    Type
REMARK                         _______ _______ _______ _____ _____    ______ ____
ROOT
ATOM      1  C   UNL     1       0.671   9.745  21.247  0.00  0.00    +0.000 A 
ATOM      2  C   UNL     1       0.865   9.993  19.892  0.00  0.00    +0.000 A 
ATOM      3  C   UNL     1       1.487   9.045  19.084  0.00  0.00    +0.000 A 
ATOM      4  C   UNL     1       1.968   7.845  19.625  0.00  0.00    +0.000 A 
ATOM      5  C   UNL     1       1.737   7.592  20.986  0.00  0.00    +0.000 A 
ATOM      6  C   UNL     1       1.099   8.540  21.797  0.00  0.00    +0.000 A 
ENDROOT
BRANCH   1   7
ATOM      7  O   UNL     1       0.098  10.771  21.934  0.00  0.00    +0.000 OA
BRANCH   7   8
ATOM      8  C   UNL     1      -0.861  10.413  22.924  0.00  0.00    +0.000 C 
BRANCH   8  12
ATOM      9  C   UNL     1      -2.989  13.184  23.545  0.00  0.00    +0.000 A 
ATOM     10  N   UNL     1      -1.822  13.840  23.489  0.00  0.00    +0.000 NA
ATOM     11  O   UNL     1      -0.896  12.818  23.259  0.00  0.00    +0.000 OA
ATOM     12  C   UNL     1      -1.611  11.656  23.215  0.00  0.00    +0.000 A 
ATOM     13  N   UNL     1      -2.901  11.826  23.399  0.00  0.00    +0.000 NA
BRANCH   9  14
ATOM     14  C   UNL     1      -4.290  13.864  23.755  0.00  0.00    +0.000 C 
BRANCH  14  15
ATOM     15  C   UNL     1      -5.130  13.876  22.475  0.00  0.00    +0.000 C 
BRANCH  15  17
ATOM     16  C   UNL     1      -6.872  12.341  21.534  0.00  0.00    +0.000 C 
ATOM     17  C   UNL     1      -6.555  13.329  22.659  0.00  0.00    +0.000 C 
ATOM     18  C   UNL     1      -6.749  12.647  24.016  0.00  0.00    +0.000 C 
ENDBRANCH  15  17
ENDBRANCH  14  15
ENDBRANCH   9  14
ENDBRANCH   8  12
ENDBRANCH   7   8
ENDBRANCH   1   7
BRANCH   4  19
ATOM     19  C   UNL     1       2.706   6.823  18.780  0.00  0.00    +0.000 C 
BRANCH  19  20
ATOM     20  C   UNL     1       3.374   5.718  19.617  0.00  0.00    +0.000 C 
BRANCH  20  21
ATOM     21  C   UNL     1       4.083   4.593  18.827  0.00  0.00    +0.000 C 
ATOM     22  C   UNL     1       3.593   4.543  17.372  0.00  0.00    +0.000 C 
BRANCH  21  23
ATOM     23  C   UNL     1       5.599   4.753  18.885  0.00  0.00    +0.000 C 
ATOM     24  O   UNL     1       6.158   5.503  19.690  0.00  0.00    +0.000 OA
ATOM     25  N   UNL     1       6.343   3.991  18.011  0.00  0.00    +0.000 N 
ATOM     26  H   UNL     1       5.964   3.696  17.104  0.00  0.00    +0.000 HD
BRANCH  25  27
ATOM     27  O   UNL     1       7.736   4.242  18.033  0.00  0.00    +0.000 OA
ATOM     28  H   UNL     1       7.926   4.349  18.991  0.00  0.00    +0.000 HD
ENDBRANCH  25  27
ENDBRANCH  21  23
BRANCH  21  29
ATOM     29  S   UNL     1       3.686   3.016  19.654  0.00  0.00    +0.000 S 
ATOM     30  C   UNL     1       2.922   1.975  18.430  0.00  0.00    +0.000 C 
ATOM     31  O   UNL     1       4.946   2.385  20.018  0.00  0.00    +0.000 OA
ATOM     32  O   UNL     1       2.691   3.275  20.675  0.00  0.00    +0.000 OA
ENDBRANCH  21  29
ENDBRANCH  20  21
ENDBRANCH  19  20
ENDBRANCH   4  19
TORSDOF 12
ENDMDL
MODEL 4
REMARK VINA RESULT:      -7.7      3.575     10.957
REMARK  Name = 
REMARK  16 active torsions:
REMARK  status: ('A' for Active; 'I' for Inactive)
REMARK    1  A    between atoms: C_1  and  C_2
REMARK    2  A    between atoms: C_2  and  C_3
REMARK    3  A    between atoms: C_2  and  C_4
REMARK    4  A    between atoms: C_4  and  C_5
REMARK    5  A    between atoms: C_5  and  C_6
REMARK    6  A    between atoms: C_9  and  C_10
REMARK    7  A    between atoms: C_10  and  O_11
REMARK    8  A    between atoms: O_11  and  C_12
REMARK    9  A    between atoms: C_15  and  C_16
REMARK   10  A    between atoms: C_16  and  C_17
REMARK   11  A    between atoms: C_17  and  C_18
REMARK   12  A    between atoms: C_18  and  C_19
REMARK   13  A    between atoms: C_18  and  C_20
REMARK   14  A    between atoms: C_18  and  S_24
REMARK   15  A    between atoms: N_22  and  O_23
REMARK   16  A    between atoms: S_24  and  C_25
REMARK                            x       y       z     vdW  Elec       q    Type
REMARK                         _______ _______ _______ _____ _____    ______ ____
ROOT
ATOM      1  C   UNL     1       2.986   6.450  18.658  0.00  0.00    +0.000 A 
ATOM      2  C   UNL     1       2.730   7.680  18.061  0.00  0.00    +0.000 A 
ATOM      3  C   UNL     1       1.970   8.641  18.723  0.00  0.00    +0.000 A 
ATOM      4  C   UNL     1       1.413   8.373  19.981  0.00  0.00    +0.000 A 
ATOM      5  C   UNL     1       1.706   7.142  20.588  0.00  0.00    +0.000 A 
ATOM      6  C   UNL     1       2.482   6.180  19.927  0.00  0.00    +0.000 A 
ENDROOT
BRANCH   1   7
ATOM      7  O   UNL     1       3.696   5.582  17.887  0.00  0.00    +0.000 OA
BRANCH   7   8
ATOM      8  C   UNL     1       5.109   5.581  18.070  0.00  0.00    +0.000 C 
BRANCH   8  12
ATOM      9  C   UNL     1       6.306   4.554  14.892  0.00  0.00    +0.000 A 
ATOM     10  N   UNL     1       7.061   5.651  15.042  0.00  0.00    +0.000 NA
ATOM     11  O   UNL     1       6.649   6.150  16.281  0.00  0.00    +0.000 OA
ATOM     12  C   UNL     1       5.680   5.302  16.733  0.00  0.00    +0.000 A 
ATOM     13  N   UNL     1       5.422   4.312  15.908  0.00  0.00    +0.000 NA
BRANCH   9  14
ATOM     14  C   UNL     1       6.403   3.660  13.712  0.00  0.00    +0.000 C 
BRANCH  14  15
ATOM     15  C   UNL     1       5.390   4.047  12.631  0.00  0.00    +0.000 C 
BRANCH  15  17
ATOM     16  C   UNL     1       3.811   3.340  10.819  0.00  0.00    +0.000 C 
ATOM     17  C   UNL     1       4.728   2.843  11.939  0.00  0.00    +0.000 C 
ATOM     18  C   UNL     1       5.753   1.860  11.369  0.00  0.00    +0.000 C 
ENDBRANCH  15  17
ENDBRANCH  14  15
ENDBRANCH   9  14
ENDBRANCH   8  12
ENDBRANCH   7   8
ENDBRANCH   1   7
BRANCH   4  19
ATOM     19  C   UNL     1       0.529   9.379  20.696  0.00  0.00    +0.000 C 
BRANCH  19  20
ATOM     20  C   UNL     1      -0.149  10.374  19.738  0.00  0.00    +0.000 C 
BRANCH  20  21
ATOM     21  C   UNL     1       0.123  11.873  19.999  0.00  0.00    +0.000 C 
ATOM     22  C   UNL     1       0.163  12.175  21.505  0.00  0.00    +0.000 C 
BRANCH  21  23
ATOM     23  C   UNL     1       1.413  12.324  19.320  0.00  0.00    +0.000 C 
ATOM     24  O   UNL     1       2.317  12.904  19.926  0.00  0.00    +0.000 OA
ATOM     25  N   UNL     1       1.551  12.026  17.981  0.00  0.00    +0.000 N 
ATOM     26  H   UNL     1       0.735  11.939  17.366  0.00  0.00    +0.000 HD
BRANCH  25  27
ATOM     27  O   UNL     1       2.717  12.547  17.370  0.00  0.00    +0.000 OA
ATOM     28  H   UNL     1       2.764  12.049  16.523  0.00  0.00    +0.000 HD
ENDBRANCH  25  27
ENDBRANCH  21  23
BRANCH  21  29
ATOM     29  S   UNL     1      -1.237  12.815  19.230  0.00  0.00    +0.000 S 
ATOM     30  C   UNL     1      -2.681  12.539  20.232  0.00  0.00    +0.000 C 
ATOM     31  O   UNL     1      -0.908  14.228  19.343  0.00  0.00    +0.000 OA
ATOM     32  O   UNL     1      -1.507  12.242  17.926  0.00  0.00    +0.000 OA
ENDBRANCH  21  29
ENDBRANCH  20  21
ENDBRANCH  19  20
ENDBRANCH   4  19
TORSDOF 12
ENDMDL
MODEL 5
REMARK VINA RESULT:      -7.6      1.559      2.786
REMARK  Name = 
REMARK  16 active torsions:
REMARK  status: ('A' for Active; 'I' for Inactive)
REMARK    1  A    between atoms: C_1  and  C_2
REMARK    2  A    between atoms: C_2  and  C_3
REMARK    3  A    between atoms: C_2  and  C_4
REMARK    4  A    between atoms: C_4  and  C_5
REMARK    5  A    between atoms: C_5  and  C_6
REMARK    6  A    between atoms: C_9  and  C_10
REMARK    7  A    between atoms: C_10  and  O_11
REMARK    8  A    between atoms: O_11  and  C_12
REMARK    9  A    between atoms: C_15  and  C_16
REMARK   10  A    between atoms: C_16  and  C_17
REMARK   11  A    between atoms: C_17  and  C_18
REMARK   12  A    between atoms: C_18  and  C_19
REMARK   13  A    between atoms: C_18  and  C_20
REMARK   14  A    between atoms: C_18  and  S_24
REMARK   15  A    between atoms: N_22  and  O_23
REMARK   16  A    between atoms: S_24  and  C_25
REMARK                            x       y       z     vdW  Elec       q    Type
REMARK                         _______ _______ _______ _____ _____    ______ ____
ROOT
ATOM      1  C   UNL     1       1.120   9.778  19.401  0.00  0.00    +0.000 A 
ATOM      2  C   UNL     1       1.286   8.752  20.324  0.00  0.00    +0.000 A 
ATOM      3  C   UNL     1       1.958   7.585  19.968  0.00  0.00    +0.000 A 
ATOM      4  C   UNL     1       2.441   7.404  18.665  0.00  0.00    +0.000 A 
ATOM      5  C   UNL     1       2.298   8.460  17.752  0.00  0.00    +0.000 A 
ATOM      6  C   UNL     1       1.633   9.639  18.114  0.00  0.00    +0.000 A 
ENDROOT
BRANCH   1   7
ATOM      7  O   UNL     1       0.402  10.841  19.857  0.00  0.00    +0.000 OA
BRANCH   7   8
ATOM      8  C   UNL     1       0.583  11.186  21.227  0.00  0.00    +0.000 C 
BRANCH   8  12
ATOM      9  C   UNL     1      -2.454  12.320  22.670  0.00  0.00    +0.000 A 
ATOM     10  N   UNL     1      -2.793  12.438  21.378  0.00  0.00    +0.000 NA
ATOM     11  O   UNL     1      -1.637  12.023  20.710  0.00  0.00    +0.000 OA
ATOM     12  C   UNL     1      -0.726  11.713  21.677  0.00  0.00    +0.000 A 
ATOM     13  N   UNL     1      -1.175  11.892  22.899  0.00  0.00    +0.000 NA
BRANCH   9  14
ATOM     14  C   UNL     1      -3.384  12.633  23.782  0.00  0.00    +0.000 C 
BRANCH  14  15
ATOM     15  C   UNL     1      -4.255  13.851  23.458  0.00  0.00    +0.000 C 
BRANCH  15  17
ATOM     16  C   UNL     1      -2.914  14.844  25.326  0.00  0.00    +0.000 C 
ATOM     17  C   UNL     1      -3.752  15.161  24.085  0.00  0.00    +0.000 C 
ATOM     18  C   UNL     1      -2.927  16.000  23.106  0.00  0.00    +0.000 C 
ENDBRANCH  15  17
ENDBRANCH  14  15
ENDBRANCH   9  14
ENDBRANCH   8  12
ENDBRANCH   7   8
ENDBRANCH   1   7
BRANCH   4  19
ATOM     19  C   UNL     1       3.121   6.118  18.234  0.00  0.00    +0.000 C 
BRANCH  19  20
ATOM     20  C   UNL     1       4.529   6.345  17.656  0.00  0.00    +0.000 C 
BRANCH  20  21
ATOM     21  C   UNL     1       5.399   5.083  17.451  0.00  0.00    +0.000 C 
ATOM     22  C   UNL     1       4.701   3.832  18.006  0.00  0.00    +0.000 C 
BRANCH  21  23
ATOM     23  C   UNL     1       5.760   4.897  15.979  0.00  0.00    +0.000 C 
ATOM     24  O   UNL     1       5.782   5.834  15.177  0.00  0.00    +0.000 OA
ATOM     25  N   UNL     1       6.098   3.624  15.575  0.00  0.00    +0.000 N 
ATOM     26  H   UNL     1       5.719   2.795  16.044  0.00  0.00    +0.000 HD
BRANCH  25  27
ATOM     27  O   UNL     1       6.331   3.480  14.186  0.00  0.00    +0.000 OA
ATOM     28  H   UNL     1       5.594   2.896  13.898  0.00  0.00    +0.000 HD
ENDBRANCH  25  27
ENDBRANCH  21  23
BRANCH  21  29
ATOM     29  S   UNL     1       6.965   5.351  18.348  0.00  0.00    +0.000 S 
ATOM     30  C   UNL     1       7.550   6.966  17.885  0.00  0.00    +0.000 C 
ATOM     31  O   UNL     1       6.649   5.408  19.768  0.00  0.00    +0.000 OA
ATOM     32  O   UNL     1       7.937   4.390  17.866  0.00  0.00    +0.000 OA
ENDBRANCH  21  29
ENDBRANCH  20  21
ENDBRANCH  19  20
ENDBRANCH   4  19
TORSDOF 12
ENDMDL
MODEL 6
REMARK VINA RESULT:      -7.6      3.253      4.148
REMARK  Name = 
REMARK  16 active torsions:
REMARK  status: ('A' for Active; 'I' for Inactive)
REMARK    1  A    between atoms: C_1  and  C_2
REMARK    2  A    between atoms: C_2  and  C_3
REMARK    3  A    between atoms: C_2  and  C_4
REMARK    4  A    between atoms: C_4  and  C_5
REMARK    5  A    between atoms: C_5  and  C_6
REMARK    6  A    between atoms: C_9  and  C_10
REMARK    7  A    between atoms: C_10  and  O_11
REMARK    8  A    between atoms: O_11  and  C_12
REMARK    9  A    between atoms: C_15  and  C_16
REMARK   10  A    between atoms: C_16  and  C_17
REMARK   11  A    between atoms: C_17  and  C_18
REMARK   12  A    between atoms: C_18  and  C_19
REMARK   13  A    between atoms: C_18  and  C_20
REMARK   14  A    between atoms: C_18  and  S_24
REMARK   15  A    between atoms: N_22  and  O_23
REMARK   16  A    between atoms: S_24  and  C_25
REMARK                            x       y       z     vdW  Elec       q    Type
REMARK                         _______ _______ _______ _____ _____    ______ ____
ROOT
ATOM      1  C   UNL     1       0.638  10.022  19.428  0.00  0.00    +0.000 A 
ATOM      2  C   UNL     1       0.768   9.183  20.528  0.00  0.00    +0.000 A 
ATOM      3  C   UNL     1       1.536   8.024  20.444  0.00  0.00    +0.000 A 
ATOM      4  C   UNL     1       2.155   7.659  19.241  0.00  0.00    +0.000 A 
ATOM      5  C   UNL     1       2.044   8.531  18.147  0.00  0.00    +0.000 A 
ATOM      6  C   UNL     1       1.282   9.704  18.235  0.00  0.00    +0.000 A 
ENDROOT
BRANCH   1   7
ATOM      7  O   UNL     1      -0.179  11.093  19.625  0.00  0.00    +0.000 OA
BRANCH   7   8
ATOM      8  C   UNL     1      -0.523  11.849  18.468  0.00  0.00    +0.000 C 
BRANCH   8  12
ATOM      9  C   UNL     1      -3.902  10.933  17.885  0.00  0.00    +0.000 A 
ATOM     10  N   UNL     1      -3.321  10.131  16.981  0.00  0.00    +0.000 NA
ATOM     11  O   UNL     1      -1.963  10.431  17.120  0.00  0.00    +0.000 OA
ATOM     12  C   UNL     1      -1.879  11.391  18.087  0.00  0.00    +0.000 A 
ATOM     13  N   UNL     1      -3.045  11.745  18.578  0.00  0.00    +0.000 NA
BRANCH   9  14
ATOM     14  C   UNL     1      -5.365  10.957  18.123  0.00  0.00    +0.000 C 
BRANCH  14  15
ATOM     15  C   UNL     1      -5.720  11.802  19.350  0.00  0.00    +0.000 C 
BRANCH  15  17
ATOM     16  C   UNL     1      -7.595  10.721  20.610  0.00  0.00    +0.000 C 
ATOM     17  C   UNL     1      -7.226  11.858  19.654  0.00  0.00    +0.000 C 
ATOM     18  C   UNL     1      -7.652  13.199  20.257  0.00  0.00    +0.000 C 
ENDBRANCH  15  17
ENDBRANCH  14  15
ENDBRANCH   9  14
ENDBRANCH   8  12
ENDBRANCH   7   8
ENDBRANCH   1   7
BRANCH   4  19
ATOM     19  C   UNL     1       2.944   6.370  19.105  0.00  0.00    +0.000 C 
BRANCH  19  20
ATOM     20  C   UNL     1       3.978   6.414  17.965  0.00  0.00    +0.000 C 
BRANCH  20  21
ATOM     21  C   UNL     1       5.047   5.296  17.964  0.00  0.00    +0.000 C 
ATOM     22  C   UNL     1       5.795   5.243  19.305  0.00  0.00    +0.000 C 
BRANCH  21  23
ATOM     23  C   UNL     1       4.424   3.942  17.634  0.00  0.00    +0.000 C 
ATOM     24  O   UNL     1       3.648   3.780  16.690  0.00  0.00    +0.000 OA
ATOM     25  N   UNL     1       4.793   2.875  18.425  0.00  0.00    +0.000 N 
ATOM     26  H   UNL     1       5.072   3.006  19.403  0.00  0.00    +0.000 HD
BRANCH  25  27
ATOM     27  O   UNL     1       4.119   1.662  18.145  0.00  0.00    +0.000 OA
ATOM     28  H   UNL     1       3.197   1.851  18.428  0.00  0.00    +0.000 HD
ENDBRANCH  25  27
ENDBRANCH  21  23
BRANCH  21  29
ATOM     29  S   UNL     1       6.228   5.675  16.627  0.00  0.00    +0.000 S 
ATOM     30  C   UNL     1       7.391   6.847  17.288  0.00  0.00    +0.000 C 
ATOM     31  O   UNL     1       6.972   4.456  16.343  0.00  0.00    +0.000 OA
ATOM     32  O   UNL     1       5.509   6.342  15.560  0.00  0.00    +0.000 OA
ENDBRANCH  21  29
ENDBRANCH  20  21
ENDBRANCH  19  20
ENDBRANCH   4  19
TORSDOF 12
ENDMDL
MODEL 7
REMARK VINA RESULT:      -7.6      2.639      3.881
REMARK  Name = 
REMARK  16 active torsions:
REMARK  status: ('A' for Active; 'I' for Inactive)
REMARK    1  A    between atoms: C_1  and  C_2
REMARK    2  A    between atoms: C_2  and  C_3
REMARK    3  A    between atoms: C_2  and  C_4
REMARK    4  A    between atoms: C_4  and  C_5
REMARK    5  A    between atoms: C_5  and  C_6
REMARK    6  A    between atoms: C_9  and  C_10
REMARK    7  A    between atoms: C_10  and  O_11
REMARK    8  A    between atoms: O_11  and  C_12
REMARK    9  A    between atoms: C_15  and  C_16
REMARK   10  A    between atoms: C_16  and  C_17
REMARK   11  A    between atoms: C_17  and  C_18
REMARK   12  A    between atoms: C_18  and  C_19
REMARK   13  A    between atoms: C_18  and  C_20
REMARK   14  A    between atoms: C_18  and  S_24
REMARK   15  A    between atoms: N_22  and  O_23
REMARK   16  A    between atoms: S_24  and  C_25
REMARK                            x       y       z     vdW  Elec       q    Type
REMARK                         _______ _______ _______ _____ _____    ______ ____
ROOT
ATOM      1  C   UNL     1       1.423   8.983  19.298  0.00  0.00    +0.000 A 
ATOM      2  C   UNL     1       2.039   8.782  18.068  0.00  0.00    +0.000 A 
ATOM      3  C   UNL     1       2.766   7.620  17.824  0.00  0.00    +0.000 A 
ATOM      4  C   UNL     1       2.929   6.652  18.824  0.00  0.00    +0.000 A 
ATOM      5  C   UNL     1       2.275   6.850  20.051  0.00  0.00    +0.000 A 
ATOM      6  C   UNL     1       1.532   8.013  20.291  0.00  0.00    +0.000 A 
ENDROOT
BRANCH   1   7
ATOM      7  O   UNL     1       0.788  10.180  19.426  0.00  0.00    +0.000 OA
BRANCH   7   8
ATOM      8  C   UNL     1       0.843  10.792  20.710  0.00  0.00    +0.000 C 
BRANCH   8  12
ATOM      9  C   UNL     1       1.618  14.113  19.727  0.00  0.00    +0.000 A 
ATOM     10  N   UNL     1       1.510  14.318  21.047  0.00  0.00    +0.000 NA
ATOM     11  O   UNL     1       1.184  13.050  21.538  0.00  0.00    +0.000 OA
ATOM     12  C   UNL     1       1.121  12.224  20.453  0.00  0.00    +0.000 A 
ATOM     13  N   UNL     1       1.365  12.832  19.314  0.00  0.00    +0.000 NA
BRANCH   9  14
ATOM     14  C   UNL     1       1.978  15.185  18.768  0.00  0.00    +0.000 C 
BRANCH  14  15
ATOM     15  C   UNL     1       3.092  16.080  19.319  0.00  0.00    +0.000 C 
BRANCH  15  17
ATOM     16  C   UNL     1       5.418  16.979  19.080  0.00  0.00    +0.000 C 
ATOM     17  C   UNL     1       4.271  16.274  18.352  0.00  0.00    +0.000 C 
ATOM     18  C   UNL     1       4.769  14.951  17.763  0.00  0.00    +0.000 C 
ENDBRANCH  15  17
ENDBRANCH  14  15
ENDBRANCH   9  14
ENDBRANCH   8  12
ENDBRANCH   7   8
ENDBRANCH   1   7
BRANCH   4  19
ATOM     19  C   UNL     1       3.768   5.407  18.606  0.00  0.00    +0.000 C 
BRANCH  19  20
ATOM     20  C   UNL     1       4.651   5.488  17.348  0.00  0.00    +0.000 C 
BRANCH  20  21
ATOM     21  C   UNL     1       6.151   5.785  17.581  0.00  0.00    +0.000 C 
ATOM     22  C   UNL     1       6.445   7.288  17.455  0.00  0.00    +0.000 C 
BRANCH  21  23
ATOM     23  C   UNL     1       6.613   5.251  18.934  0.00  0.00    +0.000 C 
ATOM     24  O   UNL     1       6.011   4.361  19.538  0.00  0.00    +0.000 OA
ATOM     25  N   UNL     1       7.771   5.787  19.454  0.00  0.00    +0.000 N 
ATOM     26  H   UNL     1       8.062   6.745  19.235  0.00  0.00    +0.000 HD
BRANCH  25  27
ATOM     27  O   UNL     1       8.109   5.333  20.752  0.00  0.00    +0.000 OA
ATOM     28  H   UNL     1       8.141   4.357  20.644  0.00  0.00    +0.000 HD
ENDBRANCH  25  27
ENDBRANCH  21  23
BRANCH  21  29
ATOM     29  S   UNL     1       7.088   4.877  16.306  0.00  0.00    +0.000 S 
ATOM     30  C   UNL     1       5.951   3.737  15.550  0.00  0.00    +0.000 C 
ATOM     31  O   UNL     1       7.470   5.835  15.279  0.00  0.00    +0.000 OA
ATOM     32  O   UNL     1       8.108   4.087  16.967  0.00  0.00    +0.000 OA
ENDBRANCH  21  29
ENDBRANCH  20  21
ENDBRANCH  19  20
ENDBRANCH   4  19
TORSDOF 12
ENDMDL
MODEL 8
REMARK VINA RESULT:      -7.6      2.014      2.956
REMARK  Name = 
REMARK  16 active torsions:
REMARK  status: ('A' for Active; 'I' for Inactive)
REMARK    1  A    between atoms: C_1  and  C_2
REMARK    2  A    between atoms: C_2  and  C_3
REMARK    3  A    between atoms: C_2  and  C_4
REMARK    4  A    between atoms: C_4  and  C_5
REMARK    5  A    between atoms: C_5  and  C_6
REMARK    6  A    between atoms: C_9  and  C_10
REMARK    7  A    between atoms: C_10  and  O_11
REMARK    8  A    between atoms: O_11  and  C_12
REMARK    9  A    between atoms: C_15  and  C_16
REMARK   10  A    between atoms: C_16  and  C_17
REMARK   11  A    between atoms: C_17  and  C_18
REMARK   12  A    between atoms: C_18  and  C_19
REMARK   13  A    between atoms: C_18  and  C_20
REMARK   14  A    between atoms: C_18  and  S_24
REMARK   15  A    between atoms: N_22  and  O_23
REMARK   16  A    between atoms: S_24  and  C_25
REMARK                            x       y       z     vdW  Elec       q    Type
REMARK                         _______ _______ _______ _____ _____    ______ ____
ROOT
ATOM      1  C   UNL     1       0.595   9.830  19.560  0.00  0.00    +0.000 A 
ATOM      2  C   UNL     1       1.050   8.834  20.416  0.00  0.00    +0.000 A 
ATOM      3  C   UNL     1       1.897   7.832  19.946  0.00  0.00    +0.000 A 
ATOM      4  C   UNL     1       2.270   7.783  18.597  0.00  0.00    +0.000 A 
ATOM      5  C   UNL     1       1.831   8.813  17.749  0.00  0.00    +0.000 A 
ATOM      6  C   UNL     1       0.990   9.828  18.225  0.00  0.00    +0.000 A 
ENDROOT
BRANCH   1   7
ATOM      7  O   UNL     1      -0.266  10.718  20.130  0.00  0.00    +0.000 OA
BRANCH   7   8
ATOM      8  C   UNL     1      -0.254  12.040  19.601  0.00  0.00    +0.000 C 
BRANCH   8  12
ATOM      9  C   UNL     1      -0.336  14.288  22.345  0.00  0.00    +0.000 A 
ATOM     10  N   UNL     1       0.986  14.074  22.305  0.00  0.00    +0.000 NA
ATOM     11  O   UNL     1       1.128  13.172  21.247  0.00  0.00    +0.000 OA
ATOM     12  C   UNL     1      -0.131  12.933  20.775  0.00  0.00    +0.000 A 
ATOM     13  N   UNL     1      -1.068  13.585  21.427  0.00  0.00    +0.000 NA
BRANCH   9  14
ATOM     14  C   UNL     1      -0.977  15.211  23.313  0.00  0.00    +0.000 C 
BRANCH  14  15
ATOM     15  C   UNL     1      -2.006  14.484  24.184  0.00  0.00    +0.000 C 
BRANCH  15  17
ATOM     16  C   UNL     1      -1.173  15.950  26.037  0.00  0.00    +0.000 C 
ATOM     17  C   UNL     1      -2.406  15.257  25.452  0.00  0.00    +0.000 C 
ATOM     18  C   UNL     1      -3.502  16.291  25.185  0.00  0.00    +0.000 C 
ENDBRANCH  15  17
ENDBRANCH  14  15
ENDBRANCH   9  14
ENDBRANCH   8  12
ENDBRANCH   7   8
ENDBRANCH   1   7
BRANCH   4  19
ATOM     19  C   UNL     1       3.139   6.668  18.046  0.00  0.00    +0.000 C 
BRANCH  19  20
ATOM     20  C   UNL     1       3.596   5.670  19.125  0.00  0.00    +0.000 C 
BRANCH  20  21
ATOM     21  C   UNL     1       4.383   4.435  18.629  0.00  0.00    +0.000 C 
ATOM     22  C   UNL     1       4.071   4.134  17.155  0.00  0.00    +0.000 C 
BRANCH  21  23
ATOM     23  C   UNL     1       5.883   4.619  18.841  0.00  0.00    +0.000 C 
ATOM     24  O   UNL     1       6.347   5.280  19.773  0.00  0.00    +0.000 OA
ATOM     25  N   UNL     1       6.723   3.980  17.955  0.00  0.00    +0.000 N 
ATOM     26  H   UNL     1       6.434   3.786  16.990  0.00  0.00    +0.000 HD
BRANCH  25  27
ATOM     27  O   UNL     1       8.100   4.256  18.130  0.00  0.00    +0.000 OA
ATOM     28  H   UNL     1       8.325   3.749  18.942  0.00  0.00    +0.000 HD
ENDBRANCH  25  27
ENDBRANCH  21  23
BRANCH  21  29
ATOM     29  S   UNL     1       3.873   3.017  19.657  0.00  0.00    +0.000 S 
ATOM     30  C   UNL     1       2.955   1.921  18.599  0.00  0.00    +0.000 C 
ATOM     31  O   UNL     1       5.082   2.308  20.053  0.00  0.00    +0.000 OA
ATOM     32  O   UNL     1       2.957   3.497  20.673  0.00  0.00    +0.000 OA
ENDBRANCH  21  29
ENDBRANCH  20  21
ENDBRANCH  19  20
ENDBRANCH   4  19
TORSDOF 12
ENDMDL
MODEL 9
REMARK VINA RESULT:      -7.6      6.666      9.111
REMARK  Name = 
REMARK  16 active torsions:
REMARK  status: ('A' for Active; 'I' for Inactive)
REMARK    1  A    between atoms: C_1  and  C_2
REMARK    2  A    between atoms: C_2  and  C_3
REMARK    3  A    between atoms: C_2  and  C_4
REMARK    4  A    between atoms: C_4  and  C_5
REMARK    5  A    between atoms: C_5  and  C_6
REMARK    6  A    between atoms: C_9  and  C_10
REMARK    7  A    between atoms: C_10  and  O_11
REMARK    8  A    between atoms: O_11  and  C_12
REMARK    9  A    between atoms: C_15  and  C_16
REMARK   10  A    between atoms: C_16  and  C_17
REMARK   11  A    between atoms: C_17  and  C_18
REMARK   12  A    between atoms: C_18  and  C_19
REMARK   13  A    between atoms: C_18  and  C_20
REMARK   14  A    between atoms: C_18  and  S_24
REMARK   15  A    between atoms: N_22  and  O_23
REMARK   16  A    between atoms: S_24  and  C_25
REMARK                            x       y       z     vdW  Elec       q    Type
REMARK                         _______ _______ _______ _____ _____    ______ ____
ROOT
ATOM      1  C   UNL     1       7.748   7.245  18.289  0.00  0.00    +0.000 A 
ATOM      2  C   UNL     1       6.763   7.457  17.330  0.00  0.00    +0.000 A 
ATOM      3  C   UNL     1       5.774   6.500  17.111  0.00  0.00    +0.000 A 
ATOM      4  C   UNL     1       5.777   5.290  17.818  0.00  0.00    +0.000 A 
ATOM      5  C   UNL     1       6.757   5.102  18.806  0.00  0.00    +0.000 A 
ATOM      6  C   UNL     1       7.743   6.070  19.036  0.00  0.00    +0.000 A 
ENDROOT
BRANCH   1   7
ATOM      7  O   UNL     1       8.682   8.231  18.369  0.00  0.00    +0.000 OA
BRANCH   7   8
ATOM      8  C   UNL     1       8.225   9.558  18.125  0.00  0.00    +0.000 C 
BRANCH   8  12
ATOM      9  C   UNL     1      10.829  11.684  19.263  0.00  0.00    +0.000 A 
ATOM     10  N   UNL     1      10.303  11.362  20.453  0.00  0.00    +0.000 NA
ATOM     11  O   UNL     1       9.239  10.522  20.111  0.00  0.00    +0.000 OA
ATOM     12  C   UNL     1       9.236  10.443  18.748  0.00  0.00    +0.000 A 
ATOM     13  N   UNL     1      10.185  11.151  18.179  0.00  0.00    +0.000 NA
BRANCH   9  14
ATOM     14  C   UNL     1      12.017  12.558  19.114  0.00  0.00    +0.000 C 
BRANCH  14  15
ATOM     15  C   UNL     1      11.902  13.456  17.878  0.00  0.00    +0.000 C 
BRANCH  15  17
ATOM     16  C   UNL     1      11.913  15.272  19.604  0.00  0.00    +0.000 C 
ATOM     17  C   UNL     1      11.457  14.894  18.192  0.00  0.00    +0.000 C 
ATOM     18  C   UNL     1      12.002  15.908  17.184  0.00  0.00    +0.000 C 
ENDBRANCH  15  17
ENDBRANCH  14  15
ENDBRANCH   9  14
ENDBRANCH   8  12
ENDBRANCH   7   8
ENDBRANCH   1   7
BRANCH   4  19
ATOM     19  C   UNL     1       4.750   4.205  17.555  0.00  0.00    +0.000 C 
BRANCH  19  20
ATOM     20  C   UNL     1       3.438   4.416  18.332  0.00  0.00    +0.000 C 
BRANCH  20  21
ATOM     21  C   UNL     1       2.773   3.146  18.913  0.00  0.00    +0.000 C 
ATOM     22  C   UNL     1       1.604   2.680  18.032  0.00  0.00    +0.000 C 
BRANCH  21  23
ATOM     23  C   UNL     1       3.794   2.027  19.098  0.00  0.00    +0.000 C 
ATOM     24  O   UNL     1       3.839   1.039  18.360  0.00  0.00    +0.000 OA
ATOM     25  N   UNL     1       4.706   2.175  20.120  0.00  0.00    +0.000 N 
ATOM     26  H   UNL     1       4.478   2.709  20.966  0.00  0.00    +0.000 HD
BRANCH  25  27
ATOM     27  O   UNL     1       5.570   1.071  20.316  0.00  0.00    +0.000 OA
ATOM     28  H   UNL     1       6.158   1.108  19.529  0.00  0.00    +0.000 HD
ENDBRANCH  25  27
ENDBRANCH  21  23
BRANCH  21  29
ATOM     29  S   UNL     1       2.148   3.571  20.573  0.00  0.00    +0.000 S 
ATOM     30  C   UNL     1       0.599   4.413  20.336  0.00  0.00    +0.000 C 
ATOM     31  O   UNL     1       1.849   2.322  21.259  0.00  0.00    +0.000 OA
ATOM     32  O   UNL     1       3.062   4.521  21.175  0.00  0.00    +0.000 OA
ENDBRANCH  21  29
ENDBRANCH  20  21
ENDBRANCH  19  20
ENDBRANCH   4  19
TORSDOF 12
ENDMDL
