MODEL 1
REMARK VINA RESULT:      -7.0      0.000      0.000
REMARK  Name = 
REMARK  4 active torsions:
REMARK  status: ('A' for Active; 'I' for Inactive)
REMARK    1  A    between atoms: C_1  and  N_2
REMARK    2  A    between atoms: N_2  and  C_3
REMARK    3  A    between atoms: C_7  and  N_8
REMARK    4  A    between atoms: N_18  and  S_19
REMARK                            x       y       z     vdW  Elec       q    Type
REMARK                         _______ _______ _______ _____ _____    ______ ____
ROOT
ATOM      1  N   UNL     1       2.272   7.151  18.809  0.00  0.00    +0.000 N 
ATOM      2  C   UNL     1       2.021   8.364  18.219  0.00  0.00    +0.000 C 
ATOM      3  O   UNL     1       2.328   8.578  17.049  0.00  0.00    +0.000 OA
ATOM      4  N   UNL     1       1.407   9.313  18.999  0.00  0.00    +0.000 N 
ATOM      5  C   UNL     1       1.308  10.673  18.465  0.00  0.00    +0.000 C 
ATOM      6  C   UNL     1       0.440  11.426  19.451  0.00  0.00    +0.000 C 
ATOM      7  C   UNL     1       0.815  10.818  20.799  0.00  0.00    +0.000 C 
ATOM      8  C   UNL     1       1.216   9.352  20.474  0.00  0.00    +0.000 C 
ATOM      9  C   UNL     1      -0.168   9.013  21.154  0.00  0.00    +0.000 C 
ATOM     10  O   UNL     1      -0.806   8.014  21.420  0.00  0.00    +0.000 OA
ATOM     11  N   UNL     1      -0.372  10.344  21.523  0.00  0.00    +0.000 N 
ATOM     12  H   UNL     1       2.315   7.142  19.818  0.00  0.00    +0.000 HD
ENDROOT
BRANCH   1  19
ATOM     13  C   UNL     1       3.462   1.380  18.427  0.00  0.00    +0.000 C 
ATOM     14  N   UNL     1       3.099   2.832  18.818  0.00  0.00    +0.000 N 
ATOM     15  C   UNL     1       1.850   2.734  19.700  0.00  0.00    +0.000 C 
ATOM     16  C   UNL     1       4.285   3.383  19.606  0.00  0.00    +0.000 C 
ATOM     17  C   UNL     1       4.165   4.853  19.993  0.00  0.00    +0.000 C 
ATOM     18  C   UNL     1       4.336   5.799  18.811  0.00  0.00    +0.000 C 
ATOM     19  C   UNL     1       3.042   6.140  18.070  0.00  0.00    +0.000 C 
ATOM     20  C   UNL     1       2.151   4.947  17.681  0.00  0.00    +0.000 C 
ATOM     21  C   UNL     1       2.834   3.595  17.505  0.00  0.00    +0.000 C 
ENDBRANCH   1  19
BRANCH  11  22
ATOM     22  S   UNL     1      -0.708  10.737  23.131  0.00  0.00    +0.000 S 
ATOM     23  O   UNL     1      -2.140  10.467  23.222  0.00  0.00    +0.000 OA
ATOM     24  O   UNL     1       0.140   9.852  23.913  0.00  0.00    +0.000 OA
ATOM     25  O   UNL     1      -0.356  12.153  23.171  0.00  0.00    +0.000 OA
ENDBRANCH  11  22
TORSDOF 2
ENDMDL
MODEL 2
REMARK VINA RESULT:      -6.2      1.323      2.108
REMARK  Name = 
REMARK  4 active torsions:
REMARK  status: ('A' for Active; 'I' for Inactive)
REMARK    1  A    between atoms: C_1  and  N_2
REMARK    2  A    between atoms: N_2  and  C_3
REMARK    3  A    between atoms: C_7  and  N_8
REMARK    4  A    between atoms: N_18  and  S_19
REMARK                            x       y       z     vdW  Elec       q    Type
REMARK                         _______ _______ _______ _____ _____    ______ ____
ROOT
ATOM      1  N   UNL     1       2.155   6.121  20.954  0.00  0.00    +0.000 N 
ATOM      2  C   UNL     1       2.170   6.834  19.783  0.00  0.00    +0.000 C 
ATOM      3  O   UNL     1       2.641   6.357  18.754  0.00  0.00    +0.000 OA
ATOM      4  N   UNL     1       1.627   8.095  19.823  0.00  0.00    +0.000 N 
ATOM      5  C   UNL     1       1.808   8.951  18.648  0.00  0.00    +0.000 C 
ATOM      6  C   UNL     1       0.961  10.177  18.915  0.00  0.00    +0.000 C 
ATOM      7  C   UNL     1       1.075  10.373  20.423  0.00  0.00    +0.000 C 
ATOM      8  C   UNL     1       1.274   8.941  20.994  0.00  0.00    +0.000 C 
ATOM      9  C   UNL     1      -0.215   9.124  21.484  0.00  0.00    +0.000 C 
ATOM     10  O   UNL     1      -1.030   8.476  22.111  0.00  0.00    +0.000 OA
ATOM     11  N   UNL     1      -0.248  10.452  21.057  0.00  0.00    +0.000 N 
ATOM     12  H   UNL     1       2.079   6.657  21.806  0.00  0.00    +0.000 HD
ENDROOT
BRANCH   1  19
ATOM     13  C   UNL     1       3.604   1.338  17.807  0.00  0.00    +0.000 C 
ATOM     14  N   UNL     1       2.992   2.611  18.441  0.00  0.00    +0.000 N 
ATOM     15  C   UNL     1       2.623   3.531  17.272  0.00  0.00    +0.000 C 
ATOM     16  C   UNL     1       1.746   2.165  19.201  0.00  0.00    +0.000 C 
ATOM     17  C   UNL     1       1.054   3.269  19.993  0.00  0.00    +0.000 C 
ATOM     18  C   UNL     1       1.829   3.691  21.235  0.00  0.00    +0.000 C 
ATOM     19  C   UNL     1       2.836   4.819  21.010  0.00  0.00    +0.000 C 
ATOM     20  C   UNL     1       3.789   4.646  19.814  0.00  0.00    +0.000 C 
ATOM     21  C   UNL     1       4.075   3.221  19.351  0.00  0.00    +0.000 C 
ENDBRANCH   1  19
BRANCH  11  22
ATOM     22  S   UNL     1      -0.702  11.677  22.127  0.00  0.00    +0.000 S 
ATOM     23  O   UNL     1      -2.079  11.948  21.720  0.00  0.00    +0.000 OA
ATOM     24  O   UNL     1      -0.552  11.089  23.448  0.00  0.00    +0.000 OA
ATOM     25  O   UNL     1       0.246  12.734  21.790  0.00  0.00    +0.000 OA
ENDBRANCH  11  22
TORSDOF 2
ENDMDL
MODEL 3
REMARK VINA RESULT:      -6.2      3.378      7.454
REMARK  Name = 
REMARK  4 active torsions:
REMARK  status: ('A' for Active; 'I' for Inactive)
REMARK    1  A    between atoms: C_1  and  N_2
REMARK    2  A    between atoms: N_2  and  C_3
REMARK    3  A    between atoms: C_7  and  N_8
REMARK    4  A    between atoms: N_18  and  S_19
REMARK                            x       y       z     vdW  Elec       q    Type
REMARK                         _______ _______ _______ _____ _____    ______ ____
ROOT
ATOM      1  N   UNL     1       1.400   8.761  18.331  0.00  0.00    +0.000 N 
ATOM      2  C   UNL     1       2.617   8.352  17.848  0.00  0.00    +0.000 C 
ATOM      3  O   UNL     1       3.358   9.128  17.251  0.00  0.00    +0.000 OA
ATOM      4  N   UNL     1       2.961   7.042  18.074  0.00  0.00    +0.000 N 
ATOM      5  C   UNL     1       4.155   6.525  17.403  0.00  0.00    +0.000 C 
ATOM      6  C   UNL     1       4.372   5.143  17.982  0.00  0.00    +0.000 C 
ATOM      7  C   UNL     1       2.956   4.626  18.219  0.00  0.00    +0.000 C 
ATOM      8  C   UNL     1       2.114   5.900  18.513  0.00  0.00    +0.000 C 
ATOM      9  C   UNL     1       2.136   5.353  19.993  0.00  0.00    +0.000 C 
ATOM     10  O   UNL     1       1.681   5.687  21.070  0.00  0.00    +0.000 OA
ATOM     11  N   UNL     1       2.775   4.175  19.605  0.00  0.00    +0.000 N 
ATOM     12  H   UNL     1       0.717   8.037  18.498  0.00  0.00    +0.000 HD
ENDROOT
BRANCH   1  19
ATOM     13  C   UNL     1      -1.043  13.637  20.596  0.00  0.00    +0.000 C 
ATOM     14  N   UNL     1      -0.545  12.219  20.228  0.00  0.00    +0.000 N 
ATOM     15  C   UNL     1      -0.110  11.567  21.545  0.00  0.00    +0.000 C 
ATOM     16  C   UNL     1      -1.735  11.482  19.618  0.00  0.00    +0.000 C 
ATOM     17  C   UNL     1      -1.417  10.088  19.086  0.00  0.00    +0.000 C 
ATOM     18  C   UNL     1      -0.597  10.110  17.803  0.00  0.00    +0.000 C 
ATOM     19  C   UNL     1       0.918  10.112  18.009  0.00  0.00    +0.000 C 
ATOM     20  C   UNL     1       1.463  11.143  19.013  0.00  0.00    +0.000 C 
ATOM     21  C   UNL     1       0.628  12.399  19.245  0.00  0.00    +0.000 C 
ENDBRANCH   1  19
BRANCH  11  22
ATOM     22  S   UNL     1       2.119   2.676  20.024  0.00  0.00    +0.000 S 
ATOM     23  O   UNL     1       2.512   2.547  21.425  0.00  0.00    +0.000 OA
ATOM     24  O   UNL     1       0.691   2.819  19.792  0.00  0.00    +0.000 OA
ATOM     25  O   UNL     1       2.824   1.778  19.114  0.00  0.00    +0.000 OA
ENDBRANCH  11  22
TORSDOF 2
ENDMDL
MODEL 4
REMARK VINA RESULT:      -5.9      1.472      2.213
REMARK  Name = 
REMARK  4 active torsions:
REMARK  status: ('A' for Active; 'I' for Inactive)
REMARK    1  A    between atoms: C_1  and  N_2
REMARK    2  A    between atoms: N_2  and  C_3
REMARK    3  A    between atoms: C_7  and  N_8
REMARK    4  A    between atoms: N_18  and  S_19
REMARK                            x       y       z     vdW  Elec       q    Type
REMARK                         _______ _______ _______ _____ _____    ______ ____
ROOT
ATOM      1  N   UNL     1       2.516   6.469  20.083  0.00  0.00    +0.000 N 
ATOM      2  C   UNL     1       2.365   7.355  19.047  0.00  0.00    +0.000 C 
ATOM      3  O   UNL     1       2.796   7.101  17.925  0.00  0.00    +0.000 OA
ATOM      4  N   UNL     1       1.706   8.526  19.329  0.00  0.00    +0.000 N 
ATOM      5  C   UNL     1       1.706   9.571  18.302  0.00  0.00    +0.000 C 
ATOM      6  C   UNL     1       0.766  10.639  18.822  0.00  0.00    +0.000 C 
ATOM      7  C   UNL     1       0.983  10.606  20.331  0.00  0.00    +0.000 C 
ATOM      8  C   UNL     1       1.367   9.133  20.644  0.00  0.00    +0.000 C 
ATOM      9  C   UNL     1      -0.088   9.071  21.252  0.00  0.00    +0.000 C 
ATOM     10  O   UNL     1      -0.781   8.247  21.815  0.00  0.00    +0.000 OA
ATOM     11  N   UNL     1      -0.286  10.438  21.053  0.00  0.00    +0.000 N 
ATOM     12  H   UNL     1       2.457   6.853  21.015  0.00  0.00    +0.000 HD
ENDROOT
BRANCH   1  19
ATOM     13  C   UNL     1       5.893   3.565  16.206  0.00  0.00    +0.000 C 
ATOM     14  N   UNL     1       4.873   4.437  16.976  0.00  0.00    +0.000 N 
ATOM     15  C   UNL     1       4.859   5.797  16.270  0.00  0.00    +0.000 C 
ATOM     16  C   UNL     1       3.520   3.741  16.852  0.00  0.00    +0.000 C 
ATOM     17  C   UNL     1       2.393   4.395  17.644  0.00  0.00    +0.000 C 
ATOM     18  C   UNL     1       2.517   4.186  19.148  0.00  0.00    +0.000 C 
ATOM     19  C   UNL     1       3.325   5.258  19.880  0.00  0.00    +0.000 C 
ATOM     20  C   UNL     1       4.694   5.608  19.270  0.00  0.00    +0.000 C 
ATOM     21  C   UNL     1       5.377   4.534  18.429  0.00  0.00    +0.000 C 
ENDBRANCH   1  19
BRANCH  11  22
ATOM     22  S   UNL     1      -0.770  11.422  22.337  0.00  0.00    +0.000 S 
ATOM     23  O   UNL     1      -2.197  11.594  22.073  0.00  0.00    +0.000 OA
ATOM     24  O   UNL     1      -0.450  10.656  23.530  0.00  0.00    +0.000 OA
ATOM     25  O   UNL     1       0.034  12.619  22.116  0.00  0.00    +0.000 OA
ENDBRANCH  11  22
TORSDOF 2
ENDMDL
MODEL 5
REMARK VINA RESULT:      -5.9      1.529      2.428
REMARK  Name = 
REMARK  4 active torsions:
REMARK  status: ('A' for Active; 'I' for Inactive)
REMARK    1  A    between atoms: C_1  and  N_2
REMARK    2  A    between atoms: N_2  and  C_3
REMARK    3  A    between atoms: C_7  and  N_8
REMARK    4  A    between atoms: N_18  and  S_19
REMARK                            x       y       z     vdW  Elec       q    Type
REMARK                         _______ _______ _______ _____ _____    ______ ____
ROOT
ATOM      1  N   UNL     1       2.175   6.416  20.571  0.00  0.00    +0.000 N 
ATOM      2  C   UNL     1       2.232   6.958  19.312  0.00  0.00    +0.000 C 
ATOM      3  O   UNL     1       2.704   6.328  18.369  0.00  0.00    +0.000 OA
ATOM      4  N   UNL     1       1.731   8.228  19.165  0.00  0.00    +0.000 N 
ATOM      5  C   UNL     1       1.958   8.905  17.886  0.00  0.00    +0.000 C 
ATOM      6  C   UNL     1       1.147  10.182  17.963  0.00  0.00    +0.000 C 
ATOM      7  C   UNL     1       1.244  10.583  19.431  0.00  0.00    +0.000 C 
ATOM      8  C   UNL     1       1.386   9.239  20.200  0.00  0.00    +0.000 C 
ATOM      9  C   UNL     1      -0.104   9.533  20.628  0.00  0.00    +0.000 C 
ATOM     10  O   UNL     1      -0.950   9.005  21.323  0.00  0.00    +0.000 OA
ATOM     11  N   UNL     1      -0.087  10.790  20.020  0.00  0.00    +0.000 N 
ATOM     12  H   UNL     1       2.103   7.068  21.338  0.00  0.00    +0.000 HD
ENDROOT
BRANCH   1  19
ATOM     13  C   UNL     1       3.651   1.256  18.107  0.00  0.00    +0.000 C 
ATOM     14  N   UNL     1       3.044   2.610  18.547  0.00  0.00    +0.000 N 
ATOM     15  C   UNL     1       2.768   3.391  17.258  0.00  0.00    +0.000 C 
ATOM     16  C   UNL     1       1.744   2.288  19.281  0.00  0.00    +0.000 C 
ATOM     17  C   UNL     1       1.043   3.496  19.894  0.00  0.00    +0.000 C 
ATOM     18  C   UNL     1       1.760   4.046  21.120  0.00  0.00    +0.000 C 
ATOM     19  C   UNL     1       2.812   5.115  20.822  0.00  0.00    +0.000 C 
ATOM     20  C   UNL     1       3.825   4.777  19.713  0.00  0.00    +0.000 C 
ATOM     21  C   UNL     1       4.092   3.300  19.440  0.00  0.00    +0.000 C 
ENDBRANCH   1  19
BRANCH  11  22
ATOM     22  S   UNL     1      -0.518  12.165  20.900  0.00  0.00    +0.000 S 
ATOM     23  O   UNL     1       0.107  11.912  22.196  0.00  0.00    +0.000 OA
ATOM     24  O   UNL     1       0.043  13.276  20.149  0.00  0.00    +0.000 OA
ATOM     25  O   UNL     1      -1.974  12.072  20.903  0.00  0.00    +0.000 OA
ENDBRANCH  11  22
TORSDOF 2
ENDMDL
MODEL 6
REMARK VINA RESULT:      -5.8      6.177     10.340
REMARK  Name = 
REMARK  4 active torsions:
REMARK  status: ('A' for Active; 'I' for Inactive)
REMARK    1  A    between atoms: C_1  and  N_2
REMARK    2  A    between atoms: N_2  and  C_3
REMARK    3  A    between atoms: C_7  and  N_8
REMARK    4  A    between atoms: N_18  and  S_19
REMARK                            x       y       z     vdW  Elec       q    Type
REMARK                         _______ _______ _______ _____ _____    ______ ____
ROOT
ATOM      1  N   UNL     1      -5.188  12.861  18.991  0.00  0.00    +0.000 N 
ATOM      2  C   UNL     1      -5.093  12.240  17.772  0.00  0.00    +0.000 C 
ATOM      3  O   UNL     1      -6.017  12.283  16.963  0.00  0.00    +0.000 OA
ATOM      4  N   UNL     1      -3.919  11.579  17.506  0.00  0.00    +0.000 N 
ATOM      5  C   UNL     1      -3.865  10.744  16.304  0.00  0.00    +0.000 C 
ATOM      6  C   UNL     1      -2.419  10.308  16.187  0.00  0.00    +0.000 C 
ATOM      7  C   UNL     1      -1.974  10.147  17.637  0.00  0.00    +0.000 C 
ATOM      8  C   UNL     1      -2.824  11.178  18.430  0.00  0.00    +0.000 C 
ATOM      9  C   UNL     1      -1.460  11.968  18.515  0.00  0.00    +0.000 C 
ATOM     10  O   UNL     1      -1.063  13.005  19.009  0.00  0.00    +0.000 OA
ATOM     11  N   UNL     1      -0.757  10.922  17.915  0.00  0.00    +0.000 N 
ATOM     12  H   UNL     1      -4.575  12.520  19.717  0.00  0.00    +0.000 HD
ENDROOT
BRANCH   1  19
ATOM     13  C   UNL     1      -7.916  15.904  23.253  0.00  0.00    +0.000 C 
ATOM     14  N   UNL     1      -7.029  15.004  22.361  0.00  0.00    +0.000 N 
ATOM     15  C   UNL     1      -5.586  15.242  22.819  0.00  0.00    +0.000 C 
ATOM     16  C   UNL     1      -7.458  13.563  22.630  0.00  0.00    +0.000 C 
ATOM     17  C   UNL     1      -6.768  12.520  21.757  0.00  0.00    +0.000 C 
ATOM     18  C   UNL     1      -7.247  12.537  20.312  0.00  0.00    +0.000 C 
ATOM     19  C   UNL     1      -6.465  13.472  19.388  0.00  0.00    +0.000 C 
ATOM     20  C   UNL     1      -6.250  14.907  19.902  0.00  0.00    +0.000 C 
ATOM     21  C   UNL     1      -7.265  15.447  20.904  0.00  0.00    +0.000 C 
ENDBRANCH   1  19
BRANCH  11  22
ATOM     22  S   UNL     1       0.613  10.280  18.665  0.00  0.00    +0.000 S 
ATOM     23  O   UNL     1       0.108   9.943  19.994  0.00  0.00    +0.000 OA
ATOM     24  O   UNL     1       0.988   9.144  17.839  0.00  0.00    +0.000 OA
ATOM     25  O   UNL     1       1.528  11.416  18.637  0.00  0.00    +0.000 OA
ENDBRANCH  11  22
TORSDOF 2
ENDMDL
MODEL 7
REMARK VINA RESULT:      -5.8      8.716     11.129
REMARK  Name = 
REMARK  4 active torsions:
REMARK  status: ('A' for Active; 'I' for Inactive)
REMARK    1  A    between atoms: C_1  and  N_2
REMARK    2  A    between atoms: N_2  and  C_3
REMARK    3  A    between atoms: C_7  and  N_8
REMARK    4  A    between atoms: N_18  and  S_19
REMARK                            x       y       z     vdW  Elec       q    Type
REMARK                         _______ _______ _______ _____ _____    ______ ____
ROOT
ATOM      1  N   UNL     1       5.952  15.678  19.087  0.00  0.00    +0.000 N 
ATOM      2  C   UNL     1       7.040  16.405  18.674  0.00  0.00    +0.000 C 
ATOM      3  O   UNL     1       6.946  17.604  18.426  0.00  0.00    +0.000 OA
ATOM      4  N   UNL     1       8.228  15.725  18.560  0.00  0.00    +0.000 N 
ATOM      5  C   UNL     1       9.353  16.422  17.934  0.00  0.00    +0.000 C 
ATOM      6  C   UNL     1      10.543  15.503  18.118  0.00  0.00    +0.000 C 
ATOM      7  C   UNL     1       9.939  14.106  18.009  0.00  0.00    +0.000 C 
ATOM      8  C   UNL     1       8.486  14.260  18.539  0.00  0.00    +0.000 C 
ATOM      9  C   UNL     1       9.053  13.485  19.792  0.00  0.00    +0.000 C 
ATOM     10  O   UNL     1       8.621  13.069  20.849  0.00  0.00    +0.000 OA
ATOM     11  N   UNL     1      10.286  13.278  19.172  0.00  0.00    +0.000 N 
ATOM     12  H   UNL     1       6.000  14.679  18.949  0.00  0.00    +0.000 HD
ENDROOT
BRANCH   1  19
ATOM     13  C   UNL     1       0.282  14.897  20.542  0.00  0.00    +0.000 C 
ATOM     14  N   UNL     1       1.770  14.802  20.127  0.00  0.00    +0.000 N 
ATOM     15  C   UNL     1       2.356  13.625  20.913  0.00  0.00    +0.000 C 
ATOM     16  C   UNL     1       1.788  14.522  18.626  0.00  0.00    +0.000 C 
ATOM     17  C   UNL     1       3.178  14.501  17.999  0.00  0.00    +0.000 C 
ATOM     18  C   UNL     1       3.806  15.884  17.887  0.00  0.00    +0.000 C 
ATOM     19  C   UNL     1       4.627  16.316  19.102  0.00  0.00    +0.000 C 
ATOM     20  C   UNL     1       3.950  16.141  20.473  0.00  0.00    +0.000 C 
ATOM     21  C   UNL     1       2.425  16.145  20.503  0.00  0.00    +0.000 C 
ENDBRANCH   1  19
BRANCH  11  22
ATOM     22  S   UNL     1      10.927  11.721  19.055  0.00  0.00    +0.000 S 
ATOM     23  O   UNL     1      11.556  11.546  20.362  0.00  0.00    +0.000 OA
ATOM     24  O   UNL     1       9.779  10.866  18.802  0.00  0.00    +0.000 OA
ATOM     25  O   UNL     1      11.866  11.866  17.948  0.00  0.00    +0.000 OA
ENDBRANCH  11  22
TORSDOF 2
ENDMDL
MODEL 8
REMARK VINA RESULT:      -5.6      5.950     10.278
REMARK  Name = 
REMARK  4 active torsions:
REMARK  status: ('A' for Active; 'I' for Inactive)
REMARK    1  A    between atoms: C_1  and  N_2
REMARK    2  A    between atoms: N_2  and  C_3
REMARK    3  A    between atoms: C_7  and  N_8
REMARK    4  A    between atoms: N_18  and  S_19
REMARK                            x       y       z     vdW  Elec       q    Type
REMARK                         _______ _______ _______ _____ _____    ______ ____
ROOT
ATOM      1  N   UNL     1      -4.804  12.882  19.285  0.00  0.00    +0.000 N 
ATOM      2  C   UNL     1      -4.712  11.902  18.329  0.00  0.00    +0.000 C 
ATOM      3  O   UNL     1      -5.697  11.547  17.686  0.00  0.00    +0.000 OA
ATOM      4  N   UNL     1      -3.471  11.350  18.129  0.00  0.00    +0.000 N 
ATOM      5  C   UNL     1      -3.381  10.171  17.265  0.00  0.00    +0.000 C 
ATOM      6  C   UNL     1      -1.898   9.915  17.095  0.00  0.00    +0.000 C 
ATOM      7  C   UNL     1      -1.306  10.316  18.442  0.00  0.00    +0.000 C 
ATOM      8  C   UNL     1      -2.247  11.434  18.971  0.00  0.00    +0.000 C 
ATOM      9  C   UNL     1      -1.035  12.377  18.605  0.00  0.00    +0.000 C 
ATOM     10  O   UNL     1      -0.778  13.563  18.679  0.00  0.00    +0.000 OA
ATOM     11  N   UNL     1      -0.220  11.291  18.282  0.00  0.00    +0.000 N 
ATOM     12  H   UNL     1      -4.080  12.892  19.989  0.00  0.00    +0.000 HD
ENDROOT
BRANCH   1  19
ATOM     13  C   UNL     1      -7.675  16.488  22.976  0.00  0.00    +0.000 C 
ATOM     14  N   UNL     1      -6.727  15.514  22.236  0.00  0.00    +0.000 N 
ATOM     15  C   UNL     1      -5.305  16.013  22.514  0.00  0.00    +0.000 C 
ATOM     16  C   UNL     1      -6.953  14.134  22.849  0.00  0.00    +0.000 C 
ATOM     17  C   UNL     1      -6.181  13.005  22.175  0.00  0.00    +0.000 C 
ATOM     18  C   UNL     1      -6.733  12.637  20.803  0.00  0.00    +0.000 C 
ATOM     19  C   UNL     1      -6.126  13.419  19.638  0.00  0.00    +0.000 C 
ATOM     20  C   UNL     1      -6.071  14.948  19.804  0.00  0.00    +0.000 C 
ATOM     21  C   UNL     1      -7.093  15.584  20.741  0.00  0.00    +0.000 C 
ENDBRANCH   1  19
BRANCH  11  22
ATOM     22  S   UNL     1       1.300  11.128  19.000  0.00  0.00    +0.000 S 
ATOM     23  O   UNL     1       2.094  12.114  18.272  0.00  0.00    +0.000 OA
ATOM     24  O   UNL     1       1.079  11.427  20.406  0.00  0.00    +0.000 OA
ATOM     25  O   UNL     1       1.628   9.740  18.691  0.00  0.00    +0.000 OA
ENDBRANCH  11  22
TORSDOF 2
ENDMDL
MODEL 9
REMARK VINA RESULT:      -5.5      3.741      8.025
REMARK  Name = 
REMARK  4 active torsions:
REMARK  status: ('A' for Active; 'I' for Inactive)
REMARK    1  A    between atoms: C_1  and  N_2
REMARK    2  A    between atoms: N_2  and  C_3
REMARK    3  A    between atoms: C_7  and  N_8
REMARK    4  A    between atoms: N_18  and  S_19
REMARK                            x       y       z     vdW  Elec       q    Type
REMARK                         _______ _______ _______ _____ _____    ______ ____
ROOT
ATOM      1  N   UNL     1       1.970   7.272  20.152  0.00  0.00    +0.000 N 
ATOM      2  C   UNL     1       2.020   5.903  20.224  0.00  0.00    +0.000 C 
ATOM      3  O   UNL     1       1.098   5.258  20.715  0.00  0.00    +0.000 OA
ATOM      4  N   UNL     1       3.143   5.300  19.713  0.00  0.00    +0.000 N 
ATOM      5  C   UNL     1       3.315   3.865  19.954  0.00  0.00    +0.000 C 
ATOM      6  C   UNL     1       4.521   3.465  19.131  0.00  0.00    +0.000 C 
ATOM      7  C   UNL     1       5.428   4.689  19.201  0.00  0.00    +0.000 C 
ATOM      8  C   UNL     1       4.456   5.894  19.344  0.00  0.00    +0.000 C 
ATOM      9  C   UNL     1       4.865   6.170  17.845  0.00  0.00    +0.000 C 
ATOM     10  O   UNL     1       4.613   7.000  16.993  0.00  0.00    +0.000 OA
ATOM     11  N   UNL     1       5.816   5.148  17.861  0.00  0.00    +0.000 N 
ATOM     12  H   UNL     1       2.855   7.750  20.063  0.00  0.00    +0.000 HD
ENDROOT
BRANCH   1  19
ATOM     13  C   UNL     1      -0.892  12.430  20.428  0.00  0.00    +0.000 C 
ATOM     14  N   UNL     1       0.095  11.248  20.276  0.00  0.00    +0.000 N 
ATOM     15  C   UNL     1       0.861  11.498  18.973  0.00  0.00    +0.000 C 
ATOM     16  C   UNL     1       1.031  11.302  21.482  0.00  0.00    +0.000 C 
ATOM     17  C   UNL     1       2.018  10.143  21.573  0.00  0.00    +0.000 C 
ATOM     18  C   UNL     1       1.362   8.827  21.969  0.00  0.00    +0.000 C 
ATOM     19  C   UNL     1       0.858   7.984  20.797  0.00  0.00    +0.000 C 
ATOM     20  C   UNL     1      -0.001   8.721  19.754  0.00  0.00    +0.000 C 
ATOM     21  C   UNL     1      -0.753   9.963  20.222  0.00  0.00    +0.000 C 
ENDBRANCH   1  19
BRANCH  11  22
ATOM     22  S   UNL     1       7.410   5.465  17.404  0.00  0.00    +0.000 S 
ATOM     23  O   UNL     1       8.085   4.216  17.750  0.00  0.00    +0.000 OA
ATOM     24  O   UNL     1       7.337   5.755  15.982  0.00  0.00    +0.000 OA
ATOM     25  O   UNL     1       7.750   6.593  18.266  0.00  0.00    +0.000 OA
ENDBRANCH  11  22
TORSDOF 2
ENDMDL
