MODEL 1
REMARK VINA RESULT:      -8.4      0.000      0.000
REMARK  Name = 
REMARK  3 active torsions:
REMARK  status: ('A' for Active; 'I' for Inactive)
REMARK    1  A    between atoms: C_1  and  C_2
REMARK    2  A    between atoms: C_5  and  C_6
REMARK    3  A    between atoms: C_9  and  C_10
REMARK                            x       y       z     vdW  Elec       q    Type
REMARK                         _______ _______ _______ _____ _____    ______ ____
ROOT
ATOM      1  C   UNL     1       2.324   6.869  18.968  0.00  0.00    +0.000 A 
ATOM      2  C   UNL     1       1.967   6.667  20.304  0.00  0.00    +0.000 A 
ATOM      3  C   UNL     1       1.333   7.685  21.029  0.00  0.00    +0.000 A 
ATOM      4  C   UNL     1       1.047   8.936  20.451  0.00  0.00    +0.000 A 
ATOM      5  C   UNL     1       1.434   9.118  19.109  0.00  0.00    +0.000 A 
ATOM      6  C   UNL     1       2.052   8.101  18.374  0.00  0.00    +0.000 A 
ENDROOT
BRANCH   1  11
ATOM      7  C   UNL     1       7.488   7.364  17.315  0.00  0.00    +0.000 C 
ATOM      8  C   UNL     1       6.284   6.498  17.307  0.00  0.00    +0.000 A 
ATOM      9  N   UNL     1       5.169   6.893  17.932  0.00  0.00    +0.000 NA
ATOM     10  N   UNL     1       4.278   5.882  17.735  0.00  0.00    +0.000 N 
ATOM     11  C   UNL     1       2.949   5.794  18.184  0.00  0.00    +0.000 A 
ATOM     12  C   UNL     1       2.214   4.710  17.881  0.00  0.00    +0.000 A 
ATOM     13  C   UNL     1       2.901   3.673  17.072  0.00  0.00    +0.000 A 
ATOM     14  N   UNL     1       4.124   3.719  16.643  0.00  0.00    +0.000 NA
ATOM     15  C   UNL     1       4.836   4.843  16.975  0.00  0.00    +0.000 A 
ATOM     16  C   UNL     1       6.127   5.234  16.701  0.00  0.00    +0.000 A 
ATOM     17 CL   UNL     1       7.305   4.391  15.818  0.00  0.00    +0.000 Cl
ENDBRANCH   1  11
BRANCH   4  18
ATOM     18  C   UNL     1       0.373  10.021  21.209  0.00  0.00    +0.000 A 
ATOM     19  C   UNL     1       0.432  11.365  20.797  0.00  0.00    +0.000 A 
ATOM     20  C   UNL     1      -0.225  12.379  21.506  0.00  0.00    +0.000 A 
ATOM     21  C   UNL     1      -0.966  12.071  22.642  0.00  0.00    +0.000 A 
ATOM     22  C   UNL     1      -1.039  10.753  23.077  0.00  0.00    +0.000 A 
ATOM     23  C   UNL     1      -0.370   9.746  22.375  0.00  0.00    +0.000 A 
ENDBRANCH   4  18
TORSDOF 2
ENDMDL
MODEL 2
REMARK VINA RESULT:      -8.3      0.036      1.002
REMARK  Name = 
REMARK  3 active torsions:
REMARK  status: ('A' for Active; 'I' for Inactive)
REMARK    1  A    between atoms: C_1  and  C_2
REMARK    2  A    between atoms: C_5  and  C_6
REMARK    3  A    between atoms: C_9  and  C_10
REMARK                            x       y       z     vdW  Elec       q    Type
REMARK                         _______ _______ _______ _____ _____    ______ ____
ROOT
ATOM      1  C   UNL     1       2.331   6.870  18.958  0.00  0.00    +0.000 A 
ATOM      2  C   UNL     1       1.981   6.676  20.296  0.00  0.00    +0.000 A 
ATOM      3  C   UNL     1       1.339   7.693  21.015  0.00  0.00    +0.000 A 
ATOM      4  C   UNL     1       1.039   8.937  20.428  0.00  0.00    +0.000 A 
ATOM      5  C   UNL     1       1.420   9.111  19.084  0.00  0.00    +0.000 A 
ATOM      6  C   UNL     1       2.045   8.095  18.355  0.00  0.00    +0.000 A 
ENDROOT
BRANCH   1  11
ATOM      7  C   UNL     1       7.500   7.384  17.323  0.00  0.00    +0.000 C 
ATOM      8  C   UNL     1       6.300   6.512  17.314  0.00  0.00    +0.000 A 
ATOM      9  N   UNL     1       5.180   6.904  17.933  0.00  0.00    +0.000 NA
ATOM     10  N   UNL     1       4.296   5.888  17.736  0.00  0.00    +0.000 N 
ATOM     11  C   UNL     1       2.965   5.796  18.180  0.00  0.00    +0.000 A 
ATOM     12  C   UNL     1       2.236   4.706  17.878  0.00  0.00    +0.000 A 
ATOM     13  C   UNL     1       2.932   3.669  17.077  0.00  0.00    +0.000 A 
ATOM     14  N   UNL     1       4.156   3.720  16.652  0.00  0.00    +0.000 NA
ATOM     15  C   UNL     1       4.862   4.849  16.983  0.00  0.00    +0.000 A 
ATOM     16  C   UNL     1       6.152   5.246  16.712  0.00  0.00    +0.000 A 
ATOM     17 CL   UNL     1       7.337   4.404  15.837  0.00  0.00    +0.000 Cl
ENDBRANCH   1  11
BRANCH   4  18
ATOM     18  C   UNL     1       0.356  10.021  21.179  0.00  0.00    +0.000 A 
ATOM     19  C   UNL     1      -0.396   9.763  22.340  0.00  0.00    +0.000 A 
ATOM     20  C   UNL     1      -1.018  10.794  23.055  0.00  0.00    +0.000 A 
ATOM     21  C   UNL     1      -0.897  12.113  22.630  0.00  0.00    +0.000 A 
ATOM     22  C   UNL     1      -0.165  12.399  21.484  0.00  0.00    +0.000 A 
ATOM     23  C   UNL     1       0.443  11.365  20.765  0.00  0.00    +0.000 A 
ENDBRANCH   4  18
TORSDOF 2
ENDMDL
MODEL 3
REMARK VINA RESULT:      -8.3      0.106      1.007
REMARK  Name = 
REMARK  3 active torsions:
REMARK  status: ('A' for Active; 'I' for Inactive)
REMARK    1  A    between atoms: C_1  and  C_2
REMARK    2  A    between atoms: C_5  and  C_6
REMARK    3  A    between atoms: C_9  and  C_10
REMARK                            x       y       z     vdW  Elec       q    Type
REMARK                         _______ _______ _______ _____ _____    ______ ____
ROOT
ATOM      1  C   UNL     1       2.307   6.872  18.899  0.00  0.00    +0.000 A 
ATOM      2  C   UNL     1       2.020   8.097  18.292  0.00  0.00    +0.000 A 
ATOM      3  C   UNL     1       1.409   9.124  19.024  0.00  0.00    +0.000 A 
ATOM      4  C   UNL     1       1.056   8.959  20.377  0.00  0.00    +0.000 A 
ATOM      5  C   UNL     1       1.341   7.708  20.957  0.00  0.00    +0.000 A 
ATOM      6  C   UNL     1       1.965   6.684  20.238  0.00  0.00    +0.000 A 
ENDROOT
BRANCH   1  11
ATOM      7  C   UNL     1       7.493   7.503  17.365  0.00  0.00    +0.000 C 
ATOM      8  C   UNL     1       6.319   6.597  17.347  0.00  0.00    +0.000 A 
ATOM      9  N   UNL     1       5.175   6.968  17.934  0.00  0.00    +0.000 NA
ATOM     10  N   UNL     1       4.324   5.924  17.737  0.00  0.00    +0.000 N 
ATOM     11  C   UNL     1       2.987   5.802  18.155  0.00  0.00    +0.000 A 
ATOM     12  C   UNL     1       2.296   4.688  17.858  0.00  0.00    +0.000 A 
ATOM     13  C   UNL     1       3.037   3.657  17.090  0.00  0.00    +0.000 A 
ATOM     14  N   UNL     1       4.268   3.734  16.691  0.00  0.00    +0.000 NA
ATOM     15  C   UNL     1       4.935   4.888  17.016  0.00  0.00    +0.000 A 
ATOM     16  C   UNL     1       6.219   5.316  16.765  0.00  0.00    +0.000 A 
ATOM     17 CL   UNL     1       7.446   4.493  15.931  0.00  0.00    +0.000 Cl
ENDBRANCH   1  11
BRANCH   4  18
ATOM     18  C   UNL     1       0.412  10.041  21.163  0.00  0.00    +0.000 A 
ATOM     19  C   UNL     1       0.527  11.396  20.800  0.00  0.00    +0.000 A 
ATOM     20  C   UNL     1      -0.102  12.408  21.534  0.00  0.00    +0.000 A 
ATOM     21  C   UNL     1      -0.870  12.090  22.649  0.00  0.00    +0.000 A 
ATOM     22  C   UNL     1      -0.999  10.762  23.037  0.00  0.00    +0.000 A 
ATOM     23  C   UNL     1      -0.358   9.755  22.309  0.00  0.00    +0.000 A 
ENDBRANCH   4  18
TORSDOF 2
ENDMDL
MODEL 4
REMARK VINA RESULT:      -8.2      0.265      1.438
REMARK  Name = 
REMARK  3 active torsions:
REMARK  status: ('A' for Active; 'I' for Inactive)
REMARK    1  A    between atoms: C_1  and  C_2
REMARK    2  A    between atoms: C_5  and  C_6
REMARK    3  A    between atoms: C_9  and  C_10
REMARK                            x       y       z     vdW  Elec       q    Type
REMARK                         _______ _______ _______ _____ _____    ______ ____
ROOT
ATOM      1  C   UNL     1       2.294   6.988  18.845  0.00  0.00    +0.000 A 
ATOM      2  C   UNL     1       1.965   8.170  18.176  0.00  0.00    +0.000 A 
ATOM      3  C   UNL     1       1.366   9.232  18.868  0.00  0.00    +0.000 A 
ATOM      4  C   UNL     1       1.067   9.145  20.240  0.00  0.00    +0.000 A 
ATOM      5  C   UNL     1       1.393   7.935  20.884  0.00  0.00    +0.000 A 
ATOM      6  C   UNL     1       2.005   6.878  20.205  0.00  0.00    +0.000 A 
ENDROOT
BRANCH   1  11
ATOM      7  C   UNL     1       7.502   7.486  17.334  0.00  0.00    +0.000 C 
ATOM      8  C   UNL     1       6.313   6.598  17.336  0.00  0.00    +0.000 A 
ATOM      9  N   UNL     1       5.171   7.007  17.901  0.00  0.00    +0.000 NA
ATOM     10  N   UNL     1       4.304   5.971  17.731  0.00  0.00    +0.000 N 
ATOM     11  C   UNL     1       2.962   5.884  18.141  0.00  0.00    +0.000 A 
ATOM     12  C   UNL     1       2.255   4.771  17.875  0.00  0.00    +0.000 A 
ATOM     13  C   UNL     1       2.986   3.704  17.147  0.00  0.00    +0.000 A 
ATOM     14  N   UNL     1       4.221   3.749  16.756  0.00  0.00    +0.000 NA
ATOM     15  C   UNL     1       4.904   4.902  17.049  0.00  0.00    +0.000 A 
ATOM     16  C   UNL     1       6.197   5.301  16.795  0.00  0.00    +0.000 A 
ATOM     17 CL   UNL     1       7.416   4.432  15.998  0.00  0.00    +0.000 Cl
ENDBRANCH   1  11
BRANCH   4  18
ATOM     18  C   UNL     1       0.436  10.265  20.984  0.00  0.00    +0.000 A 
ATOM     19  C   UNL     1      -0.357  10.048  22.126  0.00  0.00    +0.000 A 
ATOM     20  C   UNL     1      -0.930  11.112  22.833  0.00  0.00    +0.000 A 
ATOM     21  C   UNL     1      -0.717  12.423  22.420  0.00  0.00    +0.000 A 
ATOM     22  C   UNL     1       0.057  12.669  21.293  0.00  0.00    +0.000 A 
ATOM     23  C   UNL     1       0.616  11.603  20.581  0.00  0.00    +0.000 A 
ENDBRANCH   4  18
TORSDOF 2
ENDMDL
MODEL 5
REMARK VINA RESULT:      -8.1      1.989      3.251
REMARK  Name = 
REMARK  3 active torsions:
REMARK  status: ('A' for Active; 'I' for Inactive)
REMARK    1  A    between atoms: C_1  and  C_2
REMARK    2  A    between atoms: C_5  and  C_6
REMARK    3  A    between atoms: C_9  and  C_10
REMARK                            x       y       z     vdW  Elec       q    Type
REMARK                         _______ _______ _______ _____ _____    ______ ____
ROOT
ATOM      1  C   UNL     1       2.572   7.465  18.622  0.00  0.00    +0.000 A 
ATOM      2  C   UNL     1       2.092   7.621  19.925  0.00  0.00    +0.000 A 
ATOM      3  C   UNL     1       1.215   8.670  20.236  0.00  0.00    +0.000 A 
ATOM      4  C   UNL     1       0.801   9.600  19.265  0.00  0.00    +0.000 A 
ATOM      5  C   UNL     1       1.315   9.430  17.965  0.00  0.00    +0.000 A 
ATOM      6  C   UNL     1       2.176   8.376  17.643  0.00  0.00    +0.000 A 
ENDROOT
BRANCH   1  11
ATOM      7  C   UNL     1       0.750   2.348  19.000  0.00  0.00    +0.000 C 
ATOM      8  C   UNL     1       1.909   3.206  18.655  0.00  0.00    +0.000 A 
ATOM      9  N   UNL     1       1.809   4.538  18.742  0.00  0.00    +0.000 NA
ATOM     10  N   UNL     1       3.028   5.008  18.358  0.00  0.00    +0.000 N 
ATOM     11  C   UNL     1       3.456   6.345  18.273  0.00  0.00    +0.000 A 
ATOM     12  C   UNL     1       4.711   6.617  17.876  0.00  0.00    +0.000 A 
ATOM     13  C   UNL     1       5.555   5.439  17.556  0.00  0.00    +0.000 A 
ATOM     14  N   UNL     1       5.193   4.195  17.621  0.00  0.00    +0.000 NA
ATOM     15  C   UNL     1       3.904   3.964  18.030  0.00  0.00    +0.000 A 
ATOM     16  C   UNL     1       3.188   2.804  18.217  0.00  0.00    +0.000 A 
ATOM     17 CL   UNL     1       3.712   1.207  17.979  0.00  0.00    +0.000 Cl
ENDBRANCH   1  11
BRANCH   4  18
ATOM     18  C   UNL     1      -0.130  10.713  19.583  0.00  0.00    +0.000 A 
ATOM     19  C   UNL     1      -1.210  11.044  18.744  0.00  0.00    +0.000 A 
ATOM     20  C   UNL     1      -2.095  12.080  19.062  0.00  0.00    +0.000 A 
ATOM     21  C   UNL     1      -1.928  12.808  20.236  0.00  0.00    +0.000 A 
ATOM     22  C   UNL     1      -0.868  12.508  21.083  0.00  0.00    +0.000 A 
ATOM     23  C   UNL     1       0.022  11.481  20.754  0.00  0.00    +0.000 A 
ENDBRANCH   4  18
TORSDOF 2
ENDMDL
MODEL 6
REMARK VINA RESULT:      -8.0      1.875      3.132
REMARK  Name = 
REMARK  3 active torsions:
REMARK  status: ('A' for Active; 'I' for Inactive)
REMARK    1  A    between atoms: C_1  and  C_2
REMARK    2  A    between atoms: C_5  and  C_6
REMARK    3  A    between atoms: C_9  and  C_10
REMARK                            x       y       z     vdW  Elec       q    Type
REMARK                         _______ _______ _______ _____ _____    ______ ____
ROOT
ATOM      1  C   UNL     1       2.293   7.672  18.698  0.00  0.00    +0.000 A 
ATOM      2  C   UNL     1       1.968   7.690  20.057  0.00  0.00    +0.000 A 
ATOM      3  C   UNL     1       1.145   8.699  20.576  0.00  0.00    +0.000 A 
ATOM      4  C   UNL     1       0.631   9.725  19.761  0.00  0.00    +0.000 A 
ATOM      5  C   UNL     1       0.990   9.693  18.399  0.00  0.00    +0.000 A 
ATOM      6  C   UNL     1       1.797   8.680  17.871  0.00  0.00    +0.000 A 
ENDROOT
BRANCH   1  11
ATOM      7  C   UNL     1       1.025   2.471  19.693  0.00  0.00    +0.000 C 
ATOM      8  C   UNL     1       1.974   3.385  19.011  0.00  0.00    +0.000 A 
ATOM      9  N   UNL     1       1.807   4.710  19.095  0.00  0.00    +0.000 NA
ATOM     10  N   UNL     1       2.829   5.240  18.367  0.00  0.00    +0.000 N 
ATOM     11  C   UNL     1       3.118   6.596  18.134  0.00  0.00    +0.000 A 
ATOM     12  C   UNL     1       4.186   6.929  17.388  0.00  0.00    +0.000 A 
ATOM     13  C   UNL     1       4.985   5.794  16.864  0.00  0.00    +0.000 A 
ATOM     14  N   UNL     1       4.747   4.534  17.057  0.00  0.00    +0.000 NA
ATOM     15  C   UNL     1       3.648   4.239  17.823  0.00  0.00    +0.000 A 
ATOM     16  C   UNL     1       3.100   3.045  18.233  0.00  0.00    +0.000 A 
ATOM     17 CL   UNL     1       3.647   1.476  17.889  0.00  0.00    +0.000 Cl
ENDBRANCH   1  11
BRANCH   4  18
ATOM     18  C   UNL     1      -0.245  10.797  20.299  0.00  0.00    +0.000 A 
ATOM     19  C   UNL     1      -0.095  11.295  21.607  0.00  0.00    +0.000 A 
ATOM     20  C   UNL     1      -0.912  12.321  22.099  0.00  0.00    +0.000 A 
ATOM     21  C   UNL     1      -1.894  12.882  21.290  0.00  0.00    +0.000 A 
ATOM     22  C   UNL     1      -2.070  12.408  19.995  0.00  0.00    +0.000 A 
ATOM     23  C   UNL     1      -1.262  11.374  19.513  0.00  0.00    +0.000 A 
ENDBRANCH   4  18
TORSDOF 2
ENDMDL
MODEL 7
REMARK VINA RESULT:      -8.0      1.959      3.401
REMARK  Name = 
REMARK  3 active torsions:
REMARK  status: ('A' for Active; 'I' for Inactive)
REMARK    1  A    between atoms: C_1  and  C_2
REMARK    2  A    between atoms: C_5  and  C_6
REMARK    3  A    between atoms: C_9  and  C_10
REMARK                            x       y       z     vdW  Elec       q    Type
REMARK                         _______ _______ _______ _____ _____    ______ ____
ROOT
ATOM      1  C   UNL     1       2.539   7.478  18.624  0.00  0.00    +0.000 A 
ATOM      2  C   UNL     1       2.194   8.438  17.670  0.00  0.00    +0.000 A 
ATOM      3  C   UNL     1       1.382   9.526  18.020  0.00  0.00    +0.000 A 
ATOM      4  C   UNL     1       0.879   9.683  19.325  0.00  0.00    +0.000 A 
ATOM      5  C   UNL     1       1.227   8.690  20.262  0.00  0.00    +0.000 A 
ATOM      6  C   UNL     1       2.051   7.612  19.924  0.00  0.00    +0.000 A 
ENDROOT
BRANCH   1  11
ATOM      7  C   UNL     1       0.741   2.358  19.068  0.00  0.00    +0.000 C 
ATOM      8  C   UNL     1       1.895   3.217  18.707  0.00  0.00    +0.000 A 
ATOM      9  N   UNL     1       1.790   4.549  18.780  0.00  0.00    +0.000 NA
ATOM     10  N   UNL     1       3.004   5.020  18.384  0.00  0.00    +0.000 N 
ATOM     11  C   UNL     1       3.426   6.358  18.281  0.00  0.00    +0.000 A 
ATOM     12  C   UNL     1       4.678   6.631  17.874  0.00  0.00    +0.000 A 
ATOM     13  C   UNL     1       5.524   5.453  17.562  0.00  0.00    +0.000 A 
ATOM     14  N   UNL     1       5.168   4.209  17.643  0.00  0.00    +0.000 NA
ATOM     15  C   UNL     1       3.883   3.976  18.062  0.00  0.00    +0.000 A 
ATOM     16  C   UNL     1       3.173   2.815  18.266  0.00  0.00    +0.000 A 
ATOM     17 CL   UNL     1       3.702   1.219  18.042  0.00  0.00    +0.000 Cl
ENDBRANCH   1  11
BRANCH   4  18
ATOM     18  C   UNL     1       0.020  10.832  19.707  0.00  0.00    +0.000 A 
ATOM     19  C   UNL     1      -1.311  10.947  19.267  0.00  0.00    +0.000 A 
ATOM     20  C   UNL     1      -2.121  12.023  19.651  0.00  0.00    +0.000 A 
ATOM     21  C   UNL     1      -1.620  13.010  20.494  0.00  0.00    +0.000 A 
ATOM     22  C   UNL     1      -0.307  12.927  20.941  0.00  0.00    +0.000 A 
ATOM     23  C   UNL     1       0.502  11.859  20.544  0.00  0.00    +0.000 A 
ENDBRANCH   4  18
TORSDOF 2
ENDMDL
MODEL 8
REMARK VINA RESULT:      -8.0      1.933      3.384
REMARK  Name = 
REMARK  3 active torsions:
REMARK  status: ('A' for Active; 'I' for Inactive)
REMARK    1  A    between atoms: C_1  and  C_2
REMARK    2  A    between atoms: C_5  and  C_6
REMARK    3  A    between atoms: C_9  and  C_10
REMARK                            x       y       z     vdW  Elec       q    Type
REMARK                         _______ _______ _______ _____ _____    ______ ____
ROOT
ATOM      1  C   UNL     1       2.479   7.538  18.617  0.00  0.00    +0.000 A 
ATOM      2  C   UNL     1       2.076   8.473  17.661  0.00  0.00    +0.000 A 
ATOM      3  C   UNL     1       1.258   9.551  18.026  0.00  0.00    +0.000 A 
ATOM      4  C   UNL     1       0.809   9.724  19.348  0.00  0.00    +0.000 A 
ATOM      5  C   UNL     1       1.215   8.756  20.287  0.00  0.00    +0.000 A 
ATOM      6  C   UNL     1       2.044   7.687  19.934  0.00  0.00    +0.000 A 
ENDROOT
BRANCH   1  11
ATOM      7  C   UNL     1       0.715   2.400  18.998  0.00  0.00    +0.000 C 
ATOM      8  C   UNL     1       1.862   3.272  18.645  0.00  0.00    +0.000 A 
ATOM      9  N   UNL     1       1.749   4.602  18.736  0.00  0.00    +0.000 NA
ATOM     10  N   UNL     1       2.959   5.086  18.343  0.00  0.00    +0.000 N 
ATOM     11  C   UNL     1       3.372   6.427  18.257  0.00  0.00    +0.000 A 
ATOM     12  C   UNL     1       4.621   6.714  17.850  0.00  0.00    +0.000 A 
ATOM     13  C   UNL     1       5.474   5.546  17.520  0.00  0.00    +0.000 A 
ATOM     14  N   UNL     1       5.127   4.298  17.585  0.00  0.00    +0.000 NA
ATOM     15  C   UNL     1       3.844   4.052  18.005  0.00  0.00    +0.000 A 
ATOM     16  C   UNL     1       3.141   2.884  18.195  0.00  0.00    +0.000 A 
ATOM     17 CL   UNL     1       3.680   1.294  17.948  0.00  0.00    +0.000 Cl
ENDBRANCH   1  11
BRANCH   4  18
ATOM     18  C   UNL     1      -0.055  10.865  19.746  0.00  0.00    +0.000 A 
ATOM     19  C   UNL     1       0.351  11.805  20.711  0.00  0.00    +0.000 A 
ATOM     20  C   UNL     1      -0.461  12.890  21.064  0.00  0.00    +0.000 A 
ATOM     21  C   UNL     1      -1.698  13.067  20.454  0.00  0.00    +0.000 A 
ATOM     22  C   UNL     1      -2.129  12.151  19.501  0.00  0.00    +0.000 A 
ATOM     23  C   UNL     1      -1.322  11.062  19.161  0.00  0.00    +0.000 A 
ENDBRANCH   4  18
TORSDOF 2
ENDMDL
MODEL 9
REMARK VINA RESULT:      -7.9      2.307      3.241
REMARK  Name = 
REMARK  3 active torsions:
REMARK  status: ('A' for Active; 'I' for Inactive)
REMARK    1  A    between atoms: C_1  and  C_2
REMARK    2  A    between atoms: C_5  and  C_6
REMARK    3  A    between atoms: C_9  and  C_10
REMARK                            x       y       z     vdW  Elec       q    Type
REMARK                         _______ _______ _______ _____ _____    ______ ____
ROOT
ATOM      1  C   UNL     1       2.411   7.568  18.813  0.00  0.00    +0.000 A 
ATOM      2  C   UNL     1       1.951   7.778  20.115  0.00  0.00    +0.000 A 
ATOM      3  C   UNL     1       1.036   8.803  20.388  0.00  0.00    +0.000 A 
ATOM      4  C   UNL     1       0.560   9.657  19.375  0.00  0.00    +0.000 A 
ATOM      5  C   UNL     1       1.054   9.435  18.075  0.00  0.00    +0.000 A 
ATOM      6  C   UNL     1       1.954   8.403  17.793  0.00  0.00    +0.000 A 
ENDROOT
BRANCH   1  11
ATOM      7  C   UNL     1       2.019   2.856  21.514  0.00  0.00    +0.000 C 
ATOM      8  C   UNL     1       2.759   3.603  20.468  0.00  0.00    +0.000 A 
ATOM      9  N   UNL     1       2.406   4.857  20.161  0.00  0.00    +0.000 NA
ATOM     10  N   UNL     1       3.272   5.236  19.181  0.00  0.00    +0.000 N 
ATOM     11  C   UNL     1       3.336   6.468  18.507  0.00  0.00    +0.000 A 
ATOM     12  C   UNL     1       4.275   6.663  17.564  0.00  0.00    +0.000 A 
ATOM     13  C   UNL     1       5.187   5.518  17.318  0.00  0.00    +0.000 A 
ATOM     14  N   UNL     1       5.156   4.369  17.919  0.00  0.00    +0.000 NA
ATOM     15  C   UNL     1       4.182   4.215  18.872  0.00  0.00    +0.000 A 
ATOM     16  C   UNL     1       3.854   3.162  19.696  0.00  0.00    +0.000 A 
ATOM     17 CL   UNL     1       4.596   1.639  19.785  0.00  0.00    +0.000 Cl
ENDBRANCH   1  11
BRANCH   4  18
ATOM     18  C   UNL     1      -0.412  10.745  19.651  0.00  0.00    +0.000 A 
ATOM     19  C   UNL     1      -1.344  11.174  18.688  0.00  0.00    +0.000 A 
ATOM     20  C   UNL     1      -2.272  12.186  18.964  0.00  0.00    +0.000 A 
ATOM     21  C   UNL     1      -2.297  12.789  20.217  0.00  0.00    +0.000 A 
ATOM     22  C   UNL     1      -1.386  12.391  21.188  0.00  0.00    +0.000 A 
ATOM     23  C   UNL     1      -0.452  11.390  20.904  0.00  0.00    +0.000 A 
ENDBRANCH   4  18
TORSDOF 2
ENDMDL
