MODEL 1
REMARK VINA RESULT:      -9.0      0.000      0.000
REMARK  Name = 
REMARK  9 active torsions:
REMARK  status: ('A' for Active; 'I' for Inactive)
REMARK    1  A    between atoms: C_1  and  O_2
REMARK    2  A    between atoms: O_2  and  C_3
REMARK    3  A    between atoms: C_6  and  O_7
REMARK    4  A    between atoms: O_7  and  C_8
REMARK    5  A    between atoms: C_9  and  N_10
REMARK    6  A    between atoms: C_12  and  C_13
REMARK    7  A    between atoms: C_18  and  S_19
REMARK    8  A    between atoms: S_19  and  C_20
REMARK    9  A    between atoms: C_23  and  C_24
REMARK                            x       y       z     vdW  Elec       q    Type
REMARK                         _______ _______ _______ _____ _____    ______ ____
ROOT
ATOM      1  C   UNL     1       3.159   5.372  19.462  0.00  0.00    +0.000 A 
ATOM      2  C   UNL     1       2.463   4.435  20.273  0.00  0.00    +0.000 A 
ATOM      3  C   UNL     1       2.939   3.137  20.505  0.00  0.00    +0.000 A 
ATOM      4  C   UNL     1       4.127   2.730  19.924  0.00  0.00    +0.000 A 
ATOM      5  C   UNL     1       4.843   3.632  19.145  0.00  0.00    +0.000 A 
ATOM      6  C   UNL     1       4.380   4.948  18.907  0.00  0.00    +0.000 A 
ENDROOT
BRANCH   1   9
ATOM      7  N   UNL     1       1.472   8.637  19.489  0.00  0.00    +0.000 N 
ATOM      8  C   UNL     1       1.975   7.584  20.225  0.00  0.00    +0.000 A 
ATOM      9  C   UNL     1       2.553   6.710  19.313  0.00  0.00    +0.000 A 
ATOM     10  N   UNL     1       2.496   7.293  18.082  0.00  0.00    +0.000 NA
ATOM     11  N   UNL     1       1.885   8.455  18.198  0.00  0.00    +0.000 NA
BRANCH   7  16
ATOM     12  C   UNL     1      -0.899  11.372  18.608  0.00  0.00    +0.000 A 
ATOM     13  C   UNL     1      -1.174  11.982  19.809  0.00  0.00    +0.000 A 
ATOM     14  C   UNL     1      -0.583  11.490  20.967  0.00  0.00    +0.000 A 
ATOM     15  C   UNL     1       0.307  10.379  21.006  0.00  0.00    +0.000 A 
ATOM     16  C   UNL     1       0.623   9.767  19.787  0.00  0.00    +0.000 A 
ATOM     17  C   UNL     1      -0.012  10.297  18.608  0.00  0.00    +0.000 A 
BRANCH  12  19
ATOM     18  C   UNL     1      -2.676  11.201  17.036  0.00  0.00    +0.000 C 
ATOM     19  O   UNL     1      -1.539  11.903  17.526  0.00  0.00    +0.000 OA
ENDBRANCH  12  19
BRANCH  15  20
ATOM     20  O   UNL     1       0.584  10.251  22.319  0.00  0.00    +0.000 OA
ATOM     21  C   UNL     1       0.008   9.568  23.389  0.00  0.00    +0.000 C 
ENDBRANCH  15  20
ENDBRANCH   7  16
ENDBRANCH   1   9
BRANCH   6  22
ATOM     22  S   UNL     1       5.513   5.997  18.023  0.00  0.00    +0.000 S 
BRANCH  22  23
ATOM     23  C   UNL     1       5.926   5.092  16.545  0.00  0.00    +0.000 A 
ATOM     24  C   UNL     1       4.912   4.290  16.012  0.00  0.00    +0.000 A 
ATOM     25  C   UNL     1       5.022   3.748  14.732  0.00  0.00    +0.000 A 
ATOM     26  C   UNL     1       6.150   4.021  13.951  0.00  0.00    +0.000 A 
ATOM     27  C   UNL     1       7.217   4.726  14.528  0.00  0.00    +0.000 A 
ATOM     28  C   UNL     1       7.109   5.250  15.819  0.00  0.00    +0.000 A 
BRANCH  26  29
ATOM     29  C   UNL     1       6.194   3.646  12.492  0.00  0.00    +0.000 C 
ATOM     30  F   UNL     1       5.002   3.812  11.853  0.00  0.00    +0.000 F 
ATOM     31  F   UNL     1       7.091   4.404  11.800  0.00  0.00    +0.000 F 
ATOM     32  F   UNL     1       6.557   2.353  12.290  0.00  0.00    +0.000 F 
ENDBRANCH  26  29
ENDBRANCH  22  23
ENDBRANCH   6  22
TORSDOF 7
ENDMDL
MODEL 2
REMARK VINA RESULT:      -8.8      0.695      1.168
REMARK  Name = 
REMARK  9 active torsions:
REMARK  status: ('A' for Active; 'I' for Inactive)
REMARK    1  A    between atoms: C_1  and  O_2
REMARK    2  A    between atoms: O_2  and  C_3
REMARK    3  A    between atoms: C_6  and  O_7
REMARK    4  A    between atoms: O_7  and  C_8
REMARK    5  A    between atoms: C_9  and  N_10
REMARK    6  A    between atoms: C_12  and  C_13
REMARK    7  A    between atoms: C_18  and  S_19
REMARK    8  A    between atoms: S_19  and  C_20
REMARK    9  A    between atoms: C_23  and  C_24
REMARK                            x       y       z     vdW  Elec       q    Type
REMARK                         _______ _______ _______ _____ _____    ______ ____
ROOT
ATOM      1  C   UNL     1       2.855   5.216  19.630  0.00  0.00    +0.000 A 
ATOM      2  C   UNL     1       1.911   4.251  20.074  0.00  0.00    +0.000 A 
ATOM      3  C   UNL     1       2.233   2.896  20.231  0.00  0.00    +0.000 A 
ATOM      4  C   UNL     1       3.513   2.459  19.940  0.00  0.00    +0.000 A 
ATOM      5  C   UNL     1       4.466   3.384  19.526  0.00  0.00    +0.000 A 
ATOM      6  C   UNL     1       4.158   4.757  19.369  0.00  0.00    +0.000 A 
ENDROOT
BRANCH   1   9
ATOM      7  N   UNL     1       1.446   8.609  19.721  0.00  0.00    +0.000 N 
ATOM      8  C   UNL     1       1.743   7.457  20.418  0.00  0.00    +0.000 A 
ATOM      9  C   UNL     1       2.386   6.612  19.522  0.00  0.00    +0.000 A 
ATOM     10  N   UNL     1       2.568   7.298  18.359  0.00  0.00    +0.000 NA
ATOM     11  N   UNL     1       2.039   8.498  18.494  0.00  0.00    +0.000 NA
BRANCH   7  16
ATOM     12  C   UNL     1      -0.790  11.439  18.788  0.00  0.00    +0.000 A 
ATOM     13  C   UNL     1      -1.037  12.083  19.978  0.00  0.00    +0.000 A 
ATOM     14  C   UNL     1      -0.470  11.584  21.145  0.00  0.00    +0.000 A 
ATOM     15  C   UNL     1       0.365  10.432  21.205  0.00  0.00    +0.000 A 
ATOM     16  C   UNL     1       0.651   9.784  19.998  0.00  0.00    +0.000 A 
ATOM     17  C   UNL     1       0.044  10.322  18.808  0.00  0.00    +0.000 A 
BRANCH  12  19
ATOM     18  C   UNL     1      -2.204  11.111  16.903  0.00  0.00    +0.000 C 
ATOM     19  O   UNL     1      -1.403  11.981  17.696  0.00  0.00    +0.000 OA
ENDBRANCH  12  19
BRANCH  15  20
ATOM     20  O   UNL     1       0.635  10.315  22.521  0.00  0.00    +0.000 OA
ATOM     21  C   UNL     1       0.171   9.506  23.556  0.00  0.00    +0.000 C 
ENDBRANCH  15  20
ENDBRANCH   7  16
ENDBRANCH   1   9
BRANCH   6  22
ATOM     22  S   UNL     1       5.547   5.802  18.990  0.00  0.00    +0.000 S 
BRANCH  22  23
ATOM     23  C   UNL     1       5.836   5.575  17.246  0.00  0.00    +0.000 A 
ATOM     24  C   UNL     1       6.919   4.759  16.904  0.00  0.00    +0.000 A 
ATOM     25  C   UNL     1       7.086   4.295  15.600  0.00  0.00    +0.000 A 
ATOM     26  C   UNL     1       6.150   4.626  14.615  0.00  0.00    +0.000 A 
ATOM     27  C   UNL     1       5.131   5.538  14.929  0.00  0.00    +0.000 A 
ATOM     28  C   UNL     1       4.980   6.015  16.234  0.00  0.00    +0.000 A 
BRANCH  26  29
ATOM     29  C   UNL     1       6.175   3.958  13.264  0.00  0.00    +0.000 C 
ATOM     30  F   UNL     1       7.067   4.516  12.398  0.00  0.00    +0.000 F 
ATOM     31  F   UNL     1       6.523   2.644  13.354  0.00  0.00    +0.000 F 
ATOM     32  F   UNL     1       4.970   3.987  12.638  0.00  0.00    +0.000 F 
ENDBRANCH  26  29
ENDBRANCH  22  23
ENDBRANCH   6  22
TORSDOF 7
ENDMDL
MODEL 3
REMARK VINA RESULT:      -8.7      1.467      1.842
REMARK  Name = 
REMARK  9 active torsions:
REMARK  status: ('A' for Active; 'I' for Inactive)
REMARK    1  A    between atoms: C_1  and  O_2
REMARK    2  A    between atoms: O_2  and  C_3
REMARK    3  A    between atoms: C_6  and  O_7
REMARK    4  A    between atoms: O_7  and  C_8
REMARK    5  A    between atoms: C_9  and  N_10
REMARK    6  A    between atoms: C_12  and  C_13
REMARK    7  A    between atoms: C_18  and  S_19
REMARK    8  A    between atoms: S_19  and  C_20
REMARK    9  A    between atoms: C_23  and  C_24
REMARK                            x       y       z     vdW  Elec       q    Type
REMARK                         _______ _______ _______ _____ _____    ______ ____
ROOT
ATOM      1  C   UNL     1       2.351   5.173  19.844  0.00  0.00    +0.000 A 
ATOM      2  C   UNL     1       1.228   4.427  20.292  0.00  0.00    +0.000 A 
ATOM      3  C   UNL     1       1.295   3.055  20.571  0.00  0.00    +0.000 A 
ATOM      4  C   UNL     1       2.490   2.380  20.399  0.00  0.00    +0.000 A 
ATOM      5  C   UNL     1       3.613   3.087  19.984  0.00  0.00    +0.000 A 
ATOM      6  C   UNL     1       3.564   4.474  19.706  0.00  0.00    +0.000 A 
ENDROOT
BRANCH   1   9
ATOM      7  N   UNL     1       1.623   8.769  19.626  0.00  0.00    +0.000 N 
ATOM      8  C   UNL     1       1.768   7.660  20.435  0.00  0.00    +0.000 A 
ATOM      9  C   UNL     1       2.145   6.615  19.602  0.00  0.00    +0.000 A 
ATOM     10  N   UNL     1       2.333   7.124  18.351  0.00  0.00    +0.000 NA
ATOM     11  N   UNL     1       2.056   8.413  18.379  0.00  0.00    +0.000 NA
BRANCH   7  16
ATOM     12  C   UNL     1       1.265  12.383  18.795  0.00  0.00    +0.000 A 
ATOM     13  C   UNL     1       0.373  12.858  19.726  0.00  0.00    +0.000 A 
ATOM     14  C   UNL     1      -0.155  11.979  20.665  0.00  0.00    +0.000 A 
ATOM     15  C   UNL     1       0.165  10.594  20.739  0.00  0.00    +0.000 A 
ATOM     16  C   UNL     1       1.097  10.101  19.818  0.00  0.00    +0.000 A 
ATOM     17  C   UNL     1       1.619  11.036  18.855  0.00  0.00    +0.000 A 
BRANCH  12  19
ATOM     18  C   UNL     1       2.342  14.471  18.424  0.00  0.00    +0.000 C 
ATOM     19  O   UNL     1       1.716  13.306  17.897  0.00  0.00    +0.000 OA
ENDBRANCH  12  19
BRANCH  15  20
ATOM     20  O   UNL     1      -0.602  10.154  21.757  0.00  0.00    +0.000 OA
ATOM     21  C   UNL     1      -0.361   9.729  23.062  0.00  0.00    +0.000 C 
ENDBRANCH  15  20
ENDBRANCH   7  16
ENDBRANCH   1   9
BRANCH   6  22
ATOM     22  S   UNL     1       5.135   5.227  19.345  0.00  0.00    +0.000 S 
BRANCH  22  23
ATOM     23  C   UNL     1       5.594   4.597  17.743  0.00  0.00    +0.000 A 
ATOM     24  C   UNL     1       4.543   4.159  16.931  0.00  0.00    +0.000 A 
ATOM     25  C   UNL     1       4.743   3.896  15.576  0.00  0.00    +0.000 A 
ATOM     26  C   UNL     1       6.004   4.091  15.004  0.00  0.00    +0.000 A 
ATOM     27  C   UNL     1       7.083   4.416  15.840  0.00  0.00    +0.000 A 
ATOM     28  C   UNL     1       6.881   4.660  17.201  0.00  0.00    +0.000 A 
BRANCH  26  29
ATOM     29  C   UNL     1       6.196   4.040  13.510  0.00  0.00    +0.000 C 
ATOM     30  F   UNL     1       7.089   4.960  13.046  0.00  0.00    +0.000 F 
ATOM     31  F   UNL     1       6.669   2.830  13.100  0.00  0.00    +0.000 F 
ATOM     32  F   UNL     1       5.044   4.249  12.822  0.00  0.00    +0.000 F 
ENDBRANCH  26  29
ENDBRANCH  22  23
ENDBRANCH   6  22
TORSDOF 7
ENDMDL
MODEL 4
REMARK VINA RESULT:      -8.7      1.666      2.481
REMARK  Name = 
REMARK  9 active torsions:
REMARK  status: ('A' for Active; 'I' for Inactive)
REMARK    1  A    between atoms: C_1  and  O_2
REMARK    2  A    between atoms: O_2  and  C_3
REMARK    3  A    between atoms: C_6  and  O_7
REMARK    4  A    between atoms: O_7  and  C_8
REMARK    5  A    between atoms: C_9  and  N_10
REMARK    6  A    between atoms: C_12  and  C_13
REMARK    7  A    between atoms: C_18  and  S_19
REMARK    8  A    between atoms: S_19  and  C_20
REMARK    9  A    between atoms: C_23  and  C_24
REMARK                            x       y       z     vdW  Elec       q    Type
REMARK                         _______ _______ _______ _____ _____    ______ ____
ROOT
ATOM      1  C   UNL     1       2.213   5.260  20.083  0.00  0.00    +0.000 A 
ATOM      2  C   UNL     1       1.145   4.443  20.546  0.00  0.00    +0.000 A 
ATOM      3  C   UNL     1       1.256   3.052  20.668  0.00  0.00    +0.000 A 
ATOM      4  C   UNL     1       2.441   2.428  20.322  0.00  0.00    +0.000 A 
ATOM      5  C   UNL     1       3.512   3.201  19.888  0.00  0.00    +0.000 A 
ATOM      6  C   UNL     1       3.418   4.609  19.766  0.00  0.00    +0.000 A 
ENDROOT
BRANCH   1   9
ATOM      7  N   UNL     1       1.374   8.831  20.296  0.00  0.00    +0.000 N 
ATOM      8  C   UNL     1       1.543   7.637  20.964  0.00  0.00    +0.000 A 
ATOM      9  C   UNL     1       1.964   6.714  20.016  0.00  0.00    +0.000 A 
ATOM     10  N   UNL     1       2.154   7.378  18.842  0.00  0.00    +0.000 NA
ATOM     11  N   UNL     1       1.837   8.645  19.022  0.00  0.00    +0.000 NA
BRANCH   7  16
ATOM     12  C   UNL     1      -0.833  11.099  22.262  0.00  0.00    +0.000 A 
ATOM     13  C   UNL     1      -0.599  12.344  21.731  0.00  0.00    +0.000 A 
ATOM     14  C   UNL     1       0.320  12.475  20.696  0.00  0.00    +0.000 A 
ATOM     15  C   UNL     1       1.054  11.394  20.132  0.00  0.00    +0.000 A 
ATOM     16  C   UNL     1       0.804  10.114  20.640  0.00  0.00    +0.000 A 
ATOM     17  C   UNL     1      -0.148  10.014  21.715  0.00  0.00    +0.000 A 
BRANCH  12  19
ATOM     18  C   UNL     1      -2.724  12.084  23.317  0.00  0.00    +0.000 C 
ATOM     19  O   UNL     1      -1.731  11.063  23.289  0.00  0.00    +0.000 OA
ENDBRANCH  12  19
BRANCH  15  20
ATOM     20  O   UNL     1       1.831  11.997  19.209  0.00  0.00    +0.000 OA
ATOM     21  C   UNL     1       1.659  13.043  18.305  0.00  0.00    +0.000 C 
ENDBRANCH  15  20
ENDBRANCH   7  16
ENDBRANCH   1   9
BRANCH   6  22
ATOM     22  S   UNL     1       4.940   5.433  19.351  0.00  0.00    +0.000 S 
BRANCH  22  23
ATOM     23  C   UNL     1       5.433   4.738  17.787  0.00  0.00    +0.000 A 
ATOM     24  C   UNL     1       4.395   4.327  16.943  0.00  0.00    +0.000 A 
ATOM     25  C   UNL     1       4.637   4.017  15.605  0.00  0.00    +0.000 A 
ATOM     26  C   UNL     1       5.928   4.138  15.081  0.00  0.00    +0.000 A 
ATOM     27  C   UNL     1       6.986   4.436  15.952  0.00  0.00    +0.000 A 
ATOM     28  C   UNL     1       6.741   4.726  17.297  0.00  0.00    +0.000 A 
BRANCH  26  29
ATOM     29  C   UNL     1       6.176   4.037  13.598  0.00  0.00    +0.000 C 
ATOM     30  F   UNL     1       5.070   4.291  12.844  0.00  0.00    +0.000 F 
ATOM     31  F   UNL     1       7.119   4.928  13.179  0.00  0.00    +0.000 F 
ATOM     32  F   UNL     1       6.621   2.810  13.219  0.00  0.00    +0.000 F 
ENDBRANCH  26  29
ENDBRANCH  22  23
ENDBRANCH   6  22
TORSDOF 7
ENDMDL
MODEL 5
REMARK VINA RESULT:      -8.7      1.461      1.881
REMARK  Name = 
REMARK  9 active torsions:
REMARK  status: ('A' for Active; 'I' for Inactive)
REMARK    1  A    between atoms: C_1  and  O_2
REMARK    2  A    between atoms: O_2  and  C_3
REMARK    3  A    between atoms: C_6  and  O_7
REMARK    4  A    between atoms: O_7  and  C_8
REMARK    5  A    between atoms: C_9  and  N_10
REMARK    6  A    between atoms: C_12  and  C_13
REMARK    7  A    between atoms: C_18  and  S_19
REMARK    8  A    between atoms: S_19  and  C_20
REMARK    9  A    between atoms: C_23  and  C_24
REMARK                            x       y       z     vdW  Elec       q    Type
REMARK                         _______ _______ _______ _____ _____    ______ ____
ROOT
ATOM      1  C   UNL     1       3.038   5.766  19.190  0.00  0.00    +0.000 A 
ATOM      2  C   UNL     1       2.138   4.989  19.969  0.00  0.00    +0.000 A 
ATOM      3  C   UNL     1       2.443   3.692  20.406  0.00  0.00    +0.000 A 
ATOM      4  C   UNL     1       3.659   3.125  20.069  0.00  0.00    +0.000 A 
ATOM      5  C   UNL     1       4.570   3.869  19.327  0.00  0.00    +0.000 A 
ATOM      6  C   UNL     1       4.280   5.182  18.885  0.00  0.00    +0.000 A 
ENDROOT
BRANCH   1   9
ATOM      7  N   UNL     1       1.655   9.116  18.581  0.00  0.00    +0.000 N 
ATOM      8  C   UNL     1       1.861   8.091  19.481  0.00  0.00    +0.000 A 
ATOM      9  C   UNL     1       2.596   7.122  18.810  0.00  0.00    +0.000 A 
ATOM     10  N   UNL     1       2.918   7.618  17.582  0.00  0.00    +0.000 NA
ATOM     11  N   UNL     1       2.386   8.819  17.464  0.00  0.00    +0.000 NA
BRANCH   7  16
ATOM     12  C   UNL     1      -1.565  10.980  18.399  0.00  0.00    +0.000 A 
ATOM     13  C   UNL     1      -1.200  12.300  18.521  0.00  0.00    +0.000 A 
ATOM     14  C   UNL     1       0.144  12.616  18.681  0.00  0.00    +0.000 A 
ATOM     15  C   UNL     1       1.196  11.657  18.729  0.00  0.00    +0.000 A 
ATOM     16  C   UNL     1       0.844  10.312  18.575  0.00  0.00    +0.000 A 
ATOM     17  C   UNL     1      -0.557  10.018  18.417  0.00  0.00    +0.000 A 
BRANCH  12  19
ATOM     18  C   UNL     1      -3.581  11.455  17.229  0.00  0.00    +0.000 C 
ATOM     19  O   UNL     1      -2.905  10.757  18.269  0.00  0.00    +0.000 OA
ENDBRANCH  12  19
BRANCH  15  20
ATOM     20  O   UNL     1       2.293  12.414  18.932  0.00  0.00    +0.000 OA
ATOM     21  C   UNL     1       2.823  13.562  18.347  0.00  0.00    +0.000 C 
ENDBRANCH  15  20
ENDBRANCH   7  16
ENDBRANCH   1   9
BRANCH   6  22
ATOM     22  S   UNL     1       5.632   6.026  18.092  0.00  0.00    +0.000 S 
BRANCH  22  23
ATOM     23  C   UNL     1       5.951   5.096  16.606  0.00  0.00    +0.000 A 
ATOM     24  C   UNL     1       4.888   4.326  16.123  0.00  0.00    +0.000 A 
ATOM     25  C   UNL     1       4.925   3.772  14.844  0.00  0.00    +0.000 A 
ATOM     26  C   UNL     1       6.027   4.000  14.014  0.00  0.00    +0.000 A 
ATOM     27  C   UNL     1       7.141   4.672  14.539  0.00  0.00    +0.000 A 
ATOM     28  C   UNL     1       7.107   5.209  15.829  0.00  0.00    +0.000 A 
BRANCH  26  29
ATOM     29  C   UNL     1       5.996   3.614  12.558  0.00  0.00    +0.000 C 
ATOM     30  F   UNL     1       6.936   4.254  11.806  0.00  0.00    +0.000 F 
ATOM     31  F   UNL     1       6.229   2.283  12.380  0.00  0.00    +0.000 F 
ATOM     32  F   UNL     1       4.800   3.870  11.968  0.00  0.00    +0.000 F 
ENDBRANCH  26  29
ENDBRANCH  22  23
ENDBRANCH   6  22
TORSDOF 7
ENDMDL
MODEL 6
REMARK VINA RESULT:      -8.6      1.510      2.263
REMARK  Name = 
REMARK  9 active torsions:
REMARK  status: ('A' for Active; 'I' for Inactive)
REMARK    1  A    between atoms: C_1  and  O_2
REMARK    2  A    between atoms: O_2  and  C_3
REMARK    3  A    between atoms: C_6  and  O_7
REMARK    4  A    between atoms: O_7  and  C_8
REMARK    5  A    between atoms: C_9  and  N_10
REMARK    6  A    between atoms: C_12  and  C_13
REMARK    7  A    between atoms: C_18  and  S_19
REMARK    8  A    between atoms: S_19  and  C_20
REMARK    9  A    between atoms: C_23  and  C_24
REMARK                            x       y       z     vdW  Elec       q    Type
REMARK                         _______ _______ _______ _____ _____    ______ ____
ROOT
ATOM      1  C   UNL     1       2.954   5.808  19.113  0.00  0.00    +0.000 A 
ATOM      2  C   UNL     1       2.019   5.040  19.859  0.00  0.00    +0.000 A 
ATOM      3  C   UNL     1       2.284   3.731  20.283  0.00  0.00    +0.000 A 
ATOM      4  C   UNL     1       3.495   3.142  19.967  0.00  0.00    +0.000 A 
ATOM      5  C   UNL     1       4.440   3.876  19.259  0.00  0.00    +0.000 A 
ATOM      6  C   UNL     1       4.191   5.201  18.829  0.00  0.00    +0.000 A 
ENDROOT
BRANCH   1   9
ATOM      7  N   UNL     1       1.688   9.211  18.543  0.00  0.00    +0.000 N 
ATOM      8  C   UNL     1       1.897   8.185  19.442  0.00  0.00    +0.000 A 
ATOM      9  C   UNL     1       2.552   7.180  18.743  0.00  0.00    +0.000 A 
ATOM     10  N   UNL     1       2.828   7.651  17.494  0.00  0.00    +0.000 NA
ATOM     11  N   UNL     1       2.344   8.873  17.392  0.00  0.00    +0.000 NA
BRANCH   7  16
ATOM     12  C   UNL     1       1.315  12.917  18.536  0.00  0.00    +0.000 A 
ATOM     13  C   UNL     1      -0.044  13.121  18.575  0.00  0.00    +0.000 A 
ATOM     14  C   UNL     1      -0.891  12.020  18.594  0.00  0.00    +0.000 A 
ATOM     15  C   UNL     1      -0.451  10.666  18.575  0.00  0.00    +0.000 A 
ATOM     16  C   UNL     1       0.931  10.441  18.567  0.00  0.00    +0.000 A 
ATOM     17  C   UNL     1       1.780  11.603  18.542  0.00  0.00    +0.000 A 
BRANCH  12  19
ATOM     18  C   UNL     1       3.098  14.181  19.476  0.00  0.00    +0.000 C 
ATOM     19  O   UNL     1       2.073  14.052  18.496  0.00  0.00    +0.000 OA
ENDBRANCH  12  19
BRANCH  15  20
ATOM     20  O   UNL     1      -1.603   9.967  18.564  0.00  0.00    +0.000 OA
ATOM     21  C   UNL     1      -2.690   9.867  17.697  0.00  0.00    +0.000 C 
ENDBRANCH  15  20
ENDBRANCH   7  16
ENDBRANCH   1   9
BRANCH   6  22
ATOM     22  S   UNL     1       5.580   6.026  18.082  0.00  0.00    +0.000 S 
BRANCH  22  23
ATOM     23  C   UNL     1       5.929   5.096  16.603  0.00  0.00    +0.000 A 
ATOM     24  C   UNL     1       4.839   4.450  16.011  0.00  0.00    +0.000 A 
ATOM     25  C   UNL     1       4.929   3.920  14.724  0.00  0.00    +0.000 A 
ATOM     26  C   UNL     1       6.116   4.049  13.997  0.00  0.00    +0.000 A 
ATOM     27  C   UNL     1       7.244   4.591  14.631  0.00  0.00    +0.000 A 
ATOM     28  C   UNL     1       7.153   5.104  15.928  0.00  0.00    +0.000 A 
BRANCH  26  29
ATOM     29  C   UNL     1       6.172   3.696  12.532  0.00  0.00    +0.000 C 
ATOM     30  F   UNL     1       4.960   3.763  11.912  0.00  0.00    +0.000 F 
ATOM     31  F   UNL     1       6.988   4.538  11.837  0.00  0.00    +0.000 F 
ATOM     32  F   UNL     1       6.644   2.442  12.308  0.00  0.00    +0.000 F 
ENDBRANCH  26  29
ENDBRANCH  22  23
ENDBRANCH   6  22
TORSDOF 7
ENDMDL
MODEL 7
REMARK VINA RESULT:      -8.5      1.566      2.115
REMARK  Name = 
REMARK  9 active torsions:
REMARK  status: ('A' for Active; 'I' for Inactive)
REMARK    1  A    between atoms: C_1  and  O_2
REMARK    2  A    between atoms: O_2  and  C_3
REMARK    3  A    between atoms: C_6  and  O_7
REMARK    4  A    between atoms: O_7  and  C_8
REMARK    5  A    between atoms: C_9  and  N_10
REMARK    6  A    between atoms: C_12  and  C_13
REMARK    7  A    between atoms: C_18  and  S_19
REMARK    8  A    between atoms: S_19  and  C_20
REMARK    9  A    between atoms: C_23  and  C_24
REMARK                            x       y       z     vdW  Elec       q    Type
REMARK                         _______ _______ _______ _____ _____    ______ ____
ROOT
ATOM      1  C   UNL     1       2.611   5.725  19.545  0.00  0.00    +0.000 A 
ATOM      2  C   UNL     1       1.541   5.020  20.161  0.00  0.00    +0.000 A 
ATOM      3  C   UNL     1       1.680   3.715  20.651  0.00  0.00    +0.000 A 
ATOM      4  C   UNL     1       2.895   3.065  20.531  0.00  0.00    +0.000 A 
ATOM      5  C   UNL     1       3.968   3.736  19.953  0.00  0.00    +0.000 A 
ATOM      6  C   UNL     1       3.845   5.058  19.461  0.00  0.00    +0.000 A 
ENDROOT
BRANCH   1   9
ATOM      7  N   UNL     1       1.643   9.180  18.749  0.00  0.00    +0.000 N 
ATOM      8  C   UNL     1       1.747   8.195  19.710  0.00  0.00    +0.000 A 
ATOM      9  C   UNL     1       2.331   7.100  19.086  0.00  0.00    +0.000 A 
ATOM     10  N   UNL     1       2.671   7.473  17.820  0.00  0.00    +0.000 NA
ATOM     11  N   UNL     1       2.292   8.722  17.636  0.00  0.00    +0.000 NA
BRANCH   7  16
ATOM     12  C   UNL     1      -1.313  11.446  18.829  0.00  0.00    +0.000 A 
ATOM     13  C   UNL     1      -0.781  12.702  18.658  0.00  0.00    +0.000 A 
ATOM     14  C   UNL     1       0.595  12.840  18.521  0.00  0.00    +0.000 A 
ATOM     15  C   UNL     1       1.518  11.756  18.544  0.00  0.00    +0.000 A 
ATOM     16  C   UNL     1       0.990  10.467  18.685  0.00  0.00    +0.000 A 
ATOM     17  C   UNL     1      -0.439  10.360  18.831  0.00  0.00    +0.000 A 
BRANCH  12  19
ATOM     18  C   UNL     1      -3.270  12.445  19.741  0.00  0.00    +0.000 C 
ATOM     19  O   UNL     1      -2.669  11.404  18.979  0.00  0.00    +0.000 OA
ENDBRANCH  12  19
BRANCH  15  20
ATOM     20  O   UNL     1       2.713  12.366  18.417  0.00  0.00    +0.000 OA
ATOM     21  C   UNL     1       3.150  13.689  18.397  0.00  0.00    +0.000 C 
ENDBRANCH  15  20
ENDBRANCH   7  16
ENDBRANCH   1   9
BRANCH   6  22
ATOM     22  S   UNL     1       5.366   5.799  18.907  0.00  0.00    +0.000 S 
BRANCH  22  23
ATOM     23  C   UNL     1       5.757   4.970  17.380  0.00  0.00    +0.000 A 
ATOM     24  C   UNL     1       4.690   4.337  16.734  0.00  0.00    +0.000 A 
ATOM     25  C   UNL     1       4.810   3.889  15.419  0.00  0.00    +0.000 A 
ATOM     26  C   UNL     1       6.003   4.089  14.717  0.00  0.00    +0.000 A 
ATOM     27  C   UNL     1       7.109   4.616  15.401  0.00  0.00    +0.000 A 
ATOM     28  C   UNL     1       6.989   5.047  16.725  0.00  0.00    +0.000 A 
BRANCH  26  29
ATOM     29  C   UNL     1       6.086   3.827  13.236  0.00  0.00    +0.000 C 
ATOM     30  F   UNL     1       6.400   2.537  12.929  0.00  0.00    +0.000 F 
ATOM     31  F   UNL     1       4.902   4.076  12.608  0.00  0.00    +0.000 F 
ATOM     32  F   UNL     1       7.013   4.602  12.613  0.00  0.00    +0.000 F 
ENDBRANCH  26  29
ENDBRANCH  22  23
ENDBRANCH   6  22
TORSDOF 7
ENDMDL
MODEL 8
REMARK VINA RESULT:      -8.5      1.349      2.518
REMARK  Name = 
REMARK  9 active torsions:
REMARK  status: ('A' for Active; 'I' for Inactive)
REMARK    1  A    between atoms: C_1  and  O_2
REMARK    2  A    between atoms: O_2  and  C_3
REMARK    3  A    between atoms: C_6  and  O_7
REMARK    4  A    between atoms: O_7  and  C_8
REMARK    5  A    between atoms: C_9  and  N_10
REMARK    6  A    between atoms: C_12  and  C_13
REMARK    7  A    between atoms: C_18  and  S_19
REMARK    8  A    between atoms: S_19  and  C_20
REMARK    9  A    between atoms: C_23  and  C_24
REMARK                            x       y       z     vdW  Elec       q    Type
REMARK                         _______ _______ _______ _____ _____    ______ ____
ROOT
ATOM      1  C   UNL     1       2.833   4.963  19.683  0.00  0.00    +0.000 A 
ATOM      2  C   UNL     1       1.849   4.081  20.206  0.00  0.00    +0.000 A 
ATOM      3  C   UNL     1       2.083   2.712  20.392  0.00  0.00    +0.000 A 
ATOM      4  C   UNL     1       3.312   2.176  20.050  0.00  0.00    +0.000 A 
ATOM      5  C   UNL     1       4.304   3.017  19.559  0.00  0.00    +0.000 A 
ATOM      6  C   UNL     1       4.085   4.403  19.372  0.00  0.00    +0.000 A 
ENDROOT
BRANCH   1   9
ATOM      7  N   UNL     1       1.709   8.461  19.754  0.00  0.00    +0.000 N 
ATOM      8  C   UNL     1       2.022   7.327  20.475  0.00  0.00    +0.000 A 
ATOM      9  C   UNL     1       2.458   6.385  19.553  0.00  0.00    +0.000 A 
ATOM     10  N   UNL     1       2.514   6.989  18.333  0.00  0.00    +0.000 NA
ATOM     11  N   UNL     1       2.101   8.235  18.464  0.00  0.00    +0.000 NA
BRANCH   7  16
ATOM     12  C   UNL     1      -0.488  10.679  21.788  0.00  0.00    +0.000 A 
ATOM     13  C   UNL     1      -0.437  11.891  21.142  0.00  0.00    +0.000 A 
ATOM     14  C   UNL     1       0.349  12.015  20.002  0.00  0.00    +0.000 A 
ATOM     15  C   UNL     1       1.122  10.960  19.439  0.00  0.00    +0.000 A 
ATOM     16  C   UNL     1       1.055   9.711  20.066  0.00  0.00    +0.000 A 
ATOM     17  C   UNL     1       0.237   9.618  21.247  0.00  0.00    +0.000 A 
BRANCH  12  19
ATOM     18  C   UNL     1      -2.087  11.784  23.159  0.00  0.00    +0.000 C 
ATOM     19  O   UNL     1      -1.264  10.650  22.910  0.00  0.00    +0.000 OA
ENDBRANCH  12  19
BRANCH  15  20
ATOM     20  O   UNL     1       1.732  11.551  18.391  0.00  0.00    +0.000 OA
ATOM     21  C   UNL     1       2.421  12.746  18.194  0.00  0.00    +0.000 C 
ENDBRANCH  15  20
ENDBRANCH   7  16
ENDBRANCH   1   9
BRANCH   6  22
ATOM     22  S   UNL     1       5.522   5.335  18.888  0.00  0.00    +0.000 S 
BRANCH  22  23
ATOM     23  C   UNL     1       5.587   5.198  17.113  0.00  0.00    +0.000 A 
ATOM     24  C   UNL     1       6.859   5.289  16.536  0.00  0.00    +0.000 A 
ATOM     25  C   UNL     1       7.070   4.937  15.203  0.00  0.00    +0.000 A 
ATOM     26  C   UNL     1       6.006   4.464  14.428  0.00  0.00    +0.000 A 
ATOM     27  C   UNL     1       4.713   4.484  14.970  0.00  0.00    +0.000 A 
ATOM     28  C   UNL     1       4.504   4.856  16.300  0.00  0.00    +0.000 A 
BRANCH  26  29
ATOM     29  C   UNL     1       6.245   3.862  13.067  0.00  0.00    +0.000 C 
ATOM     30  F   UNL     1       6.497   2.523  13.103  0.00  0.00    +0.000 F 
ATOM     31  F   UNL     1       5.166   4.010  12.249  0.00  0.00    +0.000 F 
ATOM     32  F   UNL     1       7.294   4.428  12.415  0.00  0.00    +0.000 F 
ENDBRANCH  26  29
ENDBRANCH  22  23
ENDBRANCH   6  22
TORSDOF 7
ENDMDL
MODEL 9
REMARK VINA RESULT:      -8.5      1.000      2.370
REMARK  Name = 
REMARK  9 active torsions:
REMARK  status: ('A' for Active; 'I' for Inactive)
REMARK    1  A    between atoms: C_1  and  O_2
REMARK    2  A    between atoms: O_2  and  C_3
REMARK    3  A    between atoms: C_6  and  O_7
REMARK    4  A    between atoms: O_7  and  C_8
REMARK    5  A    between atoms: C_9  and  N_10
REMARK    6  A    between atoms: C_12  and  C_13
REMARK    7  A    between atoms: C_18  and  S_19
REMARK    8  A    between atoms: S_19  and  C_20
REMARK    9  A    between atoms: C_23  and  C_24
REMARK                            x       y       z     vdW  Elec       q    Type
REMARK                         _______ _______ _______ _____ _____    ______ ____
ROOT
ATOM      1  C   UNL     1       2.709   5.167  19.991  0.00  0.00    +0.000 A 
ATOM      2  C   UNL     1       1.800   4.293  20.648  0.00  0.00    +0.000 A 
ATOM      3  C   UNL     1       2.119   2.964  20.956  0.00  0.00    +0.000 A 
ATOM      4  C   UNL     1       3.359   2.460  20.608  0.00  0.00    +0.000 A 
ATOM      5  C   UNL     1       4.279   3.297  19.985  0.00  0.00    +0.000 A 
ATOM      6  C   UNL     1       3.974   4.644  19.673  0.00  0.00    +0.000 A 
ENDROOT
BRANCH   1   9
ATOM      7  N   UNL     1       1.281   8.540  19.697  0.00  0.00    +0.000 N 
ATOM      8  C   UNL     1       1.497   7.437  20.497  0.00  0.00    +0.000 A 
ATOM      9  C   UNL     1       2.249   6.547  19.740  0.00  0.00    +0.000 A 
ATOM     10  N   UNL     1       2.568   7.163  18.566  0.00  0.00    +0.000 NA
ATOM     11  N   UNL     1       2.020   8.362  18.561  0.00  0.00    +0.000 NA
BRANCH   7  16
ATOM     12  C   UNL     1      -0.120  11.507  21.463  0.00  0.00    +0.000 A 
ATOM     13  C   UNL     1      -0.951  12.091  20.538  0.00  0.00    +0.000 A 
ATOM     14  C   UNL     1      -1.065  11.518  19.277  0.00  0.00    +0.000 A 
ATOM     15  C   UNL     1      -0.373  10.345  18.860  0.00  0.00    +0.000 A 
ATOM     16  C   UNL     1       0.452   9.720  19.802  0.00  0.00    +0.000 A 
ATOM     17  C   UNL     1       0.554  10.342  21.096  0.00  0.00    +0.000 A 
BRANCH  12  19
ATOM     18  C   UNL     1      -1.232  12.786  23.133  0.00  0.00    +0.000 C 
ATOM     19  O   UNL     1      -0.048  12.146  22.667  0.00  0.00    +0.000 OA
ENDBRANCH  12  19
BRANCH  15  20
ATOM     20  O   UNL     1      -0.760  10.198  17.577  0.00  0.00    +0.000 OA
ATOM     21  C   UNL     1      -1.956   9.876  16.937  0.00  0.00    +0.000 C 
ENDBRANCH  15  20
ENDBRANCH   7  16
ENDBRANCH   1   9
BRANCH   6  22
ATOM     22  S   UNL     1       5.334   5.593  19.027  0.00  0.00    +0.000 S 
BRANCH  22  23
ATOM     23  C   UNL     1       5.736   4.827  17.469  0.00  0.00    +0.000 A 
ATOM     24  C   UNL     1       4.664   4.269  16.765  0.00  0.00    +0.000 A 
ATOM     25  C   UNL     1       4.804   3.882  15.432  0.00  0.00    +0.000 A 
ATOM     26  C   UNL     1       6.023   4.069  14.773  0.00  0.00    +0.000 A 
ATOM     27  C   UNL     1       7.128   4.519  15.511  0.00  0.00    +0.000 A 
ATOM     28  C   UNL     1       6.987   4.887  16.852  0.00  0.00    +0.000 A 
BRANCH  26  29
ATOM     29  C   UNL     1       6.138   3.879  13.283  0.00  0.00    +0.000 C 
ATOM     30  F   UNL     1       4.966   4.086  12.617  0.00  0.00    +0.000 F 
ATOM     31  F   UNL     1       7.033   4.743  12.728  0.00  0.00    +0.000 F 
ATOM     32  F   UNL     1       6.554   2.632  12.940  0.00  0.00    +0.000 F 
ENDBRANCH  26  29
ENDBRANCH  22  23
ENDBRANCH   6  22
TORSDOF 7
ENDMDL
