MODEL 1
REMARK VINA RESULT:      -8.1      0.000      0.000
REMARK  Name = 
REMARK  7 active torsions:
REMARK  status: ('A' for Active; 'I' for Inactive)
REMARK    1  A    between atoms: C_2  and  C_3
REMARK    2  A    between atoms: C_10  and  C_12
REMARK    3  A    between atoms: C_12  and  N_13
REMARK    4  A    between atoms: C_14  and  C_16
REMARK    5  A    between atoms: C_19  and  C_20
REMARK    6  A    between atoms: C_20  and  C_21
REMARK    7  A    between atoms: C_24  and  N_25
REMARK                            x       y       z     vdW  Elec       q    Type
REMARK                         _______ _______ _______ _____ _____    ______ ____
ROOT
ATOM      1  C   UNL     1       1.629   7.591  20.410  0.00  0.00    +0.000 A 
ATOM      2  C   UNL     1       1.319   8.135  21.645  0.00  0.00    +0.000 A 
ATOM      3  S   UNL     1       0.841   9.773  21.482  0.00  0.00    +0.000 S 
ATOM      4  C   UNL     1       1.078   9.658  19.784  0.00  0.00    +0.000 A 
ATOM      5  N   UNL     1       1.534   8.498  19.358  0.00  0.00    +0.000 NA
ENDROOT
BRANCH   1   7
ATOM      6  N   UNL     1       3.356   6.071  19.706  0.00  0.00    +0.000 N 
ATOM      7  C   UNL     1       2.063   6.203  20.186  0.00  0.00    +0.000 C 
ATOM      8  O   UNL     1       1.336   5.237  20.402  0.00  0.00    +0.000 OA
ATOM      9  H   UNL     1       3.995   6.842  19.845  0.00  0.00    +0.000 HD
BRANCH   6  10
ATOM     10  C   UNL     1       3.904   4.761  19.402  0.00  0.00    +0.000 C 
BRANCH  10  18
ATOM     11  C   UNL     1       6.402   4.166  17.532  0.00  0.00    +0.000 C 
ATOM     12  C   UNL     1       7.135   4.685  16.301  0.00  0.00    +0.000 C 
ATOM     13  C   UNL     1       6.181   4.439  15.140  0.00  0.00    +0.000 C 
ATOM     14  F   UNL     1       6.044   5.571  14.414  0.00  0.00    +0.000 F 
ATOM     15  F   UNL     1       6.679   3.488  14.319  0.00  0.00    +0.000 F 
ATOM     16  C   UNL     1       4.848   4.005  15.729  0.00  0.00    +0.000 C 
ATOM     17  N   UNL     1       4.967   4.250  17.157  0.00  0.00    +0.000 N 
ATOM     18  C   UNL     1       3.807   4.328  17.925  0.00  0.00    +0.000 C 
ATOM     19  O   UNL     1       2.710   4.069  17.422  0.00  0.00    +0.000 OA
BRANCH  11  21
ATOM     20  N   UNL     1       6.934   5.704  19.787  0.00  0.00    +0.000 NA
ATOM     21  C   UNL     1       6.692   5.007  18.764  0.00  0.00    +0.000 C 
ENDBRANCH  11  21
ENDBRANCH  10  18
ENDBRANCH   6  10
ENDBRANCH   1   7
BRANCH   4  22
ATOM     22  C   UNL     1       0.751  10.817  18.889  0.00  0.00    +0.000 C 
BRANCH  22  23
ATOM     23  C   UNL     1      -0.740  11.055  18.761  0.00  0.00    +0.000 A 
ATOM     24  C   UNL     1      -1.381  12.018  19.550  0.00  0.00    +0.000 A 
ATOM     25  C   UNL     1      -2.753  12.255  19.413  0.00  0.00    +0.000 A 
ATOM     26  C   UNL     1      -3.507  11.523  18.486  0.00  0.00    +0.000 A 
ATOM     27  C   UNL     1      -2.874  10.543  17.709  0.00  0.00    +0.000 A 
ATOM     28  C   UNL     1      -1.500  10.319  17.841  0.00  0.00    +0.000 A 
BRANCH  26  29
ATOM     29  N   UNL     1      -4.901  11.759  18.320  0.00  0.00    +0.000 N 
ATOM     30  C   UNL     1      -5.908  11.577  19.248  0.00  0.00    +0.000 A 
ATOM     31  C   UNL     1      -7.090  11.923  18.640  0.00  0.00    +0.000 A 
ATOM     32  C   UNL     1      -6.718  12.315  17.348  0.00  0.00    +0.000 A 
ATOM     33  N   UNL     1      -5.401  12.231  17.148  0.00  0.00    +0.000 NA
ENDBRANCH  26  29
ENDBRANCH  22  23
ENDBRANCH   4  22
TORSDOF 7
ENDMDL
MODEL 2
REMARK VINA RESULT:      -7.8      4.072     10.625
REMARK  Name = 
REMARK  7 active torsions:
REMARK  status: ('A' for Active; 'I' for Inactive)
REMARK    1  A    between atoms: C_2  and  C_3
REMARK    2  A    between atoms: C_10  and  C_12
REMARK    3  A    between atoms: C_12  and  N_13
REMARK    4  A    between atoms: C_14  and  C_16
REMARK    5  A    between atoms: C_19  and  C_20
REMARK    6  A    between atoms: C_20  and  C_21
REMARK    7  A    between atoms: C_24  and  N_25
REMARK                            x       y       z     vdW  Elec       q    Type
REMARK                         _______ _______ _______ _____ _____    ______ ____
ROOT
ATOM      1  C   UNL     1       2.193   7.154  19.597  0.00  0.00    +0.000 A 
ATOM      2  C   UNL     1       1.464   6.420  20.519  0.00  0.00    +0.000 A 
ATOM      3  S   UNL     1       2.248   4.937  20.868  0.00  0.00    +0.000 S 
ATOM      4  C   UNL     1       3.504   5.360  19.774  0.00  0.00    +0.000 A 
ATOM      5  N   UNL     1       3.337   6.503  19.142  0.00  0.00    +0.000 NA
ENDROOT
BRANCH   1   7
ATOM      6  N   UNL     1       0.729   9.059  19.729  0.00  0.00    +0.000 N 
ATOM      7  C   UNL     1       1.813   8.480  19.086  0.00  0.00    +0.000 C 
ATOM      8  O   UNL     1       2.403   9.029  18.160  0.00  0.00    +0.000 OA
ATOM      9  H   UNL     1       0.492   8.725  20.653  0.00  0.00    +0.000 HD
BRANCH   6  10
ATOM     10  C   UNL     1       0.219  10.349  19.305  0.00  0.00    +0.000 C 
BRANCH  10  18
ATOM     11  C   UNL     1      -2.365  12.197  19.307  0.00  0.00    +0.000 C 
ATOM     12  C   UNL     1      -3.881  12.147  19.455  0.00  0.00    +0.000 C 
ATOM     13  C   UNL     1      -4.376  11.421  18.211  0.00  0.00    +0.000 C 
ATOM     14  F   UNL     1      -5.220  10.427  18.570  0.00  0.00    +0.000 F 
ATOM     15  F   UNL     1      -5.064  12.270  17.417  0.00  0.00    +0.000 F 
ATOM     16  C   UNL     1      -3.157  10.868  17.490  0.00  0.00    +0.000 C 
ATOM     17  N   UNL     1      -2.054  11.047  18.420  0.00  0.00    +0.000 N 
ATOM     18  C   UNL     1      -0.890  10.305  18.232  0.00  0.00    +0.000 C 
ATOM     19  O   UNL     1      -0.754   9.604  17.225  0.00  0.00    +0.000 OA
BRANCH  11  21
ATOM     20  N   UNL     1      -1.069  11.947  21.754  0.00  0.00    +0.000 NA
ATOM     21  C   UNL     1      -1.657  12.061  20.644  0.00  0.00    +0.000 C 
ENDBRANCH  11  21
ENDBRANCH  10  18
ENDBRANCH   6  10
ENDBRANCH   1   7
BRANCH   4  22
ATOM     22  C   UNL     1       4.699   4.467  19.602  0.00  0.00    +0.000 C 
BRANCH  22  23
ATOM     23  C   UNL     1       5.233   4.472  18.184  0.00  0.00    +0.000 A 
ATOM     24  C   UNL     1       4.391   4.187  17.102  0.00  0.00    +0.000 A 
ATOM     25  C   UNL     1       4.879   4.218  15.791  0.00  0.00    +0.000 A 
ATOM     26  C   UNL     1       6.223   4.526  15.545  0.00  0.00    +0.000 A 
ATOM     27  C   UNL     1       7.075   4.791  16.626  0.00  0.00    +0.000 A 
ATOM     28  C   UNL     1       6.580   4.771  17.933  0.00  0.00    +0.000 A 
BRANCH  26  29
ATOM     29  N   UNL     1       6.736   4.578  14.217  0.00  0.00    +0.000 N 
ATOM     30  C   UNL     1       6.415   3.758  13.152  0.00  0.00    +0.000 A 
ATOM     31  C   UNL     1       7.163   4.174  12.078  0.00  0.00    +0.000 A 
ATOM     32  C   UNL     1       7.906   5.256  12.567  0.00  0.00    +0.000 A 
ATOM     33  N   UNL     1       7.649   5.515  13.850  0.00  0.00    +0.000 NA
ENDBRANCH  26  29
ENDBRANCH  22  23
ENDBRANCH   4  22
TORSDOF 7
ENDMDL
MODEL 3
REMARK VINA RESULT:      -7.6      3.303      4.228
REMARK  Name = 
REMARK  7 active torsions:
REMARK  status: ('A' for Active; 'I' for Inactive)
REMARK    1  A    between atoms: C_2  and  C_3
REMARK    2  A    between atoms: C_10  and  C_12
REMARK    3  A    between atoms: C_12  and  N_13
REMARK    4  A    between atoms: C_14  and  C_16
REMARK    5  A    between atoms: C_19  and  C_20
REMARK    6  A    between atoms: C_20  and  C_21
REMARK    7  A    between atoms: C_24  and  N_25
REMARK                            x       y       z     vdW  Elec       q    Type
REMARK                         _______ _______ _______ _____ _____    ______ ____
ROOT
ATOM      1  C   UNL     1       0.682  10.013  18.953  0.00  0.00    +0.000 A 
ATOM      2  C   UNL     1      -0.504  10.261  18.280  0.00  0.00    +0.000 A 
ATOM      3  S   UNL     1      -1.408  11.479  19.077  0.00  0.00    +0.000 S 
ATOM      4  C   UNL     1      -0.173  11.601  20.264  0.00  0.00    +0.000 A 
ATOM      5  N   UNL     1       0.829  10.758  20.120  0.00  0.00    +0.000 NA
ENDROOT
BRANCH   1   7
ATOM      6  N   UNL     1       1.941   8.025  19.450  0.00  0.00    +0.000 N 
ATOM      7  C   UNL     1       1.698   9.037  18.535  0.00  0.00    +0.000 C 
ATOM      8  O   UNL     1       2.291   9.113  17.462  0.00  0.00    +0.000 OA
ATOM      9  H   UNL     1       1.231   7.833  20.144  0.00  0.00    +0.000 HD
BRANCH   6  10
ATOM     10  C   UNL     1       2.948   7.013  19.188  0.00  0.00    +0.000 C 
BRANCH  10  18
ATOM     11  C   UNL     1       4.395   4.387  18.137  0.00  0.00    +0.000 C 
ATOM     12  C   UNL     1       4.160   3.138  17.296  0.00  0.00    +0.000 C 
ATOM     13  C   UNL     1       3.175   2.299  18.099  0.00  0.00    +0.000 C 
ATOM     14  F   UNL     1       2.148   1.919  17.307  0.00  0.00    +0.000 F 
ATOM     15  F   UNL     1       3.778   1.176  18.550  0.00  0.00    +0.000 F 
ATOM     16  C   UNL     1       2.685   3.155  19.257  0.00  0.00    +0.000 C 
ATOM     17  N   UNL     1       3.167   4.496  18.967  0.00  0.00    +0.000 N 
ATOM     18  C   UNL     1       2.572   5.577  19.613  0.00  0.00    +0.000 C 
ATOM     19  O   UNL     1       1.740   5.389  20.504  0.00  0.00    +0.000 OA
BRANCH  11  21
ATOM     20  N   UNL     1       4.737   6.655  16.565  0.00  0.00    +0.000 NA
ATOM     21  C   UNL     1       4.581   5.626  17.278  0.00  0.00    +0.000 C 
ENDBRANCH  11  21
ENDBRANCH  10  18
ENDBRANCH   6  10
ENDBRANCH   1   7
BRANCH   4  22
ATOM     22  C   UNL     1      -0.262  12.627  21.356  0.00  0.00    +0.000 C 
BRANCH  22  23
ATOM     23  C   UNL     1      -1.678  12.821  21.861  0.00  0.00    +0.000 A 
ATOM     24  C   UNL     1      -2.561  13.685  21.201  0.00  0.00    +0.000 A 
ATOM     25  C   UNL     1      -3.876  13.844  21.652  0.00  0.00    +0.000 A 
ATOM     26  C   UNL     1      -4.324  13.144  22.780  0.00  0.00    +0.000 A 
ATOM     27  C   UNL     1      -3.438  12.294  23.457  0.00  0.00    +0.000 A 
ATOM     28  C   UNL     1      -2.129  12.130  22.995  0.00  0.00    +0.000 A 
BRANCH  26  29
ATOM     29  N   UNL     1      -5.662  13.279  23.247  0.00  0.00    +0.000 N 
ATOM     30  C   UNL     1      -6.255  14.393  23.810  0.00  0.00    +0.000 A 
ATOM     31  C   UNL     1      -7.551  14.055  24.115  0.00  0.00    +0.000 A 
ATOM     32  C   UNL     1      -7.673  12.723  23.698  0.00  0.00    +0.000 A 
ATOM     33  N   UNL     1      -6.546  12.249  23.163  0.00  0.00    +0.000 NA
ENDBRANCH  26  29
ENDBRANCH  22  23
ENDBRANCH   4  22
TORSDOF 7
ENDMDL
MODEL 4
REMARK VINA RESULT:      -7.6      3.421      4.328
REMARK  Name = 
REMARK  7 active torsions:
REMARK  status: ('A' for Active; 'I' for Inactive)
REMARK    1  A    between atoms: C_2  and  C_3
REMARK    2  A    between atoms: C_10  and  C_12
REMARK    3  A    between atoms: C_12  and  N_13
REMARK    4  A    between atoms: C_14  and  C_16
REMARK    5  A    between atoms: C_19  and  C_20
REMARK    6  A    between atoms: C_20  and  C_21
REMARK    7  A    between atoms: C_24  and  N_25
REMARK                            x       y       z     vdW  Elec       q    Type
REMARK                         _______ _______ _______ _____ _____    ______ ____
ROOT
ATOM      1  C   UNL     1       0.624  10.063  19.017  0.00  0.00    +0.000 A 
ATOM      2  C   UNL     1      -0.576  10.338  18.383  0.00  0.00    +0.000 A 
ATOM      3  S   UNL     1      -1.442  11.552  19.226  0.00  0.00    +0.000 S 
ATOM      4  C   UNL     1      -0.172  11.636  20.381  0.00  0.00    +0.000 A 
ATOM      5  N   UNL     1       0.814  10.784  20.193  0.00  0.00    +0.000 NA
ENDROOT
BRANCH   1   7
ATOM      6  N   UNL     1       1.879   8.055  19.447  0.00  0.00    +0.000 N 
ATOM      7  C   UNL     1       1.616   9.082  18.553  0.00  0.00    +0.000 C 
ATOM      8  O   UNL     1       2.174   9.166  17.462  0.00  0.00    +0.000 OA
ATOM      9  H   UNL     1       1.190   7.861  20.161  0.00  0.00    +0.000 HD
BRANCH   6  10
ATOM     10  C   UNL     1       2.865   7.036  19.138  0.00  0.00    +0.000 C 
BRANCH  10  18
ATOM     11  C   UNL     1       4.388   4.421  18.175  0.00  0.00    +0.000 C 
ATOM     12  C   UNL     1       4.205   3.161  17.338  0.00  0.00    +0.000 C 
ATOM     13  C   UNL     1       3.199   2.316  18.109  0.00  0.00    +0.000 C 
ATOM     14  F   UNL     1       2.210   1.914  17.279  0.00  0.00    +0.000 F 
ATOM     15  F   UNL     1       3.797   1.206  18.595  0.00  0.00    +0.000 F 
ATOM     16  C   UNL     1       2.650   3.177  19.236  0.00  0.00    +0.000 C 
ATOM     17  N   UNL     1       3.126   4.521  18.952  0.00  0.00    +0.000 N 
ATOM     18  C   UNL     1       2.491   5.600  19.562  0.00  0.00    +0.000 C 
ATOM     19  O   UNL     1       1.625   5.410  20.420  0.00  0.00    +0.000 OA
BRANCH  11  21
ATOM     20  N   UNL     1       4.765   6.677  16.594  0.00  0.00    +0.000 NA
ATOM     21  C   UNL     1       4.594   5.653  17.311  0.00  0.00    +0.000 C 
ENDBRANCH  11  21
ENDBRANCH  10  18
ENDBRANCH   6  10
ENDBRANCH   1   7
BRANCH   4  22
ATOM     22  C   UNL     1      -0.218  12.643  21.493  0.00  0.00    +0.000 C 
BRANCH  22  23
ATOM     23  C   UNL     1      -1.626  12.898  21.992  0.00  0.00    +0.000 A 
ATOM     24  C   UNL     1      -2.220  12.041  22.927  0.00  0.00    +0.000 A 
ATOM     25  C   UNL     1      -3.510  12.292  23.407  0.00  0.00    +0.000 A 
ATOM     26  C   UNL     1      -4.229  13.404  22.950  0.00  0.00    +0.000 A 
ATOM     27  C   UNL     1      -3.648  14.253  21.999  0.00  0.00    +0.000 A 
ATOM     28  C   UNL     1      -2.354  14.004  21.531  0.00  0.00    +0.000 A 
BRANCH  26  29
ATOM     29  N   UNL     1      -5.537  13.685  23.438  0.00  0.00    +0.000 N 
ATOM     30  C   UNL     1      -6.431  12.809  24.023  0.00  0.00    +0.000 A 
ATOM     31  C   UNL     1      -7.565  13.524  24.323  0.00  0.00    +0.000 A 
ATOM     32  C   UNL     1      -7.280  14.827  23.898  0.00  0.00    +0.000 A 
ATOM     33  N   UNL     1      -6.058  14.939  23.374  0.00  0.00    +0.000 NA
ENDBRANCH  26  29
ENDBRANCH  22  23
ENDBRANCH   4  22
TORSDOF 7
ENDMDL
MODEL 5
REMARK VINA RESULT:      -7.6      1.215      2.099
REMARK  Name = 
REMARK  7 active torsions:
REMARK  status: ('A' for Active; 'I' for Inactive)
REMARK    1  A    between atoms: C_2  and  C_3
REMARK    2  A    between atoms: C_10  and  C_12
REMARK    3  A    between atoms: C_12  and  N_13
REMARK    4  A    between atoms: C_14  and  C_16
REMARK    5  A    between atoms: C_19  and  C_20
REMARK    6  A    between atoms: C_20  and  C_21
REMARK    7  A    between atoms: C_24  and  N_25
REMARK                            x       y       z     vdW  Elec       q    Type
REMARK                         _______ _______ _______ _____ _____    ______ ____
ROOT
ATOM      1  C   UNL     1       1.570   7.493  20.568  0.00  0.00    +0.000 A 
ATOM      2  C   UNL     1       0.921   7.999  21.683  0.00  0.00    +0.000 A 
ATOM      3  S   UNL     1       0.302   9.565  21.364  0.00  0.00    +0.000 S 
ATOM      4  C   UNL     1       0.935   9.475  19.769  0.00  0.00    +0.000 A 
ATOM      5  N   UNL     1       1.611   8.379  19.494  0.00  0.00    +0.000 NA
ENDROOT
BRANCH   1   7
ATOM      6  N   UNL     1       3.499   6.175  19.997  0.00  0.00    +0.000 N 
ATOM      7  C   UNL     1       2.205   6.169  20.492  0.00  0.00    +0.000 C 
ATOM      8  O   UNL     1       1.633   5.138  20.836  0.00  0.00    +0.000 OA
ATOM      9  H   UNL     1       4.016   7.043  20.030  0.00  0.00    +0.000 HD
BRANCH   6  10
ATOM     10  C   UNL     1       4.235   4.935  19.829  0.00  0.00    +0.000 C 
BRANCH  10  18
ATOM     11  C   UNL     1       4.600   5.296  16.695  0.00  0.00    +0.000 C 
ATOM     12  C   UNL     1       5.136   4.589  15.456  0.00  0.00    +0.000 C 
ATOM     13  C   UNL     1       6.646   4.545  15.648  0.00  0.00    +0.000 C 
ATOM     14  F   UNL     1       7.096   3.286  15.445  0.00  0.00    +0.000 F 
ATOM     15  F   UNL     1       7.255   5.344  14.743  0.00  0.00    +0.000 F 
ATOM     16  C   UNL     1       6.939   5.008  17.066  0.00  0.00    +0.000 C 
ATOM     17  N   UNL     1       5.644   5.056  17.724  0.00  0.00    +0.000 N 
ATOM     18  C   UNL     1       5.598   5.063  19.116  0.00  0.00    +0.000 C 
ATOM     19  O   UNL     1       6.639   5.152  19.773  0.00  0.00    +0.000 OA
BRANCH  11  21
ATOM     20  N   UNL     1       2.148   4.264  17.504  0.00  0.00    +0.000 NA
ATOM     21  C   UNL     1       3.260   4.733  17.137  0.00  0.00    +0.000 C 
ENDBRANCH  11  21
ENDBRANCH  10  18
ENDBRANCH   6  10
ENDBRANCH   1   7
BRANCH   4  22
ATOM     22  C   UNL     1       0.688  10.583  18.787  0.00  0.00    +0.000 C 
BRANCH  22  23
ATOM     23  C   UNL     1      -0.780  10.935  18.661  0.00  0.00    +0.000 A 
ATOM     24  C   UNL     1      -1.607  10.246  17.764  0.00  0.00    +0.000 A 
ATOM     25  C   UNL     1      -2.969  10.555  17.667  0.00  0.00    +0.000 A 
ATOM     26  C   UNL     1      -3.521  11.567  18.463  0.00  0.00    +0.000 A 
ATOM     27  C   UNL     1      -2.694  12.274  19.346  0.00  0.00    +0.000 A 
ATOM     28  C   UNL     1      -1.337  11.954  19.447  0.00  0.00    +0.000 A 
BRANCH  26  29
ATOM     29  N   UNL     1      -4.907  11.886  18.390  0.00  0.00    +0.000 N 
ATOM     30  C   UNL     1      -5.723  11.872  17.275  0.00  0.00    +0.000 A 
ATOM     31  C   UNL     1      -6.976  12.261  17.683  0.00  0.00    +0.000 A 
ATOM     32  C   UNL     1      -6.844  12.483  19.059  0.00  0.00    +0.000 A 
ATOM     33  N   UNL     1      -5.606  12.250  19.498  0.00  0.00    +0.000 NA
ENDBRANCH  26  29
ENDBRANCH  22  23
ENDBRANCH   4  22
TORSDOF 7
ENDMDL
MODEL 6
REMARK VINA RESULT:      -7.6      4.449     10.744
REMARK  Name = 
REMARK  7 active torsions:
REMARK  status: ('A' for Active; 'I' for Inactive)
REMARK    1  A    between atoms: C_2  and  C_3
REMARK    2  A    between atoms: C_10  and  C_12
REMARK    3  A    between atoms: C_12  and  N_13
REMARK    4  A    between atoms: C_14  and  C_16
REMARK    5  A    between atoms: C_19  and  C_20
REMARK    6  A    between atoms: C_20  and  C_21
REMARK    7  A    between atoms: C_24  and  N_25
REMARK                            x       y       z     vdW  Elec       q    Type
REMARK                         _______ _______ _______ _____ _____    ______ ____
ROOT
ATOM      1  C   UNL     1       2.251   7.352  19.290  0.00  0.00    +0.000 A 
ATOM      2  C   UNL     1       1.627   6.908  20.444  0.00  0.00    +0.000 A 
ATOM      3  S   UNL     1       2.252   5.385  20.921  0.00  0.00    +0.000 S 
ATOM      4  C   UNL     1       3.309   5.409  19.567  0.00  0.00    +0.000 A 
ATOM      5  N   UNL     1       3.179   6.452  18.772  0.00  0.00    +0.000 NA
ENDROOT
BRANCH   1   7
ATOM      6  N   UNL     1       1.178   9.505  19.347  0.00  0.00    +0.000 N 
ATOM      7  C   UNL     1       1.964   8.628  18.616  0.00  0.00    +0.000 C 
ATOM      8  O   UNL     1       2.382   8.894  17.492  0.00  0.00    +0.000 OA
ATOM      9  H   UNL     1       1.130   9.377  20.348  0.00  0.00    +0.000 HD
BRANCH   6  10
ATOM     10  C   UNL     1       0.783  10.786  18.791  0.00  0.00    +0.000 C 
BRANCH  10  18
ATOM     11  C   UNL     1      -0.745  13.234  20.120  0.00  0.00    +0.000 C 
ATOM     12  C   UNL     1      -1.763  13.573  21.201  0.00  0.00    +0.000 C 
ATOM     13  C   UNL     1      -3.080  12.996  20.700  0.00  0.00    +0.000 C 
ATOM     14  F   UNL     1      -3.652  12.252  21.672  0.00  0.00    +0.000 F 
ATOM     15  F   UNL     1      -3.940  13.993  20.393  0.00  0.00    +0.000 F 
ATOM     16  C   UNL     1      -2.770  12.150  19.475  0.00  0.00    +0.000 C 
ATOM     17  N   UNL     1      -1.321  12.041  19.447  0.00  0.00    +0.000 N 
ATOM     18  C   UNL     1      -0.738  11.025  18.692  0.00  0.00    +0.000 C 
ATOM     19  O   UNL     1      -1.435  10.313  17.964  0.00  0.00    +0.000 OA
BRANCH  11  21
ATOM     20  N   UNL     1       1.759  12.661  21.187  0.00  0.00    +0.000 NA
ATOM     21  C   UNL     1       0.623  12.921  20.703  0.00  0.00    +0.000 C 
ENDBRANCH  11  21
ENDBRANCH  10  18
ENDBRANCH   6  10
ENDBRANCH   1   7
BRANCH   4  22
ATOM     22  C   UNL     1       4.308   4.309  19.359  0.00  0.00    +0.000 C 
BRANCH  22  23
ATOM     23  C   UNL     1       4.955   4.358  17.989  0.00  0.00    +0.000 A 
ATOM     24  C   UNL     1       4.317   3.796  16.876  0.00  0.00    +0.000 A 
ATOM     25  C   UNL     1       4.902   3.865  15.607  0.00  0.00    +0.000 A 
ATOM     26  C   UNL     1       6.143   4.491  15.436  0.00  0.00    +0.000 A 
ATOM     27  C   UNL     1       6.796   5.036  16.550  0.00  0.00    +0.000 A 
ATOM     28  C   UNL     1       6.201   4.975  17.813  0.00  0.00    +0.000 A 
BRANCH  26  29
ATOM     29  N   UNL     1       6.749   4.585  14.151  0.00  0.00    +0.000 N 
ATOM     30  C   UNL     1       6.476   3.829  13.027  0.00  0.00    +0.000 A 
ATOM     31  C   UNL     1       7.311   4.266  12.028  0.00  0.00    +0.000 A 
ATOM     32  C   UNL     1       8.055   5.296  12.619  0.00  0.00    +0.000 A 
ATOM     33  N   UNL     1       7.717   5.504  13.893  0.00  0.00    +0.000 NA
ENDBRANCH  26  29
ENDBRANCH  22  23
ENDBRANCH   4  22
TORSDOF 7
ENDMDL
MODEL 7
REMARK VINA RESULT:      -7.6      1.183      1.818
REMARK  Name = 
REMARK  7 active torsions:
REMARK  status: ('A' for Active; 'I' for Inactive)
REMARK    1  A    between atoms: C_2  and  C_3
REMARK    2  A    between atoms: C_10  and  C_12
REMARK    3  A    between atoms: C_12  and  N_13
REMARK    4  A    between atoms: C_14  and  C_16
REMARK    5  A    between atoms: C_19  and  C_20
REMARK    6  A    between atoms: C_20  and  C_21
REMARK    7  A    between atoms: C_24  and  N_25
REMARK                            x       y       z     vdW  Elec       q    Type
REMARK                         _______ _______ _______ _____ _____    ______ ____
ROOT
ATOM      1  C   UNL     1       1.555   7.568  20.618  0.00  0.00    +0.000 A 
ATOM      2  C   UNL     1       0.970   8.096  21.757  0.00  0.00    +0.000 A 
ATOM      3  S   UNL     1       0.332   9.655  21.443  0.00  0.00    +0.000 S 
ATOM      4  C   UNL     1       0.873   9.533  19.816  0.00  0.00    +0.000 A 
ATOM      5  N   UNL     1       1.534   8.431  19.526  0.00  0.00    +0.000 NA
ENDROOT
BRANCH   1   7
ATOM      6  N   UNL     1       3.470   6.245  20.009  0.00  0.00    +0.000 N 
ATOM      7  C   UNL     1       2.187   6.243  20.534  0.00  0.00    +0.000 C 
ATOM      8  O   UNL     1       1.622   5.213  20.894  0.00  0.00    +0.000 OA
ATOM      9  H   UNL     1       3.988   7.113  20.027  0.00  0.00    +0.000 HD
BRANCH   6  10
ATOM     10  C   UNL     1       4.200   5.003  19.830  0.00  0.00    +0.000 C 
BRANCH  10  18
ATOM     11  C   UNL     1       4.579   5.283  16.689  0.00  0.00    +0.000 C 
ATOM     12  C   UNL     1       5.134   4.550  15.474  0.00  0.00    +0.000 C 
ATOM     13  C   UNL     1       6.643   4.535  15.675  0.00  0.00    +0.000 C 
ATOM     14  F   UNL     1       7.113   3.278  15.510  0.00  0.00    +0.000 F 
ATOM     15  F   UNL     1       7.245   5.318  14.752  0.00  0.00    +0.000 F 
ATOM     16  C   UNL     1       6.920   5.042  17.082  0.00  0.00    +0.000 C 
ATOM     17  N   UNL     1       5.620   5.088  17.731  0.00  0.00    +0.000 N 
ATOM     18  C   UNL     1       5.565   5.133  19.122  0.00  0.00    +0.000 C 
ATOM     19  O   UNL     1       6.600   5.257  19.782  0.00  0.00    +0.000 OA
BRANCH  11  21
ATOM     20  N   UNL     1       2.137   4.238  17.513  0.00  0.00    +0.000 NA
ATOM     21  C   UNL     1       3.245   4.712  17.139  0.00  0.00    +0.000 C 
ENDBRANCH  11  21
ENDBRANCH  10  18
ENDBRANCH   6  10
ENDBRANCH   1   7
BRANCH   4  22
ATOM     22  C   UNL     1       0.568  10.620  18.827  0.00  0.00    +0.000 C 
BRANCH  22  23
ATOM     23  C   UNL     1      -0.909  10.950  18.757  0.00  0.00    +0.000 A 
ATOM     24  C   UNL     1      -1.443  12.006  19.506  0.00  0.00    +0.000 A 
ATOM     25  C   UNL     1      -2.802  12.326  19.421  0.00  0.00    +0.000 A 
ATOM     26  C   UNL     1      -3.651  11.585  18.589  0.00  0.00    +0.000 A 
ATOM     27  C   UNL     1      -3.126  10.513  17.854  0.00  0.00    +0.000 A 
ATOM     28  C   UNL     1      -1.765  10.205  17.934  0.00  0.00    +0.000 A 
BRANCH  26  29
ATOM     29  N   UNL     1      -5.034  11.904  18.477  0.00  0.00    +0.000 N 
ATOM     30  C   UNL     1      -5.916  12.224  19.492  0.00  0.00    +0.000 A 
ATOM     31  C   UNL     1      -7.142  12.444  18.912  0.00  0.00    +0.000 A 
ATOM     32  C   UNL     1      -6.922  12.247  17.543  0.00  0.00    +0.000 A 
ATOM     33  N   UNL     1      -5.655  11.932  17.268  0.00  0.00    +0.000 NA
ENDBRANCH  26  29
ENDBRANCH  22  23
ENDBRANCH   4  22
TORSDOF 7
ENDMDL
MODEL 8
REMARK VINA RESULT:      -7.5      4.854     10.837
REMARK  Name = 
REMARK  7 active torsions:
REMARK  status: ('A' for Active; 'I' for Inactive)
REMARK    1  A    between atoms: C_2  and  C_3
REMARK    2  A    between atoms: C_10  and  C_12
REMARK    3  A    between atoms: C_12  and  N_13
REMARK    4  A    between atoms: C_14  and  C_16
REMARK    5  A    between atoms: C_19  and  C_20
REMARK    6  A    between atoms: C_20  and  C_21
REMARK    7  A    between atoms: C_24  and  N_25
REMARK                            x       y       z     vdW  Elec       q    Type
REMARK                         _______ _______ _______ _____ _____    ______ ____
ROOT
ATOM      1  C   UNL     1       2.232   6.247  20.137  0.00  0.00    +0.000 A 
ATOM      2  C   UNL     1       1.417   5.327  20.775  0.00  0.00    +0.000 A 
ATOM      3  S   UNL     1       2.132   3.769  20.754  0.00  0.00    +0.000 S 
ATOM      4  C   UNL     1       3.475   4.413  19.898  0.00  0.00    +0.000 A 
ATOM      5  N   UNL     1       3.387   5.691  19.594  0.00  0.00    +0.000 NA
ENDROOT
BRANCH   1   7
ATOM      6  N   UNL     1       1.428   8.288  21.126  0.00  0.00    +0.000 N 
ATOM      7  C   UNL     1       1.927   7.678  19.986  0.00  0.00    +0.000 C 
ATOM      8  O   UNL     1       2.095   8.285  18.932  0.00  0.00    +0.000 OA
ATOM      9  H   UNL     1       1.603   7.843  22.017  0.00  0.00    +0.000 HD
BRANCH   6  10
ATOM     10  C   UNL     1       1.046   9.688  21.112  0.00  0.00    +0.000 C 
BRANCH  10  18
ATOM     11  C   UNL     1      -1.529  11.502  20.703  0.00  0.00    +0.000 C 
ATOM     12  C   UNL     1      -2.099  12.875  21.035  0.00  0.00    +0.000 C 
ATOM     13  C   UNL     1      -2.327  12.855  22.541  0.00  0.00    +0.000 C 
ATOM     14  F   UNL     1      -1.775  13.955  23.100  0.00  0.00    +0.000 F 
ATOM     15  F   UNL     1      -3.651  12.882  22.813  0.00  0.00    +0.000 F 
ATOM     16  C   UNL     1      -1.686  11.587  23.082  0.00  0.00    +0.000 C 
ATOM     17  N   UNL     1      -0.908  11.054  21.976  0.00  0.00    +0.000 N 
ATOM     18  C   UNL     1       0.097  10.129  22.247  0.00  0.00    +0.000 C 
ATOM     19  O   UNL     1       0.239   9.679  23.387  0.00  0.00    +0.000 OA
BRANCH  11  21
ATOM     20  N   UNL     1       0.357  11.622  18.663  0.00  0.00    +0.000 NA
ATOM     21  C   UNL     1      -0.499  11.567  19.588  0.00  0.00    +0.000 C 
ENDBRANCH  11  21
ENDBRANCH  10  18
ENDBRANCH   6  10
ENDBRANCH   1   7
BRANCH   4  22
ATOM     22  C   UNL     1       4.653   3.545  19.564  0.00  0.00    +0.000 C 
BRANCH  22  23
ATOM     23  C   UNL     1       5.186   3.795  18.168  0.00  0.00    +0.000 A 
ATOM     24  C   UNL     1       6.444   4.380  17.976  0.00  0.00    +0.000 A 
ATOM     25  C   UNL     1       6.946   4.587  16.686  0.00  0.00    +0.000 A 
ATOM     26  C   UNL     1       6.190   4.218  15.567  0.00  0.00    +0.000 A 
ATOM     27  C   UNL     1       4.921   3.652  15.753  0.00  0.00    +0.000 A 
ATOM     28  C   UNL     1       4.429   3.437  17.043  0.00  0.00    +0.000 A 
BRANCH  26  29
ATOM     29  N   UNL     1       6.689   4.407  14.246  0.00  0.00    +0.000 N 
ATOM     30  C   UNL     1       7.652   5.302  13.824  0.00  0.00    +0.000 A 
ATOM     31  C   UNL     1       7.800   5.132  12.469  0.00  0.00    +0.000 A 
ATOM     32  C   UNL     1       6.900   4.110  12.144  0.00  0.00    +0.000 A 
ATOM     33  N   UNL     1       6.233   3.658  13.207  0.00  0.00    +0.000 NA
ENDBRANCH  26  29
ENDBRANCH  22  23
ENDBRANCH   4  22
TORSDOF 7
ENDMDL
MODEL 9
REMARK VINA RESULT:      -7.4      1.001      1.039
REMARK  Name = 
REMARK  7 active torsions:
REMARK  status: ('A' for Active; 'I' for Inactive)
REMARK    1  A    between atoms: C_2  and  C_3
REMARK    2  A    between atoms: C_10  and  C_12
REMARK    3  A    between atoms: C_12  and  N_13
REMARK    4  A    between atoms: C_14  and  C_16
REMARK    5  A    between atoms: C_19  and  C_20
REMARK    6  A    between atoms: C_20  and  C_21
REMARK    7  A    between atoms: C_24  and  N_25
REMARK                            x       y       z     vdW  Elec       q    Type
REMARK                         _______ _______ _______ _____ _____    ______ ____
ROOT
ATOM      1  C   UNL     1       2.208   7.724  19.250  0.00  0.00    +0.000 A 
ATOM      2  C   UNL     1       1.559   7.730  20.474  0.00  0.00    +0.000 A 
ATOM      3  S   UNL     1       0.689   9.191  20.690  0.00  0.00    +0.000 S 
ATOM      4  C   UNL     1       1.230   9.725  19.148  0.00  0.00    +0.000 A 
ATOM      5  N   UNL     1       2.048   8.902  18.525  0.00  0.00    +0.000 NA
ENDROOT
BRANCH   1   7
ATOM      6  N   UNL     1       2.934   5.441  19.466  0.00  0.00    +0.000 N 
ATOM      7  C   UNL     1       3.033   6.618  18.741  0.00  0.00    +0.000 C 
ATOM      8  O   UNL     1       3.758   6.729  17.756  0.00  0.00    +0.000 OA
ATOM      9  H   UNL     1       2.119   5.309  20.048  0.00  0.00    +0.000 HD
BRANCH   6  10
ATOM     10  C   UNL     1       3.722   4.277  19.102  0.00  0.00    +0.000 C 
BRANCH  10  18
ATOM     11  C   UNL     1       6.352   4.069  17.333  0.00  0.00    +0.000 C 
ATOM     12  C   UNL     1       7.080   4.740  16.174  0.00  0.00    +0.000 C 
ATOM     13  C   UNL     1       6.212   4.470  14.952  0.00  0.00    +0.000 C 
ATOM     14  F   UNL     1       5.987   5.626  14.288  0.00  0.00    +0.000 F 
ATOM     15  F   UNL     1       6.847   3.631  14.104  0.00  0.00    +0.000 F 
ATOM     16  C   UNL     1       4.908   3.861  15.445  0.00  0.00    +0.000 C 
ATOM     17  N   UNL     1       4.935   4.025  16.889  0.00  0.00    +0.000 N 
ATOM     18  C   UNL     1       3.740   3.931  17.598  0.00  0.00    +0.000 C 
ATOM     19  O   UNL     1       2.701   3.592  17.025  0.00  0.00    +0.000 OA
BRANCH  11  21
ATOM     20  N   UNL     1       6.611   5.506  19.699  0.00  0.00    +0.000 NA
ATOM     21  C   UNL     1       6.493   4.854  18.626  0.00  0.00    +0.000 C 
ENDBRANCH  11  21
ENDBRANCH  10  18
ENDBRANCH   6  10
ENDBRANCH   1   7
BRANCH   4  22
ATOM     22  C   UNL     1       0.756  11.032  18.584  0.00  0.00    +0.000 C 
BRANCH  22  23
ATOM     23  C   UNL     1      -0.749  11.188  18.653  0.00  0.00    +0.000 A 
ATOM     24  C   UNL     1      -1.334  12.111  19.530  0.00  0.00    +0.000 A 
ATOM     25  C   UNL     1      -2.723  12.272  19.574  0.00  0.00    +0.000 A 
ATOM     26  C   UNL     1      -3.550  11.502  18.745  0.00  0.00    +0.000 A 
ATOM     27  C   UNL     1      -2.971  10.562  17.882  0.00  0.00    +0.000 A 
ATOM     28  C   UNL     1      -1.582  10.413  17.833  0.00  0.00    +0.000 A 
BRANCH  26  29
ATOM     29  N   UNL     1      -4.965  11.662  18.764  0.00  0.00    +0.000 N 
ATOM     30  C   UNL     1      -5.695  12.686  19.335  0.00  0.00    +0.000 A 
ATOM     31  C   UNL     1      -7.023  12.413  19.113  0.00  0.00    +0.000 A 
ATOM     32  C   UNL     1      -7.018  11.212  18.393  0.00  0.00    +0.000 A 
ATOM     33  N   UNL     1      -5.784  10.756  18.167  0.00  0.00    +0.000 NA
ENDBRANCH  26  29
ENDBRANCH  22  23
ENDBRANCH   4  22
TORSDOF 7
ENDMDL
