MODEL 1
REMARK VINA RESULT:      -8.4      0.000      0.000
REMARK  Name = 
REMARK  8 active torsions:
REMARK  status: ('A' for Active; 'I' for Inactive)
REMARK    1  A    between atoms: C_1  and  C_2
REMARK    2  A    between atoms: C_5  and  S_6
REMARK    3  A    between atoms: S_6  and  N_9
REMARK    4  A    between atoms: C_13  and  C_14
REMARK    5  A    between atoms: C_14  and  N_15
REMARK    6  A    between atoms: C_16  and  C_18
REMARK    7  A    between atoms: N_20  and  C_21
REMARK    8  A    between atoms: C_21  and  C_22
REMARK                            x       y       z     vdW  Elec       q    Type
REMARK                         _______ _______ _______ _____ _____    ______ ____
ROOT
ATOM      1  N   UNL     1       2.643   3.485  19.171  0.00  0.00    +0.000 NA
ATOM      2  C   UNL     1       2.718   2.592  20.320  0.00  0.00    +0.000 C 
ATOM      3  C   UNL     1       1.371   2.836  20.982  0.00  0.00    +0.000 C 
ATOM      4  C   UNL     1       1.165   4.337  20.817  0.00  0.00    +0.000 C 
ATOM      5  C   UNL     1       1.888   4.709  19.502  0.00  0.00    +0.000 C 
ENDROOT
BRANCH   1   6
ATOM      6  S   UNL     1       3.388   3.191  17.716  0.00  0.00    +0.000 S 
ATOM      7  O   UNL     1       2.425   3.495  16.679  0.00  0.00    +0.000 OA
ATOM      8  O   UNL     1       4.041   1.901  17.786  0.00  0.00    +0.000 OA
BRANCH   6  13
ATOM      9  C   UNL     1       7.686   7.476  17.515  0.00  0.00    +0.000 C 
ATOM     10  C   UNL     1       6.645   6.395  17.528  0.00  0.00    +0.000 A 
ATOM     11  C   UNL     1       5.616   6.375  16.576  0.00  0.00    +0.000 A 
ATOM     12  C   UNL     1       4.630   5.387  16.618  0.00  0.00    +0.000 A 
ATOM     13  C   UNL     1       4.682   4.404  17.606  0.00  0.00    +0.000 A 
ATOM     14  C   UNL     1       5.704   4.412  18.562  0.00  0.00    +0.000 A 
ATOM     15  C   UNL     1       6.681   5.407  18.519  0.00  0.00    +0.000 A 
ENDBRANCH   6  13
ENDBRANCH   1   6
BRANCH   5  16
ATOM     16  C   UNL     1       2.807   5.928  19.688  0.00  0.00    +0.000 C 
BRANCH  16  17
ATOM     17  N   UNL     1       2.304   7.130  19.049  0.00  0.00    +0.000 N 
ATOM     18  C   UNL     1       1.733   8.161  19.764  0.00  0.00    +0.000 C 
ATOM     19  O   UNL     1       1.497   8.166  20.963  0.00  0.00    +0.000 OA
ATOM     20  H   UNL     1       2.545   7.342  18.082  0.00  0.00    +0.000 HD
BRANCH  18  21
ATOM     21  C   UNL     1       1.369   9.389  18.896  0.00  0.00    +0.000 C 
ATOM     22  O   UNL     1       1.961   9.578  17.840  0.00  0.00    +0.000 OA
ATOM     23  N   UNL     1       0.361  10.165  19.413  0.00  0.00    +0.000 N 
ATOM     24  H   UNL     1      -0.044   9.874  20.298  0.00  0.00    +0.000 HD
BRANCH  23  25
ATOM     25  C   UNL     1      -0.183  11.303  18.717  0.00  0.00    +0.000 C 
BRANCH  25  26
ATOM     26  C   UNL     1      -1.513  10.939  18.141  0.00  0.00    +0.000 A 
ATOM     27  C   UNL     1      -1.796   9.974  17.192  0.00  0.00    +0.000 A 
ATOM     28  C   UNL     1      -3.191   9.869  16.922  0.00  0.00    +0.000 A 
ATOM     29  C   UNL     1      -3.929  10.761  17.667  0.00  0.00    +0.000 A 
ATOM     30  S   UNL     1      -2.940  11.723  18.679  0.00  0.00    +0.000 S 
ENDBRANCH  25  26
ENDBRANCH  23  25
ENDBRANCH  18  21
ENDBRANCH  16  17
ENDBRANCH   5  16
TORSDOF 7
ENDMDL
MODEL 2
REMARK VINA RESULT:      -8.0      1.741      2.304
REMARK  Name = 
REMARK  8 active torsions:
REMARK  status: ('A' for Active; 'I' for Inactive)
REMARK    1  A    between atoms: C_1  and  C_2
REMARK    2  A    between atoms: C_5  and  S_6
REMARK    3  A    between atoms: S_6  and  N_9
REMARK    4  A    between atoms: C_13  and  C_14
REMARK    5  A    between atoms: C_14  and  N_15
REMARK    6  A    between atoms: C_16  and  C_18
REMARK    7  A    between atoms: N_20  and  C_21
REMARK    8  A    between atoms: C_21  and  C_22
REMARK                            x       y       z     vdW  Elec       q    Type
REMARK                         _______ _______ _______ _____ _____    ______ ____
ROOT
ATOM      1  N   UNL     1       2.596   3.339  19.263  0.00  0.00    +0.000 NA
ATOM      2  C   UNL     1       2.650   2.484  20.443  0.00  0.00    +0.000 C 
ATOM      3  C   UNL     1       1.317   2.797  21.104  0.00  0.00    +0.000 C 
ATOM      4  C   UNL     1       1.161   4.298  20.888  0.00  0.00    +0.000 C 
ATOM      5  C   UNL     1       1.885   4.599  19.556  0.00  0.00    +0.000 C 
ENDROOT
BRANCH   1   6
ATOM      6  S   UNL     1       3.320   2.968  17.815  0.00  0.00    +0.000 S 
ATOM      7  O   UNL     1       2.358   3.266  16.775  0.00  0.00    +0.000 OA
ATOM      8  O   UNL     1       3.931   1.662  17.928  0.00  0.00    +0.000 OA
BRANCH   6  13
ATOM      9  C   UNL     1       7.719   7.130  17.365  0.00  0.00    +0.000 C 
ATOM     10  C   UNL     1       6.658   6.071  17.451  0.00  0.00    +0.000 A 
ATOM     11  C   UNL     1       5.830   5.791  16.355  0.00  0.00    +0.000 A 
ATOM     12  C   UNL     1       4.821   4.831  16.456  0.00  0.00    +0.000 A 
ATOM     13  C   UNL     1       4.651   4.134  17.652  0.00  0.00    +0.000 A 
ATOM     14  C   UNL     1       5.471   4.404  18.753  0.00  0.00    +0.000 A 
ATOM     15  C   UNL     1       6.471   5.371  18.649  0.00  0.00    +0.000 A 
ENDBRANCH   6  13
ENDBRANCH   1   6
BRANCH   5  16
ATOM     16  C   UNL     1       2.847   5.792  19.693  0.00  0.00    +0.000 C 
BRANCH  16  17
ATOM     17  N   UNL     1       2.204   7.075  19.475  0.00  0.00    +0.000 N 
ATOM     18  C   UNL     1       2.583   7.925  18.457  0.00  0.00    +0.000 C 
ATOM     19  O   UNL     1       3.526   7.767  17.697  0.00  0.00    +0.000 OA
ATOM     20  H   UNL     1       1.320   7.295  19.929  0.00  0.00    +0.000 HD
BRANCH  18  21
ATOM     21  C   UNL     1       1.692   9.184  18.339  0.00  0.00    +0.000 C 
ATOM     22  O   UNL     1       1.638   9.787  17.273  0.00  0.00    +0.000 OA
ATOM     23  N   UNL     1       1.008   9.499  19.486  0.00  0.00    +0.000 N 
ATOM     24  H   UNL     1       1.146   8.895  20.292  0.00  0.00    +0.000 HD
BRANCH  23  25
ATOM     25  C   UNL     1       0.061  10.582  19.559  0.00  0.00    +0.000 C 
BRANCH  25  26
ATOM     26  C   UNL     1      -0.446  10.701  20.960  0.00  0.00    +0.000 A 
ATOM     27  C   UNL     1      -0.346   9.777  21.983  0.00  0.00    +0.000 A 
ATOM     28  C   UNL     1      -0.900  10.258  23.206  0.00  0.00    +0.000 A 
ATOM     29  C   UNL     1      -1.412  11.529  23.075  0.00  0.00    +0.000 A 
ATOM     30  S   UNL     1      -1.230  12.133  21.485  0.00  0.00    +0.000 S 
ENDBRANCH  25  26
ENDBRANCH  23  25
ENDBRANCH  18  21
ENDBRANCH  16  17
ENDBRANCH   5  16
TORSDOF 7
ENDMDL
MODEL 3
REMARK VINA RESULT:      -8.0      0.638      1.149
REMARK  Name = 
REMARK  8 active torsions:
REMARK  status: ('A' for Active; 'I' for Inactive)
REMARK    1  A    between atoms: C_1  and  C_2
REMARK    2  A    between atoms: C_5  and  S_6
REMARK    3  A    between atoms: S_6  and  N_9
REMARK    4  A    between atoms: C_13  and  C_14
REMARK    5  A    between atoms: C_14  and  N_15
REMARK    6  A    between atoms: C_16  and  C_18
REMARK    7  A    between atoms: N_20  and  C_21
REMARK    8  A    between atoms: C_21  and  C_22
REMARK                            x       y       z     vdW  Elec       q    Type
REMARK                         _______ _______ _______ _____ _____    ______ ____
ROOT
ATOM      1  N   UNL     1       3.034   3.514  19.742  0.00  0.00    +0.000 NA
ATOM      2  C   UNL     1       2.679   2.902  21.016  0.00  0.00    +0.000 C 
ATOM      3  C   UNL     1       1.186   3.180  21.080  0.00  0.00    +0.000 C 
ATOM      4  C   UNL     1       1.065   4.589  20.509  0.00  0.00    +0.000 C 
ATOM      5  C   UNL     1       2.220   4.719  19.489  0.00  0.00    +0.000 C 
ENDROOT
BRANCH   1   6
ATOM      6  S   UNL     1       4.255   2.967  18.758  0.00  0.00    +0.000 S 
ATOM      7  O   UNL     1       3.640   2.546  17.517  0.00  0.00    +0.000 OA
ATOM      8  O   UNL     1       5.099   2.076  19.524  0.00  0.00    +0.000 OA
BRANCH   6  13
ATOM      9  C   UNL     1       7.765   7.730  17.390  0.00  0.00    +0.000 C 
ATOM     10  C   UNL     1       6.873   6.580  17.758  0.00  0.00    +0.000 A 
ATOM     11  C   UNL     1       7.050   5.891  18.966  0.00  0.00    +0.000 A 
ATOM     12  C   UNL     1       6.240   4.798  19.284  0.00  0.00    +0.000 A 
ATOM     13  C   UNL     1       5.237   4.404  18.398  0.00  0.00    +0.000 A 
ATOM     14  C   UNL     1       5.051   5.083  17.190  0.00  0.00    +0.000 A 
ATOM     15  C   UNL     1       5.869   6.168  16.874  0.00  0.00    +0.000 A 
ENDBRANCH   6  13
ENDBRANCH   1   6
BRANCH   5  16
ATOM     16  C   UNL     1       3.018   6.017  19.702  0.00  0.00    +0.000 C 
BRANCH  16  17
ATOM     17  N   UNL     1       2.462   7.155  18.994  0.00  0.00    +0.000 N 
ATOM     18  C   UNL     1       1.820   8.186  19.646  0.00  0.00    +0.000 C 
ATOM     19  O   UNL     1       1.558   8.236  20.838  0.00  0.00    +0.000 OA
ATOM     20  H   UNL     1       2.712   7.333  18.023  0.00  0.00    +0.000 HD
BRANCH  18  21
ATOM     21  C   UNL     1       1.407   9.348  18.711  0.00  0.00    +0.000 C 
ATOM     22  O   UNL     1       1.887   9.415  17.585  0.00  0.00    +0.000 OA
ATOM     23  N   UNL     1       0.488  10.210  19.256  0.00  0.00    +0.000 N 
ATOM     24  H   UNL     1       0.172  10.016  20.202  0.00  0.00    +0.000 HD
BRANCH  23  25
ATOM     25  C   UNL     1      -0.088  11.305  18.518  0.00  0.00    +0.000 C 
BRANCH  25  26
ATOM     26  C   UNL     1      -1.460  10.926  18.066  0.00  0.00    +0.000 A 
ATOM     27  C   UNL     1      -1.819   9.943  17.161  0.00  0.00    +0.000 A 
ATOM     28  C   UNL     1      -3.232   9.828  17.014  0.00  0.00    +0.000 A 
ATOM     29  C   UNL     1      -3.907  10.731  17.803  0.00  0.00    +0.000 A 
ATOM     30  S   UNL     1      -2.840  11.714  18.710  0.00  0.00    +0.000 S 
ENDBRANCH  25  26
ENDBRANCH  23  25
ENDBRANCH  18  21
ENDBRANCH  16  17
ENDBRANCH   5  16
TORSDOF 7
ENDMDL
MODEL 4
REMARK VINA RESULT:      -8.0      1.797      2.709
REMARK  Name = 
REMARK  8 active torsions:
REMARK  status: ('A' for Active; 'I' for Inactive)
REMARK    1  A    between atoms: C_1  and  C_2
REMARK    2  A    between atoms: C_5  and  S_6
REMARK    3  A    between atoms: S_6  and  N_9
REMARK    4  A    between atoms: C_13  and  C_14
REMARK    5  A    between atoms: C_14  and  N_15
REMARK    6  A    between atoms: C_16  and  C_18
REMARK    7  A    between atoms: N_20  and  C_21
REMARK    8  A    between atoms: C_21  and  C_22
REMARK                            x       y       z     vdW  Elec       q    Type
REMARK                         _______ _______ _______ _____ _____    ______ ____
ROOT
ATOM      1  N   UNL     1       2.591   3.476  19.108  0.00  0.00    +0.000 NA
ATOM      2  C   UNL     1       2.588   2.569  20.250  0.00  0.00    +0.000 C 
ATOM      3  C   UNL     1       1.231   2.866  20.869  0.00  0.00    +0.000 C 
ATOM      4  C   UNL     1       1.097   4.377  20.714  0.00  0.00    +0.000 C 
ATOM      5  C   UNL     1       1.879   4.729  19.428  0.00  0.00    +0.000 C 
ENDROOT
BRANCH   1   6
ATOM      6  S   UNL     1       3.371   3.163  17.676  0.00  0.00    +0.000 S 
ATOM      7  O   UNL     1       2.431   3.449  16.613  0.00  0.00    +0.000 OA
ATOM      8  O   UNL     1       4.025   1.876  17.781  0.00  0.00    +0.000 OA
BRANCH   6  13
ATOM      9  C   UNL     1       7.664   7.454  17.519  0.00  0.00    +0.000 C 
ATOM     10  C   UNL     1       6.625   6.372  17.521  0.00  0.00    +0.000 A 
ATOM     11  C   UNL     1       5.601   6.355  16.564  0.00  0.00    +0.000 A 
ATOM     12  C   UNL     1       4.616   5.366  16.596  0.00  0.00    +0.000 A 
ATOM     13  C   UNL     1       4.664   4.378  17.579  0.00  0.00    +0.000 A 
ATOM     14  C   UNL     1       5.680   4.383  18.541  0.00  0.00    +0.000 A 
ATOM     15  C   UNL     1       6.656   5.380  18.508  0.00  0.00    +0.000 A 
ENDBRANCH   6  13
ENDBRANCH   1   6
BRANCH   5  16
ATOM     16  C   UNL     1       2.844   5.905  19.658  0.00  0.00    +0.000 C 
BRANCH  16  17
ATOM     17  N   UNL     1       2.426   7.127  18.998  0.00  0.00    +0.000 N 
ATOM     18  C   UNL     1       1.785   8.146  19.671  0.00  0.00    +0.000 C 
ATOM     19  O   UNL     1       1.413   8.121  20.834  0.00  0.00    +0.000 OA
ATOM     20  H   UNL     1       2.778   7.363  18.072  0.00  0.00    +0.000 HD
BRANCH  18  21
ATOM     21  C   UNL     1       1.532   9.400  18.801  0.00  0.00    +0.000 C 
ATOM     22  O   UNL     1       1.858   9.390  17.619  0.00  0.00    +0.000 OA
ATOM     23  N   UNL     1       0.922  10.434  19.467  0.00  0.00    +0.000 N 
ATOM     24  H   UNL     1       0.700  10.290  20.448  0.00  0.00    +0.000 HD
BRANCH  23  25
ATOM     25  C   UNL     1       0.523  11.655  18.815  0.00  0.00    +0.000 C 
BRANCH  25  26
ATOM     26  C   UNL     1       1.619  12.663  18.947  0.00  0.00    +0.000 A 
ATOM     27  C   UNL     1       2.387  13.224  17.943  0.00  0.00    +0.000 A 
ATOM     28  C   UNL     1       3.305  14.195  18.438  0.00  0.00    +0.000 A 
ATOM     29  C   UNL     1       3.216  14.339  19.804  0.00  0.00    +0.000 A 
ATOM     30  S   UNL     1       2.035  13.303  20.482  0.00  0.00    +0.000 S 
ENDBRANCH  25  26
ENDBRANCH  23  25
ENDBRANCH  18  21
ENDBRANCH  16  17
ENDBRANCH   5  16
TORSDOF 7
ENDMDL
MODEL 5
REMARK VINA RESULT:      -7.9      0.636      1.333
REMARK  Name = 
REMARK  8 active torsions:
REMARK  status: ('A' for Active; 'I' for Inactive)
REMARK    1  A    between atoms: C_1  and  C_2
REMARK    2  A    between atoms: C_5  and  S_6
REMARK    3  A    between atoms: S_6  and  N_9
REMARK    4  A    between atoms: C_13  and  C_14
REMARK    5  A    between atoms: C_14  and  N_15
REMARK    6  A    between atoms: C_16  and  C_18
REMARK    7  A    between atoms: N_20  and  C_21
REMARK    8  A    between atoms: C_21  and  C_22
REMARK                            x       y       z     vdW  Elec       q    Type
REMARK                         _______ _______ _______ _____ _____    ______ ____
ROOT
ATOM      1  N   UNL     1       2.700   3.510  19.116  0.00  0.00    +0.000 NA
ATOM      2  C   UNL     1       2.690   2.517  20.183  0.00  0.00    +0.000 C 
ATOM      3  C   UNL     1       1.310   2.732  20.784  0.00  0.00    +0.000 C 
ATOM      4  C   UNL     1       1.141   4.247  20.743  0.00  0.00    +0.000 C 
ATOM      5  C   UNL     1       1.947   4.717  19.511  0.00  0.00    +0.000 C 
ENDROOT
BRANCH   1   6
ATOM      6  S   UNL     1       3.526   3.329  17.687  0.00  0.00    +0.000 S 
ATOM      7  O   UNL     1       2.588   3.605  16.620  0.00  0.00    +0.000 OA
ATOM      8  O   UNL     1       4.268   2.087  17.739  0.00  0.00    +0.000 OA
BRANCH   6  13
ATOM      9  C   UNL     1       7.769   7.668  17.483  0.00  0.00    +0.000 C 
ATOM     10  C   UNL     1       6.702   6.616  17.572  0.00  0.00    +0.000 A 
ATOM     11  C   UNL     1       6.778   5.592  18.525  0.00  0.00    +0.000 A 
ATOM     12  C   UNL     1       5.801   4.596  18.576  0.00  0.00    +0.000 A 
ATOM     13  C   UNL     1       4.731   4.634  17.681  0.00  0.00    +0.000 A 
ATOM     14  C   UNL     1       4.643   5.652  16.725  0.00  0.00    +0.000 A 
ATOM     15  C   UNL     1       5.628   6.639  16.673  0.00  0.00    +0.000 A 
ENDBRANCH   6  13
ENDBRANCH   1   6
BRANCH   5  16
ATOM     16  C   UNL     1       2.875   5.894  19.860  0.00  0.00    +0.000 C 
BRANCH  16  17
ATOM     17  N   UNL     1       2.163   7.137  20.091  0.00  0.00    +0.000 N 
ATOM     18  C   UNL     1       1.967   8.070  19.094  0.00  0.00    +0.000 C 
ATOM     19  O   UNL     1       2.426   8.026  17.963  0.00  0.00    +0.000 OA
ATOM     20  H   UNL     1       1.605   7.265  20.933  0.00  0.00    +0.000 HD
BRANCH  18  21
ATOM     21  C   UNL     1       1.088   9.266  19.531  0.00  0.00    +0.000 C 
ATOM     22  O   UNL     1       0.649   9.306  20.674  0.00  0.00    +0.000 OA
ATOM     23  N   UNL     1       0.898  10.211  18.554  0.00  0.00    +0.000 N 
ATOM     24  H   UNL     1       1.337  10.044  17.653  0.00  0.00    +0.000 HD
BRANCH  23  25
ATOM     25  C   UNL     1       0.183  11.440  18.784  0.00  0.00    +0.000 C 
BRANCH  25  26
ATOM     26  C   UNL     1      -1.253  11.250  18.415  0.00  0.00    +0.000 A 
ATOM     27  C   UNL     1      -1.783  10.402  17.460  0.00  0.00    +0.000 A 
ATOM     28  C   UNL     1      -3.207  10.449  17.421  0.00  0.00    +0.000 A 
ATOM     29  C   UNL     1      -3.719  11.336  18.340  0.00  0.00    +0.000 A 
ATOM     30  S   UNL     1      -2.486  12.112  19.238  0.00  0.00    +0.000 S 
ENDBRANCH  25  26
ENDBRANCH  23  25
ENDBRANCH  18  21
ENDBRANCH  16  17
ENDBRANCH   5  16
TORSDOF 7
ENDMDL
MODEL 6
REMARK VINA RESULT:      -7.8      2.085      2.605
REMARK  Name = 
REMARK  8 active torsions:
REMARK  status: ('A' for Active; 'I' for Inactive)
REMARK    1  A    between atoms: C_1  and  C_2
REMARK    2  A    between atoms: C_5  and  S_6
REMARK    3  A    between atoms: S_6  and  N_9
REMARK    4  A    between atoms: C_13  and  C_14
REMARK    5  A    between atoms: C_14  and  N_15
REMARK    6  A    between atoms: C_16  and  C_18
REMARK    7  A    between atoms: N_20  and  C_21
REMARK    8  A    between atoms: C_21  and  C_22
REMARK                            x       y       z     vdW  Elec       q    Type
REMARK                         _______ _______ _______ _____ _____    ______ ____
ROOT
ATOM      1  N   UNL     1       4.411   4.194  18.802  0.00  0.00    +0.000 NA
ATOM      2  C   UNL     1       4.557   2.894  19.446  0.00  0.00    +0.000 C 
ATOM      3  C   UNL     1       3.315   2.170  18.953  0.00  0.00    +0.000 C 
ATOM      4  C   UNL     1       2.242   3.253  18.982  0.00  0.00    +0.000 C 
ATOM      5  C   UNL     1       2.989   4.578  18.708  0.00  0.00    +0.000 C 
ENDROOT
BRANCH   1   6
ATOM      6  S   UNL     1       5.687   5.142  18.324  0.00  0.00    +0.000 S 
ATOM      7  O   UNL     1       6.862   4.646  19.009  0.00  0.00    +0.000 OA
ATOM      8  O   UNL     1       5.289   6.530  18.415  0.00  0.00    +0.000 OA
BRANCH   6  13
ATOM      9  C   UNL     1       6.492   3.716  12.476  0.00  0.00    +0.000 C 
ATOM     10  C   UNL     1       6.284   4.113  13.908  0.00  0.00    +0.000 A 
ATOM     11  C   UNL     1       7.269   4.824  14.609  0.00  0.00    +0.000 A 
ATOM     12  C   UNL     1       7.083   5.157  15.952  0.00  0.00    +0.000 A 
ATOM     13  C   UNL     1       5.899   4.793  16.594  0.00  0.00    +0.000 A 
ATOM     14  C   UNL     1       4.908   4.084  15.907  0.00  0.00    +0.000 A 
ATOM     15  C   UNL     1       5.104   3.747  14.567  0.00  0.00    +0.000 A 
ENDBRANCH   6  13
ENDBRANCH   1   6
BRANCH   5  16
ATOM     16  C   UNL     1       2.609   5.662  19.731  0.00  0.00    +0.000 C 
BRANCH  16  17
ATOM     17  N   UNL     1       2.178   6.904  19.118  0.00  0.00    +0.000 N 
ATOM     18  C   UNL     1       1.764   7.989  19.862  0.00  0.00    +0.000 C 
ATOM     19  O   UNL     1       1.620   8.020  21.075  0.00  0.00    +0.000 OA
ATOM     20  H   UNL     1       2.366   7.089  18.134  0.00  0.00    +0.000 HD
BRANCH  18  21
ATOM     21  C   UNL     1       1.457   9.243  19.011  0.00  0.00    +0.000 C 
ATOM     22  O   UNL     1       2.098   9.449  17.986  0.00  0.00    +0.000 OA
ATOM     23  N   UNL     1       0.438  10.021  19.501  0.00  0.00    +0.000 N 
ATOM     24  H   UNL     1      -0.010   9.715  20.360  0.00  0.00    +0.000 HD
BRANCH  23  25
ATOM     25  C   UNL     1      -0.059  11.184  18.812  0.00  0.00    +0.000 C 
BRANCH  25  26
ATOM     26  C   UNL     1      -1.410  10.884  18.250  0.00  0.00    +0.000 A 
ATOM     27  C   UNL     1      -1.748   9.938  17.300  0.00  0.00    +0.000 A 
ATOM     28  C   UNL     1      -3.150   9.898  17.045  0.00  0.00    +0.000 A 
ATOM     29  C   UNL     1      -3.837  10.819  17.802  0.00  0.00    +0.000 A 
ATOM     30  S   UNL     1      -2.794  11.730  18.808  0.00  0.00    +0.000 S 
ENDBRANCH  25  26
ENDBRANCH  23  25
ENDBRANCH  18  21
ENDBRANCH  16  17
ENDBRANCH   5  16
TORSDOF 7
ENDMDL
MODEL 7
REMARK VINA RESULT:      -7.7      1.657      2.121
REMARK  Name = 
REMARK  8 active torsions:
REMARK  status: ('A' for Active; 'I' for Inactive)
REMARK    1  A    between atoms: C_1  and  C_2
REMARK    2  A    between atoms: C_5  and  S_6
REMARK    3  A    between atoms: S_6  and  N_9
REMARK    4  A    between atoms: C_13  and  C_14
REMARK    5  A    between atoms: C_14  and  N_15
REMARK    6  A    between atoms: C_16  and  C_18
REMARK    7  A    between atoms: N_20  and  C_21
REMARK    8  A    between atoms: C_21  and  C_22
REMARK                            x       y       z     vdW  Elec       q    Type
REMARK                         _______ _______ _______ _____ _____    ______ ____
ROOT
ATOM      1  N   UNL     1       2.602   3.393  19.225  0.00  0.00    +0.000 NA
ATOM      2  C   UNL     1       2.744   2.546  20.404  0.00  0.00    +0.000 C 
ATOM      3  C   UNL     1       1.404   2.756  21.090  0.00  0.00    +0.000 C 
ATOM      4  C   UNL     1       1.128   4.241  20.877  0.00  0.00    +0.000 C 
ATOM      5  C   UNL     1       1.802   4.595  19.532  0.00  0.00    +0.000 C 
ENDROOT
BRANCH   1   6
ATOM      6  S   UNL     1       3.324   3.078  17.763  0.00  0.00    +0.000 S 
ATOM      7  O   UNL     1       2.350   3.383  16.737  0.00  0.00    +0.000 OA
ATOM      8  O   UNL     1       3.965   1.782  17.837  0.00  0.00    +0.000 OA
BRANCH   6  13
ATOM      9  C   UNL     1       7.655   7.323  17.453  0.00  0.00    +0.000 C 
ATOM     10  C   UNL     1       6.607   6.250  17.495  0.00  0.00    +0.000 A 
ATOM     11  C   UNL     1       5.609   6.180  16.513  0.00  0.00    +0.000 A 
ATOM     12  C   UNL     1       4.615   5.201  16.581  0.00  0.00    +0.000 A 
ATOM     13  C   UNL     1       4.629   4.276  17.625  0.00  0.00    +0.000 A 
ATOM     14  C   UNL     1       5.620   4.335  18.611  0.00  0.00    +0.000 A 
ATOM     15  C   UNL     1       6.605   5.321  18.542  0.00  0.00    +0.000 A 
ENDBRANCH   6  13
ENDBRANCH   1   6
BRANCH   5  16
ATOM     16  C   UNL     1       2.671   5.858  19.651  0.00  0.00    +0.000 C 
BRANCH  16  17
ATOM     17  N   UNL     1       2.041   6.919  20.415  0.00  0.00    +0.000 N 
ATOM     18  C   UNL     1       1.752   8.151  19.867  0.00  0.00    +0.000 C 
ATOM     19  O   UNL     1       2.058   8.533  18.747  0.00  0.00    +0.000 OA
ATOM     20  H   UNL     1       1.601   6.720  21.312  0.00  0.00    +0.000 HD
BRANCH  18  21
ATOM     21  C   UNL     1       0.980   9.089  20.824  0.00  0.00    +0.000 C 
ATOM     22  O   UNL     1       1.259   9.095  22.018  0.00  0.00    +0.000 OA
ATOM     23  N   UNL     1       0.034   9.868  20.207  0.00  0.00    +0.000 N 
ATOM     24  H   UNL     1      -0.077   9.760  19.203  0.00  0.00    +0.000 HD
BRANCH  23  25
ATOM     25  C   UNL     1      -0.732  10.868  20.908  0.00  0.00    +0.000 C 
BRANCH  25  26
ATOM     26  C   UNL     1      -0.564  12.185  20.223  0.00  0.00    +0.000 A 
ATOM     27  C   UNL     1      -0.307  12.426  18.886  0.00  0.00    +0.000 A 
ATOM     28  C   UNL     1      -0.263  13.817  18.582  0.00  0.00    +0.000 A 
ATOM     29  C   UNL     1      -0.479  14.596  19.696  0.00  0.00    +0.000 A 
ATOM     30  S   UNL     1      -0.727  13.650  21.101  0.00  0.00    +0.000 S 
ENDBRANCH  25  26
ENDBRANCH  23  25
ENDBRANCH  18  21
ENDBRANCH  16  17
ENDBRANCH   5  16
TORSDOF 7
ENDMDL
MODEL 8
REMARK VINA RESULT:      -7.7      1.917      2.443
REMARK  Name = 
REMARK  8 active torsions:
REMARK  status: ('A' for Active; 'I' for Inactive)
REMARK    1  A    between atoms: C_1  and  C_2
REMARK    2  A    between atoms: C_5  and  S_6
REMARK    3  A    between atoms: S_6  and  N_9
REMARK    4  A    between atoms: C_13  and  C_14
REMARK    5  A    between atoms: C_14  and  N_15
REMARK    6  A    between atoms: C_16  and  C_18
REMARK    7  A    between atoms: N_20  and  C_21
REMARK    8  A    between atoms: C_21  and  C_22
REMARK                            x       y       z     vdW  Elec       q    Type
REMARK                         _______ _______ _______ _____ _____    ______ ____
ROOT
ATOM      1  N   UNL     1       2.643   3.600  19.168  0.00  0.00    +0.000 NA
ATOM      2  C   UNL     1       2.718   2.703  20.314  0.00  0.00    +0.000 C 
ATOM      3  C   UNL     1       1.366   2.936  20.970  0.00  0.00    +0.000 C 
ATOM      4  C   UNL     1       1.152   4.437  20.810  0.00  0.00    +0.000 C 
ATOM      5  C   UNL     1       1.879   4.819  19.500  0.00  0.00    +0.000 C 
ENDROOT
BRANCH   1   6
ATOM      6  S   UNL     1       3.397   3.316  17.715  0.00  0.00    +0.000 S 
ATOM      7  O   UNL     1       2.440   3.630  16.675  0.00  0.00    +0.000 OA
ATOM      8  O   UNL     1       4.047   2.025  17.780  0.00  0.00    +0.000 OA
BRANCH   6  13
ATOM      9  C   UNL     1       7.707   7.592  17.580  0.00  0.00    +0.000 C 
ATOM     10  C   UNL     1       6.662   6.514  17.576  0.00  0.00    +0.000 A 
ATOM     11  C   UNL     1       5.624   6.521  16.634  0.00  0.00    +0.000 A 
ATOM     12  C   UNL     1       4.634   5.536  16.661  0.00  0.00    +0.000 A 
ATOM     13  C   UNL     1       4.694   4.527  17.623  0.00  0.00    +0.000 A 
ATOM     14  C   UNL     1       5.725   4.508  18.568  0.00  0.00    +0.000 A 
ATOM     15  C   UNL     1       6.705   5.501  18.541  0.00  0.00    +0.000 A 
ENDBRANCH   6  13
ENDBRANCH   1   6
BRANCH   5  16
ATOM     16  C   UNL     1       2.790   6.042  19.695  0.00  0.00    +0.000 C 
BRANCH  16  17
ATOM     17  N   UNL     1       2.167   7.291  19.297  0.00  0.00    +0.000 N 
ATOM     18  C   UNL     1       1.566   8.137  20.205  0.00  0.00    +0.000 C 
ATOM     19  O   UNL     1       1.399   7.919  21.396  0.00  0.00    +0.000 OA
ATOM     20  H   UNL     1       2.337   7.683  18.373  0.00  0.00    +0.000 HD
BRANCH  18  21
ATOM     21  C   UNL     1       1.067   9.462  19.581  0.00  0.00    +0.000 C 
ATOM     22  O   UNL     1       0.874   9.524  18.372  0.00  0.00    +0.000 OA
ATOM     23  N   UNL     1       0.863  10.470  20.489  0.00  0.00    +0.000 N 
ATOM     24  H   UNL     1       1.057  10.265  21.465  0.00  0.00    +0.000 HD
BRANCH  23  25
ATOM     25  C   UNL     1       0.320  11.754  20.122  0.00  0.00    +0.000 C 
BRANCH  25  26
ATOM     26  C   UNL     1      -0.382  12.346  21.301  0.00  0.00    +0.000 A 
ATOM     27  C   UNL     1      -1.349  11.763  22.099  0.00  0.00    +0.000 A 
ATOM     28  C   UNL     1      -1.755  12.611  23.170  0.00  0.00    +0.000 A 
ATOM     29  C   UNL     1      -1.092  13.817  23.152  0.00  0.00    +0.000 A 
ATOM     30  S   UNL     1       0.007  13.925  21.845  0.00  0.00    +0.000 S 
ENDBRANCH  25  26
ENDBRANCH  23  25
ENDBRANCH  18  21
ENDBRANCH  16  17
ENDBRANCH   5  16
TORSDOF 7
ENDMDL
MODEL 9
REMARK VINA RESULT:      -7.7      1.700      2.790
REMARK  Name = 
REMARK  8 active torsions:
REMARK  status: ('A' for Active; 'I' for Inactive)
REMARK    1  A    between atoms: C_1  and  C_2
REMARK    2  A    between atoms: C_5  and  S_6
REMARK    3  A    between atoms: S_6  and  N_9
REMARK    4  A    between atoms: C_13  and  C_14
REMARK    5  A    between atoms: C_14  and  N_15
REMARK    6  A    between atoms: C_16  and  C_18
REMARK    7  A    between atoms: N_20  and  C_21
REMARK    8  A    between atoms: C_21  and  C_22
REMARK                            x       y       z     vdW  Elec       q    Type
REMARK                         _______ _______ _______ _____ _____    ______ ____
ROOT
ATOM      1  N   UNL     1       2.681   3.523  19.192  0.00  0.00    +0.000 NA
ATOM      2  C   UNL     1       2.748   2.546  20.272  0.00  0.00    +0.000 C 
ATOM      3  C   UNL     1       1.385   2.718  20.922  0.00  0.00    +0.000 C 
ATOM      4  C   UNL     1       1.157   4.225  20.867  0.00  0.00    +0.000 C 
ATOM      5  C   UNL     1       1.898   4.707  19.599  0.00  0.00    +0.000 C 
ENDROOT
BRANCH   1   6
ATOM      6  S   UNL     1       3.458   3.351  17.734  0.00  0.00    +0.000 S 
ATOM      7  O   UNL     1       2.491   3.654  16.701  0.00  0.00    +0.000 OA
ATOM      8  O   UNL     1       4.184   2.099  17.746  0.00  0.00    +0.000 OA
BRANCH   6  13
ATOM      9  C   UNL     1       7.760   7.628  17.466  0.00  0.00    +0.000 C 
ATOM     10  C   UNL     1       6.678   6.593  17.570  0.00  0.00    +0.000 A 
ATOM     11  C   UNL     1       6.729   5.595  18.553  0.00  0.00    +0.000 A 
ATOM     12  C   UNL     1       5.738   4.613  18.618  0.00  0.00    +0.000 A 
ATOM     13  C   UNL     1       4.681   4.640  17.708  0.00  0.00    +0.000 A 
ATOM     14  C   UNL     1       4.618   5.631  16.723  0.00  0.00    +0.000 A 
ATOM     15  C   UNL     1       5.616   6.604  16.657  0.00  0.00    +0.000 A 
ENDBRANCH   6  13
ENDBRANCH   1   6
BRANCH   5  16
ATOM     16  C   UNL     1       2.793   5.922  19.895  0.00  0.00    +0.000 C 
BRANCH  16  17
ATOM     17  N   UNL     1       2.045   7.144  20.120  0.00  0.00    +0.000 N 
ATOM     18  C   UNL     1       2.023   8.174  19.203  0.00  0.00    +0.000 C 
ATOM     19  O   UNL     1       2.675   8.237  18.171  0.00  0.00    +0.000 OA
ATOM     20  H   UNL     1       1.346   7.196  20.859  0.00  0.00    +0.000 HD
BRANCH  18  21
ATOM     21  C   UNL     1       1.074   9.331  19.594  0.00  0.00    +0.000 C 
ATOM     22  O   UNL     1       0.461   9.277  20.654  0.00  0.00    +0.000 OA
ATOM     23  N   UNL     1       1.029  10.356  18.681  0.00  0.00    +0.000 N 
ATOM     24  H   UNL     1       1.605  10.264  17.849  0.00  0.00    +0.000 HD
BRANCH  23  25
ATOM     25  C   UNL     1       0.273  11.563  18.898  0.00  0.00    +0.000 C 
BRANCH  25  26
ATOM     26  C   UNL     1       1.174  12.744  18.735  0.00  0.00    +0.000 A 
ATOM     27  C   UNL     1       2.476  12.765  18.269  0.00  0.00    +0.000 A 
ATOM     28  C   UNL     1       3.007  14.086  18.199  0.00  0.00    +0.000 A 
ATOM     29  C   UNL     1       2.098  15.030  18.620  0.00  0.00    +0.000 A 
ATOM     30  S   UNL     1       0.617  14.323  19.104  0.00  0.00    +0.000 S 
ENDBRANCH  25  26
ENDBRANCH  23  25
ENDBRANCH  18  21
ENDBRANCH  16  17
ENDBRANCH   5  16
TORSDOF 7
ENDMDL
