MODEL 1
REMARK VINA RESULT:      -7.6      0.000      0.000
REMARK  Name = 
REMARK  5 active torsions:
REMARK  status: ('A' for Active; 'I' for Inactive)
REMARK    1  A    between atoms: N_1  and  C_2
REMARK    2  A    between atoms: C_2  and  C_3
REMARK    3  A    between atoms: C_2  and  C_16
REMARK    4  A    between atoms: C_3  and  C_4
REMARK    5  A    between atoms: C_16  and  C_17
REMARK                            x       y       z     vdW  Elec       q    Type
REMARK                         _______ _______ _______ _____ _____    ______ ____
ROOT
ATOM      1  C   UNL     1       4.616   2.177  19.143  0.00  0.00    +0.000 C 
ENDROOT
BRANCH   1   2
ATOM      2  N   UNL     1       5.195   1.645  20.389  0.00  0.00    +0.000 NA
ATOM      3  H   UNL     1       4.931   0.670  20.520  0.00  0.00    +0.000 HD
ATOM      4  H   UNL     1       4.848   2.162  21.196  0.00  0.00    +0.000 HD
ENDBRANCH   1   2
BRANCH   1   5
ATOM      5  C   UNL     1       3.100   1.894  19.108  0.00  0.00    +0.000 C 
BRANCH   5   6
ATOM      6  C   UNL     1       2.327   2.765  20.083  0.00  0.00    +0.000 C 
ATOM      7  O   UNL     1       2.494   2.666  21.300  0.00  0.00    +0.000 OA
ATOM      8  N   UNL     1       1.456   3.714  19.557  0.00  0.00    +0.000 N 
ATOM      9  C   UNL     1       1.360   4.073  18.125  0.00  0.00    +0.000 C 
ATOM     10  C   UNL     1       2.175   5.346  17.813  0.00  0.00    +0.000 C 
ATOM     11  N   UNL     1       1.949   6.361  18.832  0.00  0.00    +0.000 N 
ATOM     12  C   UNL     1       2.215   7.697  18.719  0.00  0.00    +0.000 C 
ATOM     13  O   UNL     1       2.526   8.291  17.702  0.00  0.00    +0.000 OA
ATOM     14  O   UNL     1       2.093   8.284  19.954  0.00  0.00    +0.000 OA
ATOM     15  C   UNL     1       1.608   7.291  20.882  0.00  0.00    +0.000 C 
ATOM     16  C   UNL     1       1.962   5.986  20.220  0.00  0.00    +0.000 C 
ATOM     17  C   UNL     1       1.031   4.798  20.464  0.00  0.00    +0.000 C 
ENDBRANCH   5   6
ENDBRANCH   1   5
BRANCH   1  18
ATOM     18  C   UNL     1       4.920   3.692  19.025  0.00  0.00    +0.000 C 
BRANCH  18  19
ATOM     19  C   UNL     1       5.606   4.100  17.738  0.00  0.00    +0.000 A 
ATOM     20  C   UNL     1       5.037   3.802  16.488  0.00  0.00    +0.000 A 
ATOM     21  C   UNL     1       5.676   4.215  15.320  0.00  0.00    +0.000 A 
ATOM     22  F   UNL     1       5.125   3.923  14.134  0.00  0.00    +0.000 F 
ATOM     23  C   UNL     1       6.866   4.931  15.380  0.00  0.00    +0.000 A 
ATOM     24  F   UNL     1       7.469   5.335  14.254  0.00  0.00    +0.000 F 
ATOM     25  C   UNL     1       7.439   5.241  16.606  0.00  0.00    +0.000 A 
ATOM     26  C   UNL     1       6.804   4.822  17.774  0.00  0.00    +0.000 A 
ATOM     27  F   UNL     1       7.364   5.137  18.950  0.00  0.00    +0.000 F 
ENDBRANCH  18  19
ENDBRANCH   1  18
TORSDOF 5
ENDMDL
MODEL 2
REMARK VINA RESULT:      -7.1      4.129      6.948
REMARK  Name = 
REMARK  5 active torsions:
REMARK  status: ('A' for Active; 'I' for Inactive)
REMARK    1  A    between atoms: N_1  and  C_2
REMARK    2  A    between atoms: C_2  and  C_3
REMARK    3  A    between atoms: C_2  and  C_16
REMARK    4  A    between atoms: C_3  and  C_4
REMARK    5  A    between atoms: C_16  and  C_17
REMARK                            x       y       z     vdW  Elec       q    Type
REMARK                         _______ _______ _______ _____ _____    ______ ____
ROOT
ATOM      1  C   UNL     1       1.764   6.015  19.086  0.00  0.00    +0.000 C 
ENDROOT
BRANCH   1   2
ATOM      2  N   UNL     1       2.277   6.303  17.735  0.00  0.00    +0.000 NA
ATOM      3  H   UNL     1       1.538   6.203  17.041  0.00  0.00    +0.000 HD
ATOM      4  H   UNL     1       3.016   5.646  17.484  0.00  0.00    +0.000 HD
ENDBRANCH   1   2
BRANCH   1   5
ATOM      5  C   UNL     1       2.129   4.571  19.488  0.00  0.00    +0.000 C 
BRANCH   5   6
ATOM      6  C   UNL     1       2.697   3.774  18.325  0.00  0.00    +0.000 C 
ATOM      7  O   UNL     1       1.969   3.350  17.426  0.00  0.00    +0.000 OA
ATOM      8  N   UNL     1       4.073   3.578  18.284  0.00  0.00    +0.000 N 
ATOM      9  C   UNL     1       5.049   4.240  19.176  0.00  0.00    +0.000 C 
ATOM     10  C   UNL     1       5.685   5.470  18.494  0.00  0.00    +0.000 C 
ATOM     11  N   UNL     1       6.053   5.160  17.120  0.00  0.00    +0.000 N 
ATOM     12  C   UNL     1       6.924   5.862  16.335  0.00  0.00    +0.000 C 
ATOM     13  O   UNL     1       7.665   6.759  16.696  0.00  0.00    +0.000 OA
ATOM     14  O   UNL     1       6.830   5.406  15.043  0.00  0.00    +0.000 OA
ATOM     15  C   UNL     1       5.936   4.274  15.026  0.00  0.00    +0.000 C 
ATOM     16  C   UNL     1       5.128   4.442  16.284  0.00  0.00    +0.000 C 
ATOM     17  C   UNL     1       4.645   3.172  16.985  0.00  0.00    +0.000 C 
ENDBRANCH   5   6
ENDBRANCH   1   5
BRANCH   1  18
ATOM     18  C   UNL     1       2.324   7.050  20.094  0.00  0.00    +0.000 C 
BRANCH  18  19
ATOM     19  C   UNL     1       1.392   8.204  20.397  0.00  0.00    +0.000 A 
ATOM     20  C   UNL     1       0.630   8.229  21.578  0.00  0.00    +0.000 A 
ATOM     21  C   UNL     1      -0.199   9.318  21.845  0.00  0.00    +0.000 A 
ATOM     22  F   UNL     1      -0.923   9.329  22.972  0.00  0.00    +0.000 F 
ATOM     23  C   UNL     1      -0.268  10.387  20.959  0.00  0.00    +0.000 A 
ATOM     24  F   UNL     1      -1.057  11.437  21.228  0.00  0.00    +0.000 F 
ATOM     25  C   UNL     1       0.483  10.384  19.792  0.00  0.00    +0.000 A 
ATOM     26  C   UNL     1       1.306   9.292  19.521  0.00  0.00    +0.000 A 
ATOM     27  F   UNL     1       2.034   9.307  18.396  0.00  0.00    +0.000 F 
ENDBRANCH  18  19
ENDBRANCH   1  18
TORSDOF 5
ENDMDL
MODEL 3
REMARK VINA RESULT:      -7.1      3.283      5.359
REMARK  Name = 
REMARK  5 active torsions:
REMARK  status: ('A' for Active; 'I' for Inactive)
REMARK    1  A    between atoms: N_1  and  C_2
REMARK    2  A    between atoms: C_2  and  C_3
REMARK    3  A    between atoms: C_2  and  C_16
REMARK    4  A    between atoms: C_3  and  C_4
REMARK    5  A    between atoms: C_16  and  C_17
REMARK                            x       y       z     vdW  Elec       q    Type
REMARK                         _______ _______ _______ _____ _____    ______ ____
ROOT
ATOM      1  C   UNL     1       2.065   4.487  20.662  0.00  0.00    +0.000 C 
ENDROOT
BRANCH   1   2
ATOM      2  N   UNL     1       2.397   3.706  21.867  0.00  0.00    +0.000 NA
ATOM      3  H   UNL     1       1.718   3.879  22.606  0.00  0.00    +0.000 HD
ATOM      4  H   UNL     1       3.311   3.976  22.229  0.00  0.00    +0.000 HD
ENDBRANCH   1   2
BRANCH   1   5
ATOM      5  C   UNL     1       1.148   3.658  19.738  0.00  0.00    +0.000 C 
BRANCH   5   6
ATOM      6  C   UNL     1       1.617   3.674  18.293  0.00  0.00    +0.000 C 
ATOM      7  O   UNL     1       0.981   4.270  17.422  0.00  0.00    +0.000 OA
ATOM      8  N   UNL     1       2.814   3.033  17.992  0.00  0.00    +0.000 N 
ATOM      9  C   UNL     1       3.763   2.499  18.993  0.00  0.00    +0.000 C 
ATOM     10  C   UNL     1       4.915   3.493  19.257  0.00  0.00    +0.000 C 
ATOM     11  N   UNL     1       5.415   4.041  18.005  0.00  0.00    +0.000 N 
ATOM     12  C   UNL     1       6.615   4.666  17.815  0.00  0.00    +0.000 C 
ATOM     13  O   UNL     1       7.537   4.723  18.609  0.00  0.00    +0.000 OA
ATOM     14  O   UNL     1       6.625   5.248  16.572  0.00  0.00    +0.000 OA
ATOM     15  C   UNL     1       5.412   4.875  15.886  0.00  0.00    +0.000 C 
ATOM     16  C   UNL     1       4.482   4.482  17.003  0.00  0.00    +0.000 C 
ATOM     17  C   UNL     1       3.452   3.390  16.710  0.00  0.00    +0.000 C 
ENDBRANCH   5   6
ENDBRANCH   1   5
BRANCH   1  18
ATOM     18  C   UNL     1       1.408   5.830  21.068  0.00  0.00    +0.000 C 
BRANCH  18  19
ATOM     19  C   UNL     1       1.684   6.979  20.121  0.00  0.00    +0.000 A 
ATOM     20  C   UNL     1       2.540   6.820  19.018  0.00  0.00    +0.000 A 
ATOM     21  C   UNL     1       2.753   7.886  18.146  0.00  0.00    +0.000 A 
ATOM     22  F   UNL     1       3.574   7.722  17.100  0.00  0.00    +0.000 F 
ATOM     23  C   UNL     1       2.116   9.104  18.350  0.00  0.00    +0.000 A 
ATOM     24  F   UNL     1       2.315  10.122  17.501  0.00  0.00    +0.000 F 
ATOM     25  C   UNL     1       1.260   9.278  19.430  0.00  0.00    +0.000 A 
ATOM     26  C   UNL     1       1.053   8.214  20.306  0.00  0.00    +0.000 A 
ATOM     27  F   UNL     1       0.217   8.394  21.338  0.00  0.00    +0.000 F 
ENDBRANCH  18  19
ENDBRANCH   1  18
TORSDOF 5
ENDMDL
MODEL 4
REMARK VINA RESULT:      -7.1      4.459      6.800
REMARK  Name = 
REMARK  5 active torsions:
REMARK  status: ('A' for Active; 'I' for Inactive)
REMARK    1  A    between atoms: N_1  and  C_2
REMARK    2  A    between atoms: C_2  and  C_3
REMARK    3  A    between atoms: C_2  and  C_16
REMARK    4  A    between atoms: C_3  and  C_4
REMARK    5  A    between atoms: C_16  and  C_17
REMARK                            x       y       z     vdW  Elec       q    Type
REMARK                         _______ _______ _______ _____ _____    ______ ____
ROOT
ATOM      1  C   UNL     1       1.209   8.268  21.696  0.00  0.00    +0.000 C 
ENDROOT
BRANCH   1   2
ATOM      2  N   UNL     1       2.042   9.233  22.438  0.00  0.00    +0.000 NA
ATOM      3  H   UNL     1       2.906   9.424  21.933  0.00  0.00    +0.000 HD
ATOM      4  H   UNL     1       2.302   8.857  23.349  0.00  0.00    +0.000 HD
ENDBRANCH   1   2
BRANCH   1   5
ATOM      5  C   UNL     1      -0.237   8.796  21.593  0.00  0.00    +0.000 C 
BRANCH   5   6
ATOM      6  C   UNL     1      -0.357  10.242  22.045  0.00  0.00    +0.000 C 
ATOM      7  O   UNL     1      -0.281  10.547  23.237  0.00  0.00    +0.000 OA
ATOM      8  N   UNL     1      -0.510  11.217  21.066  0.00  0.00    +0.000 N 
ATOM      9  C   UNL     1      -0.376  10.984  19.611  0.00  0.00    +0.000 C 
ATOM     10  C   UNL     1       1.029  11.379  19.109  0.00  0.00    +0.000 C 
ATOM     11  N   UNL     1       1.436  12.655  19.680  0.00  0.00    +0.000 N 
ATOM     12  C   UNL     1       2.432  13.469  19.218  0.00  0.00    +0.000 C 
ATOM     13  O   UNL     1       3.033  13.355  18.164  0.00  0.00    +0.000 OA
ATOM     14  O   UNL     1       2.674  14.452  20.146  0.00  0.00    +0.000 OA
ATOM     15  C   UNL     1       1.699  14.328  21.202  0.00  0.00    +0.000 C 
ATOM     16  C   UNL     1       1.226  12.904  21.081  0.00  0.00    +0.000 C 
ATOM     17  C   UNL     1      -0.224  12.608  21.467  0.00  0.00    +0.000 C 
ENDBRANCH   5   6
ENDBRANCH   1   5
BRANCH   1  18
ATOM     18  C   UNL     1       1.826   8.005  20.299  0.00  0.00    +0.000 C 
BRANCH  18  19
ATOM     19  C   UNL     1       1.920   6.543  19.917  0.00  0.00    +0.000 A 
ATOM     20  C   UNL     1       1.435   5.538  20.771  0.00  0.00    +0.000 A 
ATOM     21  C   UNL     1       1.509   4.201  20.381  0.00  0.00    +0.000 A 
ATOM     22  F   UNL     1       1.046   3.252  21.205  0.00  0.00    +0.000 F 
ATOM     23  C   UNL     1       2.047   3.854  19.147  0.00  0.00    +0.000 A 
ATOM     24  F   UNL     1       2.104   2.569  18.773  0.00  0.00    +0.000 F 
ATOM     25  C   UNL     1       2.524   4.834  18.287  0.00  0.00    +0.000 A 
ATOM     26  C   UNL     1       2.457   6.169  18.680  0.00  0.00    +0.000 A 
ATOM     27  F   UNL     1       2.912   7.105  17.835  0.00  0.00    +0.000 F 
ENDBRANCH  18  19
ENDBRANCH   1  18
TORSDOF 5
ENDMDL
MODEL 5
REMARK VINA RESULT:      -7.0      3.622      6.207
REMARK  Name = 
REMARK  5 active torsions:
REMARK  status: ('A' for Active; 'I' for Inactive)
REMARK    1  A    between atoms: N_1  and  C_2
REMARK    2  A    between atoms: C_2  and  C_3
REMARK    3  A    between atoms: C_2  and  C_16
REMARK    4  A    between atoms: C_3  and  C_4
REMARK    5  A    between atoms: C_16  and  C_17
REMARK                            x       y       z     vdW  Elec       q    Type
REMARK                         _______ _______ _______ _____ _____    ______ ____
ROOT
ATOM      1  C   UNL     1       2.014   5.074  20.673  0.00  0.00    +0.000 C 
ENDROOT
BRANCH   1   2
ATOM      2  N   UNL     1       0.584   4.930  20.344  0.00  0.00    +0.000 NA
ATOM      3  H   UNL     1       0.468   4.475  19.440  0.00  0.00    +0.000 HD
ATOM      4  H   UNL     1       0.137   5.843  20.282  0.00  0.00    +0.000 HD
ENDBRANCH   1   2
BRANCH   1   5
ATOM      5  C   UNL     1       2.738   3.728  20.459  0.00  0.00    +0.000 C 
BRANCH   5   6
ATOM      6  C   UNL     1       2.993   3.437  18.990  0.00  0.00    +0.000 C 
ATOM      7  O   UNL     1       2.062   3.298  18.195  0.00  0.00    +0.000 OA
ATOM      8  N   UNL     1       4.314   3.378  18.560  0.00  0.00    +0.000 N 
ATOM      9  C   UNL     1       5.488   3.761  19.375  0.00  0.00    +0.000 C 
ATOM     10  C   UNL     1       5.947   5.199  19.051  0.00  0.00    +0.000 C 
ATOM     11  N   UNL     1       5.961   5.419  17.612  0.00  0.00    +0.000 N 
ATOM     12  C   UNL     1       6.618   6.418  16.950  0.00  0.00    +0.000 C 
ATOM     13  O   UNL     1       7.434   7.188  17.426  0.00  0.00    +0.000 OA
ATOM     14  O   UNL     1       6.203   6.438  15.642  0.00  0.00    +0.000 OA
ATOM     15  C   UNL     1       5.322   5.316  15.429  0.00  0.00    +0.000 C 
ATOM     16  C   UNL     1       4.851   4.969  16.816  0.00  0.00    +0.000 C 
ATOM     17  C   UNL     1       4.543   3.499  17.107  0.00  0.00    +0.000 C 
ENDBRANCH   5   6
ENDBRANCH   1   5
BRANCH   1  18
ATOM     18  C   UNL     1       2.640   6.205  19.819  0.00  0.00    +0.000 C 
BRANCH  18  19
ATOM     19  C   UNL     1       1.943   7.544  19.937  0.00  0.00    +0.000 A 
ATOM     20  C   UNL     1       1.451   7.998  21.172  0.00  0.00    +0.000 A 
ATOM     21  C   UNL     1       0.839   9.248  21.257  0.00  0.00    +0.000 A 
ATOM     22  F   UNL     1       0.370   9.669  22.440  0.00  0.00    +0.000 F 
ATOM     23  C   UNL     1       0.723  10.056  20.132  0.00  0.00    +0.000 A 
ATOM     24  F   UNL     1       0.144  11.261  20.223  0.00  0.00    +0.000 F 
ATOM     25  C   UNL     1       1.210   9.627  18.905  0.00  0.00    +0.000 A 
ATOM     26  C   UNL     1       1.815   8.375  18.818  0.00  0.00    +0.000 A 
ATOM     27  F   UNL     1       2.291   7.979  17.630  0.00  0.00    +0.000 F 
ENDBRANCH  18  19
ENDBRANCH   1  18
TORSDOF 5
ENDMDL
MODEL 6
REMARK VINA RESULT:      -6.9      2.450      4.684
REMARK  Name = 
REMARK  5 active torsions:
REMARK  status: ('A' for Active; 'I' for Inactive)
REMARK    1  A    between atoms: N_1  and  C_2
REMARK    2  A    between atoms: C_2  and  C_3
REMARK    3  A    between atoms: C_2  and  C_16
REMARK    4  A    between atoms: C_3  and  C_4
REMARK    5  A    between atoms: C_16  and  C_17
REMARK                            x       y       z     vdW  Elec       q    Type
REMARK                         _______ _______ _______ _____ _____    ______ ____
ROOT
ATOM      1  C   UNL     1       6.962   5.038  16.536  0.00  0.00    +0.000 C 
ENDROOT
BRANCH   1   2
ATOM      2  N   UNL     1       8.008   4.229  17.188  0.00  0.00    +0.000 NA
ATOM      3  H   UNL     1       7.603   3.627  17.902  0.00  0.00    +0.000 HD
ATOM      4  H   UNL     1       8.690   4.828  17.650  0.00  0.00    +0.000 HD
ENDBRANCH   1   2
BRANCH   1   5
ATOM      5  C   UNL     1       6.672   6.296  17.382  0.00  0.00    +0.000 C 
BRANCH   5   6
ATOM      6  C   UNL     1       5.188   6.611  17.459  0.00  0.00    +0.000 C 
ATOM      7  O   UNL     1       4.632   7.286  16.591  0.00  0.00    +0.000 OA
ATOM      8  N   UNL     1       4.465   6.072  18.518  0.00  0.00    +0.000 N 
ATOM      9  C   UNL     1       4.981   5.065  19.470  0.00  0.00    +0.000 C 
ATOM     10  C   UNL     1       4.541   3.641  19.070  0.00  0.00    +0.000 C 
ATOM     11  N   UNL     1       3.135   3.627  18.692  0.00  0.00    +0.000 N 
ATOM     12  C   UNL     1       2.326   2.528  18.614  0.00  0.00    +0.000 C 
ATOM     13  O   UNL     1       2.590   1.404  19.005  0.00  0.00    +0.000 OA
ATOM     14  O   UNL     1       1.150   2.880  18.001  0.00  0.00    +0.000 OA
ATOM     15  C   UNL     1       1.161   4.306  17.783  0.00  0.00    +0.000 C 
ATOM     16  C   UNL     1       2.623   4.659  17.831  0.00  0.00    +0.000 C 
ATOM     17  C   UNL     1       2.997   6.041  18.368  0.00  0.00    +0.000 C 
ENDBRANCH   5   6
ENDBRANCH   1   5
BRANCH   1  18
ATOM     18  C   UNL     1       7.399   5.403  15.095  0.00  0.00    +0.000 C 
BRANCH  18  19
ATOM     19  C   UNL     1       6.754   4.567  14.010  0.00  0.00    +0.000 A 
ATOM     20  C   UNL     1       7.507   4.076  12.929  0.00  0.00    +0.000 A 
ATOM     21  C   UNL     1       6.893   3.285  11.960  0.00  0.00    +0.000 A 
ATOM     22  F   UNL     1       7.621   2.825  10.933  0.00  0.00    +0.000 F 
ATOM     23  C   UNL     1       5.544   2.965  12.059  0.00  0.00    +0.000 A 
ATOM     24  F   UNL     1       4.963   2.193  11.130  0.00  0.00    +0.000 F 
ATOM     25  C   UNL     1       4.786   3.434  13.123  0.00  0.00    +0.000 A 
ATOM     26  C   UNL     1       5.398   4.231  14.088  0.00  0.00    +0.000 A 
ATOM     27  F   UNL     1       4.656   4.668  15.115  0.00  0.00    +0.000 F 
ENDBRANCH  18  19
ENDBRANCH   1  18
TORSDOF 5
ENDMDL
MODEL 7
REMARK VINA RESULT:      -6.9      4.467      7.196
REMARK  Name = 
REMARK  5 active torsions:
REMARK  status: ('A' for Active; 'I' for Inactive)
REMARK    1  A    between atoms: N_1  and  C_2
REMARK    2  A    between atoms: C_2  and  C_3
REMARK    3  A    between atoms: C_2  and  C_16
REMARK    4  A    between atoms: C_3  and  C_4
REMARK    5  A    between atoms: C_16  and  C_17
REMARK                            x       y       z     vdW  Elec       q    Type
REMARK                         _______ _______ _______ _____ _____    ______ ____
ROOT
ATOM      1  C   UNL     1       1.775   6.857  19.625  0.00  0.00    +0.000 C 
ENDROOT
BRANCH   1   2
ATOM      2  N   UNL     1       2.653   7.415  18.580  0.00  0.00    +0.000 NA
ATOM      3  H   UNL     1       2.952   8.357  18.827  0.00  0.00    +0.000 HD
ATOM      4  H   UNL     1       2.157   7.480  17.692  0.00  0.00    +0.000 HD
ENDBRANCH   1   2
BRANCH   1   5
ATOM      5  C   UNL     1       2.204   5.411  19.951  0.00  0.00    +0.000 C 
BRANCH   5   6
ATOM      6  C   UNL     1       2.478   4.594  18.700  0.00  0.00    +0.000 C 
ATOM      7  O   UNL     1       1.595   4.387  17.866  0.00  0.00    +0.000 OA
ATOM      8  N   UNL     1       3.772   4.125  18.501  0.00  0.00    +0.000 N 
ATOM      9  C   UNL     1       4.947   4.515  19.311  0.00  0.00    +0.000 C 
ATOM     10  C   UNL     1       5.757   5.632  18.620  0.00  0.00    +0.000 C 
ATOM     11  N   UNL     1       5.918   5.345  17.202  0.00  0.00    +0.000 N 
ATOM     12  C   UNL     1       6.836   5.905  16.359  0.00  0.00    +0.000 C 
ATOM     13  O   UNL     1       7.780   6.607  16.678  0.00  0.00    +0.000 OA
ATOM     14  O   UNL     1       6.525   5.565  15.066  0.00  0.00    +0.000 OA
ATOM     15  C   UNL     1       5.417   4.641  15.095  0.00  0.00    +0.000 C 
ATOM     16  C   UNL     1       4.787   4.887  16.440  0.00  0.00    +0.000 C 
ATOM     17  C   UNL     1       4.119   3.698  17.132  0.00  0.00    +0.000 C 
ENDBRANCH   5   6
ENDBRANCH   1   5
BRANCH   1  18
ATOM     18  C   UNL     1       1.810   7.764  20.881  0.00  0.00    +0.000 C 
BRANCH  18  19
ATOM     19  C   UNL     1       0.919   8.985  20.803  0.00  0.00    +0.000 A 
ATOM     20  C   UNL     1       0.500   9.498  19.563  0.00  0.00    +0.000 A 
ATOM     21  C   UNL     1      -0.344  10.607  19.521  0.00  0.00    +0.000 A 
ATOM     22  F   UNL     1      -0.733  11.089  18.333  0.00  0.00    +0.000 F 
ATOM     23  C   UNL     1      -0.786  11.203  20.696  0.00  0.00    +0.000 A 
ATOM     24  F   UNL     1      -1.607  12.261  20.649  0.00  0.00    +0.000 F 
ATOM     25  C   UNL     1      -0.390  10.706  21.930  0.00  0.00    +0.000 A 
ATOM     26  C   UNL     1       0.460   9.602  21.972  0.00  0.00    +0.000 A 
ATOM     27  F   UNL     1       0.826   9.126  23.170  0.00  0.00    +0.000 F 
ENDBRANCH  18  19
ENDBRANCH   1  18
TORSDOF 5
ENDMDL
MODEL 8
REMARK VINA RESULT:      -6.9      0.839      1.660
REMARK  Name = 
REMARK  5 active torsions:
REMARK  status: ('A' for Active; 'I' for Inactive)
REMARK    1  A    between atoms: N_1  and  C_2
REMARK    2  A    between atoms: C_2  and  C_3
REMARK    3  A    between atoms: C_2  and  C_16
REMARK    4  A    between atoms: C_3  and  C_4
REMARK    5  A    between atoms: C_16  and  C_17
REMARK                            x       y       z     vdW  Elec       q    Type
REMARK                         _______ _______ _______ _____ _____    ______ ____
ROOT
ATOM      1  C   UNL     1       4.585   2.187  19.317  0.00  0.00    +0.000 C 
ENDROOT
BRANCH   1   2
ATOM      2  N   UNL     1       5.222   1.564  20.492  0.00  0.00    +0.000 NA
ATOM      3  H   UNL     1       5.392   2.258  21.218  0.00  0.00    +0.000 HD
ATOM      4  H   UNL     1       6.124   1.163  20.240  0.00  0.00    +0.000 HD
ENDBRANCH   1   2
BRANCH   1   5
ATOM      5  C   UNL     1       3.077   1.860  19.305  0.00  0.00    +0.000 C 
BRANCH   5   6
ATOM      6  C   UNL     1       2.283   2.766  20.231  0.00  0.00    +0.000 C 
ATOM      7  O   UNL     1       2.418   2.705  21.454  0.00  0.00    +0.000 OA
ATOM      8  N   UNL     1       1.430   3.699  19.652  0.00  0.00    +0.000 N 
ATOM      9  C   UNL     1       1.373   4.011  18.207  0.00  0.00    +0.000 C 
ATOM     10  C   UNL     1       2.201   5.271  17.875  0.00  0.00    +0.000 C 
ATOM     11  N   UNL     1       1.952   6.320  18.853  0.00  0.00    +0.000 N 
ATOM     12  C   UNL     1       2.227   7.650  18.704  0.00  0.00    +0.000 C 
ATOM     13  O   UNL     1       2.566   8.210  17.677  0.00  0.00    +0.000 OA
ATOM     14  O   UNL     1       2.075   8.277  19.916  0.00  0.00    +0.000 OA
ATOM     15  C   UNL     1       1.562   7.317  20.862  0.00  0.00    +0.000 C 
ATOM     16  C   UNL     1       1.928   5.990  20.253  0.00  0.00    +0.000 C 
ATOM     17  C   UNL     1       0.986   4.813  20.512  0.00  0.00    +0.000 C 
ENDBRANCH   5   6
ENDBRANCH   1   5
BRANCH   1  18
ATOM     18  C   UNL     1       4.842   3.716  19.327  0.00  0.00    +0.000 C 
BRANCH  18  19
ATOM     19  C   UNL     1       5.517   4.250  18.082  0.00  0.00    +0.000 A 
ATOM     20  C   UNL     1       6.453   5.295  18.157  0.00  0.00    +0.000 A 
ATOM     21  C   UNL     1       7.082   5.748  16.998  0.00  0.00    +0.000 A 
ATOM     22  F   UNL     1       7.970   6.748  17.082  0.00  0.00    +0.000 F 
ATOM     23  C   UNL     1       6.800   5.165  15.768  0.00  0.00    +0.000 A 
ATOM     24  F   UNL     1       7.416   5.597  14.659  0.00  0.00    +0.000 F 
ATOM     25  C   UNL     1       5.884   4.126  15.675  0.00  0.00    +0.000 A 
ATOM     26  C   UNL     1       5.250   3.678  16.832  0.00  0.00    +0.000 A 
ATOM     27  F   UNL     1       4.376   2.668  16.729  0.00  0.00    +0.000 F 
ENDBRANCH  18  19
ENDBRANCH   1  18
TORSDOF 5
ENDMDL
MODEL 9
REMARK VINA RESULT:      -6.8      3.298      5.785
REMARK  Name = 
REMARK  5 active torsions:
REMARK  status: ('A' for Active; 'I' for Inactive)
REMARK    1  A    between atoms: N_1  and  C_2
REMARK    2  A    between atoms: C_2  and  C_3
REMARK    3  A    between atoms: C_2  and  C_16
REMARK    4  A    between atoms: C_3  and  C_4
REMARK    5  A    between atoms: C_16  and  C_17
REMARK                            x       y       z     vdW  Elec       q    Type
REMARK                         _______ _______ _______ _____ _____    ______ ____
ROOT
ATOM      1  C   UNL     1       4.524   6.722  17.079  0.00  0.00    +0.000 C 
ENDROOT
BRANCH   1   2
ATOM      2  N   UNL     1       5.107   7.705  18.009  0.00  0.00    +0.000 NA
ATOM      3  H   UNL     1       5.850   8.233  17.554  0.00  0.00    +0.000 HD
ATOM      4  H   UNL     1       5.520   7.237  18.814  0.00  0.00    +0.000 HD
ENDBRANCH   1   2
BRANCH   1   5
ATOM      5  C   UNL     1       5.408   5.458  17.032  0.00  0.00    +0.000 C 
BRANCH   5   6
ATOM      6  C   UNL     1       5.461   4.741  18.371  0.00  0.00    +0.000 C 
ATOM      7  O   UNL     1       5.956   5.277  19.364  0.00  0.00    +0.000 OA
ATOM      8  N   UNL     1       4.891   3.475  18.451  0.00  0.00    +0.000 N 
ATOM      9  C   UNL     1       4.071   2.847  17.392  0.00  0.00    +0.000 C 
ATOM     10  C   UNL     1       2.564   3.021  17.676  0.00  0.00    +0.000 C 
ATOM     11  N   UNL     1       2.272   2.749  19.076  0.00  0.00    +0.000 N 
ATOM     12  C   UNL     1       1.044   2.472  19.610  0.00  0.00    +0.000 C 
ATOM     13  O   UNL     1       0.020   2.239  18.992  0.00  0.00    +0.000 OA
ATOM     14  O   UNL     1       1.132   2.509  20.979  0.00  0.00    +0.000 OA
ATOM     15  C   UNL     1       2.516   2.704  21.339  0.00  0.00    +0.000 C 
ATOM     16  C   UNL     1       3.124   3.297  20.096  0.00  0.00    +0.000 C 
ATOM     17  C   UNL     1       4.589   2.970  19.805  0.00  0.00    +0.000 C 
ENDBRANCH   5   6
ENDBRANCH   1   5
BRANCH   1  18
ATOM     18  C   UNL     1       3.071   6.391  17.503  0.00  0.00    +0.000 C 
BRANCH  18  19
ATOM     19  C   UNL     1       2.406   7.450  18.356  0.00  0.00    +0.000 A 
ATOM     20  C   UNL     1       1.907   8.633  17.784  0.00  0.00    +0.000 A 
ATOM     21  C   UNL     1       1.274   9.579  18.589  0.00  0.00    +0.000 A 
ATOM     22  F   UNL     1       0.805  10.703  18.032  0.00  0.00    +0.000 F 
ATOM     23  C   UNL     1       1.120   9.357  19.952  0.00  0.00    +0.000 A 
ATOM     24  F   UNL     1       0.499  10.264  20.719  0.00  0.00    +0.000 F 
ATOM     25  C   UNL     1       1.600   8.191  20.534  0.00  0.00    +0.000 A 
ATOM     26  C   UNL     1       2.239   7.249  19.731  0.00  0.00    +0.000 A 
ATOM     27  F   UNL     1       2.688   6.124  20.304  0.00  0.00    +0.000 F 
ENDBRANCH  18  19
ENDBRANCH   1  18
TORSDOF 5
ENDMDL
