MODEL 1
REMARK VINA RESULT:      -7.8      0.000      0.000
REMARK  Name = 
REMARK  10 active torsions:
REMARK  status: ('A' for Active; 'I' for Inactive)
REMARK    1  A    between atoms: C_1  and  C_2
REMARK    2  A    between atoms: N_4  and  C_5
REMARK    3  A    between atoms: C_5  and  C_6
REMARK    4  A    between atoms: C_5  and  C_7
REMARK    5  A    between atoms: C_10  and  O_11
REMARK    6  A    between atoms: O_11  and  C_12
REMARK    7  A    between atoms: N_15  and  C_16
REMARK    8  A    between atoms: C_19  and  O_20
REMARK    9  A    between atoms: O_20  and  C_21
REMARK   10  A    between atoms: C_21  and  C_22
REMARK                            x       y       z     vdW  Elec       q    Type
REMARK                         _______ _______ _______ _____ _____    ______ ____
ROOT
ATOM      1  C   UNL     1       2.814   3.166  21.104  0.00  0.00    +0.000 C 
ATOM      2  C   UNL     1       1.293   3.045  20.995  0.00  0.00    +0.000 C 
ATOM      3  C   UNL     1       0.842   4.209  20.110  0.00  0.00    +0.000 C 
ATOM      4  N   UNL     1       1.865   5.220  20.300  0.00  0.00    +0.000 N 
ATOM      5  C   UNL     1       3.075   4.670  20.889  0.00  0.00    +0.000 C 
ENDROOT
BRANCH   4   6
ATOM      6  C   UNL     1       1.628   6.570  20.183  0.00  0.00    +0.000 A 
ATOM      7  N   UNL     1       0.960   7.195  21.186  0.00  0.00    +0.000 NA
ATOM      8  C   UNL     1       0.762   8.540  21.094  0.00  0.00    +0.000 A 
ATOM      9  C   UNL     1       1.209   9.340  20.050  0.00  0.00    +0.000 A 
ATOM     10  C   UNL     1       1.855   8.697  19.009  0.00  0.00    +0.000 A 
ATOM     11  C   UNL     1       2.060   7.321  19.079  0.00  0.00    +0.000 A 
ATOM     12  F   UNL     1       2.697   6.748  18.044  0.00  0.00    +0.000 F 
BRANCH   9  13
ATOM     13  O   UNL     1       0.941  10.678  20.114  0.00  0.00    +0.000 OA
BRANCH  13  14
ATOM     14  C   UNL     1       0.609  11.308  18.863  0.00  0.00    +0.000 C 
BRANCH  14  15
ATOM     15  C   UNL     1      -0.871  11.169  18.514  0.00  0.00    +0.000 C 
ATOM     16  F   UNL     1      -1.355  12.222  17.825  0.00  0.00    +0.000 F 
ATOM     17  F   UNL     1      -1.089  10.058  17.771  0.00  0.00    +0.000 F 
ATOM     18  F   UNL     1      -1.614  11.045  19.641  0.00  0.00    +0.000 F 
ENDBRANCH  14  15
ENDBRANCH  13  14
ENDBRANCH   9  13
ENDBRANCH   4   6
BRANCH   1  19
ATOM     19  O   UNL     1       3.456   2.324  20.128  0.00  0.00    +0.000 OA
BRANCH  19  23
ATOM     20  C   UNL     1       5.220   4.365  16.900  0.00  0.00    +0.000 A 
ATOM     21  C   UNL     1       4.034   3.633  16.750  0.00  0.00    +0.000 A 
ATOM     22  C   UNL     1       3.460   2.964  17.843  0.00  0.00    +0.000 A 
ATOM     23  C   UNL     1       4.071   2.997  19.100  0.00  0.00    +0.000 A 
ATOM     24  C   UNL     1       5.246   3.737  19.251  0.00  0.00    +0.000 A 
ATOM     25  C   UNL     1       5.808   4.415  18.173  0.00  0.00    +0.000 A 
BRANCH  20  26
ATOM     26  C   UNL     1       5.861   5.121  15.746  0.00  0.00    +0.000 C 
ATOM     27  C   UNL     1       5.170   6.473  15.523  0.00  0.00    +0.000 C 
BRANCH  26  31
ATOM     28  C   UNL     1       6.362   3.513  12.346  0.00  0.00    +0.000 C 
ATOM     29  C   UNL     1       6.657   4.454  13.484  0.00  0.00    +0.000 C 
ATOM     30  O   UNL     1       7.585   5.252  13.463  0.00  0.00    +0.000 OA
ATOM     31  N   UNL     1       5.794   4.303  14.542  0.00  0.00    +0.000 N 
ATOM     32  H   UNL     1       5.036   3.640  14.458  0.00  0.00    +0.000 HD
ENDBRANCH  26  31
ENDBRANCH  20  26
ENDBRANCH  19  23
ENDBRANCH   1  19
TORSDOF 8
ENDMDL
MODEL 2
REMARK VINA RESULT:      -7.7      3.901      9.893
REMARK  Name = 
REMARK  10 active torsions:
REMARK  status: ('A' for Active; 'I' for Inactive)
REMARK    1  A    between atoms: C_1  and  C_2
REMARK    2  A    between atoms: N_4  and  C_5
REMARK    3  A    between atoms: C_5  and  C_6
REMARK    4  A    between atoms: C_5  and  C_7
REMARK    5  A    between atoms: C_10  and  O_11
REMARK    6  A    between atoms: O_11  and  C_12
REMARK    7  A    between atoms: N_15  and  C_16
REMARK    8  A    between atoms: C_19  and  O_20
REMARK    9  A    between atoms: O_20  and  C_21
REMARK   10  A    between atoms: C_21  and  C_22
REMARK                            x       y       z     vdW  Elec       q    Type
REMARK                         _______ _______ _______ _____ _____    ______ ____
ROOT
ATOM      1  C   UNL     1       1.620   7.180  20.116  0.00  0.00    +0.000 C 
ATOM      2  C   UNL     1       1.913   5.756  20.593  0.00  0.00    +0.000 C 
ATOM      3  C   UNL     1       3.267   5.381  19.987  0.00  0.00    +0.000 C 
ATOM      4  N   UNL     1       3.358   6.192  18.787  0.00  0.00    +0.000 N 
ATOM      5  C   UNL     1       2.404   7.289  18.794  0.00  0.00    +0.000 C 
ENDROOT
BRANCH   4   6
ATOM      6  C   UNL     1       4.070   5.817  17.671  0.00  0.00    +0.000 A 
ATOM      7  N   UNL     1       4.883   6.734  17.088  0.00  0.00    +0.000 NA
ATOM      8  C   UNL     1       5.622   6.354  16.008  0.00  0.00    +0.000 A 
ATOM      9  C   UNL     1       5.625   5.080  15.456  0.00  0.00    +0.000 A 
ATOM     10  C   UNL     1       4.766   4.156  16.024  0.00  0.00    +0.000 A 
ATOM     11  C   UNL     1       3.995   4.527  17.124  0.00  0.00    +0.000 A 
ATOM     12  F   UNL     1       3.182   3.590  17.640  0.00  0.00    +0.000 F 
BRANCH   9  13
ATOM     13  O   UNL     1       6.435   4.855  14.380  0.00  0.00    +0.000 OA
BRANCH  13  14
ATOM     14  C   UNL     1       6.388   3.526  13.830  0.00  0.00    +0.000 C 
BRANCH  14  15
ATOM     15  C   UNL     1       6.336   3.527  12.304  0.00  0.00    +0.000 C 
ATOM     16  F   UNL     1       5.090   3.693  11.814  0.00  0.00    +0.000 F 
ATOM     17  F   UNL     1       7.110   4.515  11.795  0.00  0.00    +0.000 F 
ATOM     18  F   UNL     1       6.812   2.357  11.812  0.00  0.00    +0.000 F 
ENDBRANCH  14  15
ENDBRANCH  13  14
ENDBRANCH   9  13
ENDBRANCH   4   6
BRANCH   1  19
ATOM     19  O   UNL     1       2.031   8.137  21.110  0.00  0.00    +0.000 OA
BRANCH  19  23
ATOM     20  C   UNL     1      -0.894  11.039  21.960  0.00  0.00    +0.000 A 
ATOM     21  C   UNL     1      -0.368  10.877  20.671  0.00  0.00    +0.000 A 
ATOM     22  C   UNL     1       0.604   9.898  20.409  0.00  0.00    +0.000 A 
ATOM     23  C   UNL     1       1.083   9.077  21.434  0.00  0.00    +0.000 A 
ATOM     24  C   UNL     1       0.549   9.231  22.716  0.00  0.00    +0.000 A 
ATOM     25  C   UNL     1      -0.427  10.189  22.974  0.00  0.00    +0.000 A 
BRANCH  20  26
ATOM     26  C   UNL     1      -1.963  12.073  22.279  0.00  0.00    +0.000 C 
ATOM     27  C   UNL     1      -2.657  12.558  20.999  0.00  0.00    +0.000 C 
BRANCH  26  31
ATOM     28  C   UNL     1      -1.201  15.087  24.453  0.00  0.00    +0.000 C 
ATOM     29  C   UNL     1      -2.042  13.980  23.875  0.00  0.00    +0.000 C 
ATOM     30  O   UNL     1      -3.213  13.803  24.188  0.00  0.00    +0.000 OA
ATOM     31  N   UNL     1      -1.353  13.190  22.989  0.00  0.00    +0.000 N 
ATOM     32  H   UNL     1      -0.397  13.431  22.766  0.00  0.00    +0.000 HD
ENDBRANCH  26  31
ENDBRANCH  20  26
ENDBRANCH  19  23
ENDBRANCH   1  19
TORSDOF 8
ENDMDL
MODEL 3
REMARK VINA RESULT:      -7.6      3.718      9.712
REMARK  Name = 
REMARK  10 active torsions:
REMARK  status: ('A' for Active; 'I' for Inactive)
REMARK    1  A    between atoms: C_1  and  C_2
REMARK    2  A    between atoms: N_4  and  C_5
REMARK    3  A    between atoms: C_5  and  C_6
REMARK    4  A    between atoms: C_5  and  C_7
REMARK    5  A    between atoms: C_10  and  O_11
REMARK    6  A    between atoms: O_11  and  C_12
REMARK    7  A    between atoms: N_15  and  C_16
REMARK    8  A    between atoms: C_19  and  O_20
REMARK    9  A    between atoms: O_20  and  C_21
REMARK   10  A    between atoms: C_21  and  C_22
REMARK                            x       y       z     vdW  Elec       q    Type
REMARK                         _______ _______ _______ _____ _____    ______ ____
ROOT
ATOM      1  C   UNL     1       1.717   6.804  19.868  0.00  0.00    +0.000 C 
ATOM      2  C   UNL     1       2.065   5.412  20.396  0.00  0.00    +0.000 C 
ATOM      3  C   UNL     1       3.486   5.122  19.909  0.00  0.00    +0.000 C 
ATOM      4  N   UNL     1       3.621   5.919  18.705  0.00  0.00    +0.000 N 
ATOM      5  C   UNL     1       2.598   6.947  18.612  0.00  0.00    +0.000 C 
ENDROOT
BRANCH   4   6
ATOM      6  C   UNL     1       4.446   5.578  17.658  0.00  0.00    +0.000 A 
ATOM      7  N   UNL     1       4.359   4.321  17.152  0.00  0.00    +0.000 NA
ATOM      8  C   UNL     1       5.144   3.994  16.087  0.00  0.00    +0.000 A 
ATOM      9  C   UNL     1       6.028   4.859  15.456  0.00  0.00    +0.000 A 
ATOM     10  C   UNL     1       6.147   6.127  15.996  0.00  0.00    +0.000 A 
ATOM     11  C   UNL     1       5.360   6.479  17.090  0.00  0.00    +0.000 A 
ATOM     12  F   UNL     1       5.511   7.725  17.572  0.00  0.00    +0.000 F 
BRANCH   9  13
ATOM     13  O   UNL     1       6.734   4.380  14.390  0.00  0.00    +0.000 OA
BRANCH  13  14
ATOM     14  C   UNL     1       6.117   3.299  13.666  0.00  0.00    +0.000 C 
BRANCH  14  15
ATOM     15  C   UNL     1       6.285   3.438  12.155  0.00  0.00    +0.000 C 
ATOM     16  F   UNL     1       7.157   4.406  11.804  0.00  0.00    +0.000 F 
ATOM     17  F   UNL     1       6.717   2.278  11.609  0.00  0.00    +0.000 F 
ATOM     18  F   UNL     1       5.097   3.733  11.571  0.00  0.00    +0.000 F 
ENDBRANCH  14  15
ENDBRANCH  13  14
ENDBRANCH   9  13
ENDBRANCH   4   6
BRANCH   1  19
ATOM     19  O   UNL     1       1.979   7.803  20.872  0.00  0.00    +0.000 OA
BRANCH  19  23
ATOM     20  C   UNL     1      -0.775  10.975  21.101  0.00  0.00    +0.000 A 
ATOM     21  C   UNL     1      -0.526  10.135  22.194  0.00  0.00    +0.000 A 
ATOM     22  C   UNL     1       0.402   9.085  22.097  0.00  0.00    +0.000 A 
ATOM     23  C   UNL     1       1.082   8.843  20.900  0.00  0.00    +0.000 A 
ATOM     24  C   UNL     1       0.841   9.690  19.814  0.00  0.00    +0.000 A 
ATOM     25  C   UNL     1      -0.065  10.741  19.914  0.00  0.00    +0.000 A 
BRANCH  20  26
ATOM     26  C   UNL     1      -1.756  12.135  21.173  0.00  0.00    +0.000 C 
ATOM     27  C   UNL     1      -1.115  13.430  20.655  0.00  0.00    +0.000 C 
BRANCH  26  31
ATOM     28  C   UNL     1      -3.731  12.619  24.377  0.00  0.00    +0.000 C 
ATOM     29  C   UNL     1      -3.527  12.432  22.896  0.00  0.00    +0.000 C 
ATOM     30  O   UNL     1      -4.455  12.387  22.098  0.00  0.00    +0.000 OA
ATOM     31  N   UNL     1      -2.205  12.298  22.550  0.00  0.00    +0.000 N 
ATOM     32  H   UNL     1      -1.504  12.381  23.273  0.00  0.00    +0.000 HD
ENDBRANCH  26  31
ENDBRANCH  20  26
ENDBRANCH  19  23
ENDBRANCH   1  19
TORSDOF 8
ENDMDL
MODEL 4
REMARK VINA RESULT:      -7.6      0.603      1.237
REMARK  Name = 
REMARK  10 active torsions:
REMARK  status: ('A' for Active; 'I' for Inactive)
REMARK    1  A    between atoms: C_1  and  C_2
REMARK    2  A    between atoms: N_4  and  C_5
REMARK    3  A    between atoms: C_5  and  C_6
REMARK    4  A    between atoms: C_5  and  C_7
REMARK    5  A    between atoms: C_10  and  O_11
REMARK    6  A    between atoms: O_11  and  C_12
REMARK    7  A    between atoms: N_15  and  C_16
REMARK    8  A    between atoms: C_19  and  O_20
REMARK    9  A    between atoms: O_20  and  C_21
REMARK   10  A    between atoms: C_21  and  C_22
REMARK                            x       y       z     vdW  Elec       q    Type
REMARK                         _______ _______ _______ _____ _____    ______ ____
ROOT
ATOM      1  C   UNL     1       2.600   2.979  21.011  0.00  0.00    +0.000 C 
ATOM      2  C   UNL     1       1.178   2.883  20.456  0.00  0.00    +0.000 C 
ATOM      3  C   UNL     1       0.968   4.149  19.621  0.00  0.00    +0.000 C 
ATOM      4  N   UNL     1       1.866   5.121  20.215  0.00  0.00    +0.000 N 
ATOM      5  C   UNL     1       2.871   4.495  21.058  0.00  0.00    +0.000 C 
ENDROOT
BRANCH   4   6
ATOM      6  C   UNL     1       1.635   6.477  20.195  0.00  0.00    +0.000 A 
ATOM      7  N   UNL     1       1.050   7.047  21.279  0.00  0.00    +0.000 NA
ATOM      8  C   UNL     1       0.860   8.397  21.280  0.00  0.00    +0.000 A 
ATOM      9  C   UNL     1       1.237   9.253  20.255  0.00  0.00    +0.000 A 
ATOM     10  C   UNL     1       1.797   8.669  19.132  0.00  0.00    +0.000 A 
ATOM     11  C   UNL     1       1.992   7.290  19.108  0.00  0.00    +0.000 A 
ATOM     12  F   UNL     1       2.545   6.774  17.996  0.00  0.00    +0.000 F 
BRANCH   9  13
ATOM     13  O   UNL     1       0.988  10.587  20.415  0.00  0.00    +0.000 OA
BRANCH  13  14
ATOM     14  C   UNL     1      -0.390  10.944  20.628  0.00  0.00    +0.000 C 
BRANCH  14  15
ATOM     15  C   UNL     1      -1.160  11.102  19.319  0.00  0.00    +0.000 C 
ATOM     16  F   UNL     1      -1.655   9.938  18.849  0.00  0.00    +0.000 F 
ATOM     17  F   UNL     1      -2.198  11.957  19.470  0.00  0.00    +0.000 F 
ATOM     18  F   UNL     1      -0.357  11.619  18.356  0.00  0.00    +0.000 F 
ENDBRANCH  14  15
ENDBRANCH  13  14
ENDBRANCH   9  13
ENDBRANCH   4   6
BRANCH   1  19
ATOM     19  O   UNL     1       3.518   2.256  20.169  0.00  0.00    +0.000 OA
BRANCH  19  23
ATOM     20  C   UNL     1       5.232   4.515  17.061  0.00  0.00    +0.000 A 
ATOM     21  C   UNL     1       5.709   4.589  18.377  0.00  0.00    +0.000 A 
ATOM     22  C   UNL     1       5.125   3.822  19.398  0.00  0.00    +0.000 A 
ATOM     23  C   UNL     1       4.041   2.982  19.127  0.00  0.00    +0.000 A 
ATOM     24  C   UNL     1       3.574   2.900  17.813  0.00  0.00    +0.000 A 
ATOM     25  C   UNL     1       4.163   3.646  16.796  0.00  0.00    +0.000 A 
BRANCH  20  26
ATOM     26  C   UNL     1       5.851   5.314  15.925  0.00  0.00    +0.000 C 
ATOM     27  C   UNL     1       5.108   6.640  15.717  0.00  0.00    +0.000 C 
BRANCH  26  31
ATOM     28  C   UNL     1       6.533   3.689  12.565  0.00  0.00    +0.000 C 
ATOM     29  C   UNL     1       6.799   4.591  13.741  0.00  0.00    +0.000 C 
ATOM     30  O   UNL     1       7.795   5.301  13.821  0.00  0.00    +0.000 OA
ATOM     31  N   UNL     1       5.828   4.513  14.708  0.00  0.00    +0.000 N 
ATOM     32  H   UNL     1       5.024   3.923  14.541  0.00  0.00    +0.000 HD
ENDBRANCH  26  31
ENDBRANCH  20  26
ENDBRANCH  19  23
ENDBRANCH   1  19
TORSDOF 8
ENDMDL
MODEL 5
REMARK VINA RESULT:      -7.5      3.673      9.626
REMARK  Name = 
REMARK  10 active torsions:
REMARK  status: ('A' for Active; 'I' for Inactive)
REMARK    1  A    between atoms: C_1  and  C_2
REMARK    2  A    between atoms: N_4  and  C_5
REMARK    3  A    between atoms: C_5  and  C_6
REMARK    4  A    between atoms: C_5  and  C_7
REMARK    5  A    between atoms: C_10  and  O_11
REMARK    6  A    between atoms: O_11  and  C_12
REMARK    7  A    between atoms: N_15  and  C_16
REMARK    8  A    between atoms: C_19  and  O_20
REMARK    9  A    between atoms: O_20  and  C_21
REMARK   10  A    between atoms: C_21  and  C_22
REMARK                            x       y       z     vdW  Elec       q    Type
REMARK                         _______ _______ _______ _____ _____    ______ ____
ROOT
ATOM      1  C   UNL     1       1.373   7.122  20.332  0.00  0.00    +0.000 C 
ATOM      2  C   UNL     1       1.684   5.689  20.768  0.00  0.00    +0.000 C 
ATOM      3  C   UNL     1       3.046   5.352  20.159  0.00  0.00    +0.000 C 
ATOM      4  N   UNL     1       3.132   6.198  18.984  0.00  0.00    +0.000 N 
ATOM      5  C   UNL     1       2.163   7.281  19.018  0.00  0.00    +0.000 C 
ENDROOT
BRANCH   4   6
ATOM      6  C   UNL     1       3.855   5.867  17.862  0.00  0.00    +0.000 A 
ATOM      7  N   UNL     1       4.631   6.822  17.291  0.00  0.00    +0.000 NA
ATOM      8  C   UNL     1       5.382   6.486  16.205  0.00  0.00    +0.000 A 
ATOM      9  C   UNL     1       5.432   5.221  15.634  0.00  0.00    +0.000 A 
ATOM     10  C   UNL     1       4.609   4.257  16.190  0.00  0.00    +0.000 A 
ATOM     11  C   UNL     1       3.828   4.583  17.296  0.00  0.00    +0.000 A 
ATOM     12  F   UNL     1       3.052   3.608  17.800  0.00  0.00    +0.000 F 
BRANCH   9  13
ATOM     13  O   UNL     1       6.247   5.042  14.553  0.00  0.00    +0.000 OA
BRANCH  13  14
ATOM     14  C   UNL     1       6.360   3.690  14.072  0.00  0.00    +0.000 C 
BRANCH  14  15
ATOM     15  C   UNL     1       5.945   3.555  12.609  0.00  0.00    +0.000 C 
ATOM     16  F   UNL     1       4.670   3.930  12.381  0.00  0.00    +0.000 F 
ATOM     17  F   UNL     1       6.741   4.304  11.811  0.00  0.00    +0.000 F 
ATOM     18  F   UNL     1       6.069   2.269  12.198  0.00  0.00    +0.000 F 
ENDBRANCH  14  15
ENDBRANCH  13  14
ENDBRANCH   9  13
ENDBRANCH   4   6
BRANCH   1  19
ATOM     19  O   UNL     1       1.765   8.055  21.356  0.00  0.00    +0.000 OA
BRANCH  19  23
ATOM     20  C   UNL     1      -0.671  11.457  21.795  0.00  0.00    +0.000 A 
ATOM     21  C   UNL     1      -0.508  10.528  22.832  0.00  0.00    +0.000 A 
ATOM     22  C   UNL     1       0.315   9.402  22.665  0.00  0.00    +0.000 A 
ATOM     23  C   UNL     1       0.973   9.173  21.453  0.00  0.00    +0.000 A 
ATOM     24  C   UNL     1       0.819  10.107  20.425  0.00  0.00    +0.000 A 
ATOM     25  C   UNL     1       0.018  11.232  20.594  0.00  0.00    +0.000 A 
BRANCH  20  26
ATOM     26  C   UNL     1      -1.536  12.699  21.944  0.00  0.00    +0.000 C 
ATOM     27  C   UNL     1      -1.343  13.340  23.326  0.00  0.00    +0.000 C 
BRANCH  26  31
ATOM     28  C   UNL     1      -5.237  12.609  21.116  0.00  0.00    +0.000 C 
ATOM     29  C   UNL     1      -3.857  13.205  21.204  0.00  0.00    +0.000 C 
ATOM     30  O   UNL     1      -3.597  14.339  20.820  0.00  0.00    +0.000 OA
ATOM     31  N   UNL     1      -2.932  12.339  21.733  0.00  0.00    +0.000 N 
ATOM     32  H   UNL     1      -3.244  11.433  22.053  0.00  0.00    +0.000 HD
ENDBRANCH  26  31
ENDBRANCH  20  26
ENDBRANCH  19  23
ENDBRANCH   1  19
TORSDOF 8
ENDMDL
MODEL 6
REMARK VINA RESULT:      -7.4      1.378      1.557
REMARK  Name = 
REMARK  10 active torsions:
REMARK  status: ('A' for Active; 'I' for Inactive)
REMARK    1  A    between atoms: C_1  and  C_2
REMARK    2  A    between atoms: N_4  and  C_5
REMARK    3  A    between atoms: C_5  and  C_6
REMARK    4  A    between atoms: C_5  and  C_7
REMARK    5  A    between atoms: C_10  and  O_11
REMARK    6  A    between atoms: O_11  and  C_12
REMARK    7  A    between atoms: N_15  and  C_16
REMARK    8  A    between atoms: C_19  and  O_20
REMARK    9  A    between atoms: O_20  and  C_21
REMARK   10  A    between atoms: C_21  and  C_22
REMARK                            x       y       z     vdW  Elec       q    Type
REMARK                         _______ _______ _______ _____ _____    ______ ____
ROOT
ATOM      1  C   UNL     1       2.762   3.037  21.086  0.00  0.00    +0.000 C 
ATOM      2  C   UNL     1       1.240   2.926  20.976  0.00  0.00    +0.000 C 
ATOM      3  C   UNL     1       0.791   4.128  20.144  0.00  0.00    +0.000 C 
ATOM      4  N   UNL     1       1.818   5.127  20.375  0.00  0.00    +0.000 N 
ATOM      5  C   UNL     1       3.027   4.548  20.936  0.00  0.00    +0.000 C 
ENDROOT
BRANCH   4   6
ATOM      6  C   UNL     1       1.585   6.481  20.318  0.00  0.00    +0.000 A 
ATOM      7  N   UNL     1       0.894   7.059  21.333  0.00  0.00    +0.000 NA
ATOM      8  C   UNL     1       0.699   8.407  21.302  0.00  0.00    +0.000 A 
ATOM      9  C   UNL     1       1.172   9.255  20.309  0.00  0.00    +0.000 A 
ATOM     10  C   UNL     1       1.841   8.662  19.253  0.00  0.00    +0.000 A 
ATOM     11  C   UNL     1       2.043   7.284  19.262  0.00  0.00    +0.000 A 
ATOM     12  F   UNL     1       2.704   6.760  18.215  0.00  0.00    +0.000 F 
BRANCH   9  13
ATOM     13  O   UNL     1       0.903  10.589  20.430  0.00  0.00    +0.000 OA
BRANCH  13  14
ATOM     14  C   UNL     1      -0.482  10.933  20.612  0.00  0.00    +0.000 C 
BRANCH  14  15
ATOM     15  C   UNL     1      -0.727  11.704  21.907  0.00  0.00    +0.000 C 
ATOM     16  F   UNL     1      -2.019  12.053  22.082  0.00  0.00    +0.000 F 
ATOM     17  F   UNL     1      -0.351  10.973  22.982  0.00  0.00    +0.000 F 
ATOM     18  F   UNL     1       0.007  12.844  21.926  0.00  0.00    +0.000 F 
ENDBRANCH  14  15
ENDBRANCH  13  14
ENDBRANCH   9  13
ENDBRANCH   4   6
BRANCH   1  19
ATOM     19  O   UNL     1       3.399   2.237  20.073  0.00  0.00    +0.000 OA
BRANCH  19  23
ATOM     20  C   UNL     1       5.177   4.406  16.938  0.00  0.00    +0.000 A 
ATOM     21  C   UNL     1       4.015   3.646  16.743  0.00  0.00    +0.000 A 
ATOM     22  C   UNL     1       3.435   2.934  17.805  0.00  0.00    +0.000 A 
ATOM     23  C   UNL     1       4.017   2.951  19.076  0.00  0.00    +0.000 A 
ATOM     24  C   UNL     1       5.168   3.719  19.272  0.00  0.00    +0.000 A 
ATOM     25  C   UNL     1       5.735   4.439  18.224  0.00  0.00    +0.000 A 
BRANCH  20  26
ATOM     26  C   UNL     1       5.822   5.207  15.817  0.00  0.00    +0.000 C 
ATOM     27  C   UNL     1       5.104   6.549  15.617  0.00  0.00    +0.000 C 
BRANCH  26  31
ATOM     28  C   UNL     1       6.459   3.673  12.406  0.00  0.00    +0.000 C 
ATOM     29  C   UNL     1       6.717   4.578  13.583  0.00  0.00    +0.000 C 
ATOM     30  O   UNL     1       7.664   5.353  13.629  0.00  0.00    +0.000 OA
ATOM     31  N   UNL     1       5.798   4.421  14.590  0.00  0.00    +0.000 N 
ATOM     32  H   UNL     1       5.029   3.780  14.450  0.00  0.00    +0.000 HD
ENDBRANCH  26  31
ENDBRANCH  20  26
ENDBRANCH  19  23
ENDBRANCH   1  19
TORSDOF 8
ENDMDL
MODEL 7
REMARK VINA RESULT:      -7.4      3.928      9.953
REMARK  Name = 
REMARK  10 active torsions:
REMARK  status: ('A' for Active; 'I' for Inactive)
REMARK    1  A    between atoms: C_1  and  C_2
REMARK    2  A    between atoms: N_4  and  C_5
REMARK    3  A    between atoms: C_5  and  C_6
REMARK    4  A    between atoms: C_5  and  C_7
REMARK    5  A    between atoms: C_10  and  O_11
REMARK    6  A    between atoms: O_11  and  C_12
REMARK    7  A    between atoms: N_15  and  C_16
REMARK    8  A    between atoms: C_19  and  O_20
REMARK    9  A    between atoms: O_20  and  C_21
REMARK   10  A    between atoms: C_21  and  C_22
REMARK                            x       y       z     vdW  Elec       q    Type
REMARK                         _______ _______ _______ _____ _____    ______ ____
ROOT
ATOM      1  C   UNL     1       1.467   7.525  20.134  0.00  0.00    +0.000 C 
ATOM      2  C   UNL     1       1.362   6.118  20.726  0.00  0.00    +0.000 C 
ATOM      3  C   UNL     1       2.665   5.408  20.356  0.00  0.00    +0.000 C 
ATOM      4  N   UNL     1       3.101   6.072  19.141  0.00  0.00    +0.000 N 
ATOM      5  C   UNL     1       2.429   7.345  18.943  0.00  0.00    +0.000 C 
ENDROOT
BRANCH   4   6
ATOM      6  C   UNL     1       3.855   5.456  18.170  0.00  0.00    +0.000 A 
ATOM      7  N   UNL     1       3.797   4.104  18.069  0.00  0.00    +0.000 NA
ATOM      8  C   UNL     1       4.509   3.495  17.080  0.00  0.00    +0.000 A 
ATOM      9  C   UNL     1       5.289   4.156  16.140  0.00  0.00    +0.000 A 
ATOM     10  C   UNL     1       5.381   5.531  16.266  0.00  0.00    +0.000 A 
ATOM     11  C   UNL     1       4.667   6.172  17.276  0.00  0.00    +0.000 A 
ATOM     12  F   UNL     1       4.788   7.508  17.351  0.00  0.00    +0.000 F 
BRANCH   9  13
ATOM     13  O   UNL     1       5.931   3.399  15.201  0.00  0.00    +0.000 OA
BRANCH  13  14
ATOM     14  C   UNL     1       6.553   4.131  14.129  0.00  0.00    +0.000 C 
BRANCH  14  15
ATOM     15  C   UNL     1       6.072   3.673  12.754  0.00  0.00    +0.000 C 
ATOM     16  F   UNL     1       6.215   2.346  12.556  0.00  0.00    +0.000 F 
ATOM     17  F   UNL     1       4.766   3.976  12.574  0.00  0.00    +0.000 F 
ATOM     18  F   UNL     1       6.765   4.305  11.775  0.00  0.00    +0.000 F 
ENDBRANCH  14  15
ENDBRANCH  13  14
ENDBRANCH   9  13
ENDBRANCH   4   6
BRANCH   1  19
ATOM     19  O   UNL     1       1.945   8.453  21.125  0.00  0.00    +0.000 OA
BRANCH  19  23
ATOM     20  C   UNL     1      -0.933  11.267  22.351  0.00  0.00    +0.000 A 
ATOM     21  C   UNL     1      -0.327  11.334  21.088  0.00  0.00    +0.000 A 
ATOM     22  C   UNL     1       0.628  10.381  20.698  0.00  0.00    +0.000 A 
ATOM     23  C   UNL     1       1.009   9.356  21.569  0.00  0.00    +0.000 A 
ATOM     24  C   UNL     1       0.394   9.283  22.822  0.00  0.00    +0.000 A 
ATOM     25  C   UNL     1      -0.564  10.217  23.204  0.00  0.00    +0.000 A 
BRANCH  20  26
ATOM     26  C   UNL     1      -1.986  12.268  22.801  0.00  0.00    +0.000 C 
ATOM     27  C   UNL     1      -2.924  12.637  21.644  0.00  0.00    +0.000 C 
BRANCH  26  31
ATOM     28  C   UNL     1      -1.050  15.488  24.577  0.00  0.00    +0.000 C 
ATOM     29  C   UNL     1      -1.926  14.320  24.207  0.00  0.00    +0.000 C 
ATOM     30  O   UNL     1      -3.050  14.161  24.668  0.00  0.00    +0.000 OA
ATOM     31  N   UNL     1      -1.324  13.455  23.327  0.00  0.00    +0.000 N 
ATOM     32  H   UNL     1      -0.405  13.684  22.974  0.00  0.00    +0.000 HD
ENDBRANCH  26  31
ENDBRANCH  20  26
ENDBRANCH  19  23
ENDBRANCH   1  19
TORSDOF 8
ENDMDL
MODEL 8
REMARK VINA RESULT:      -7.4      2.612      3.508
REMARK  Name = 
REMARK  10 active torsions:
REMARK  status: ('A' for Active; 'I' for Inactive)
REMARK    1  A    between atoms: C_1  and  C_2
REMARK    2  A    between atoms: N_4  and  C_5
REMARK    3  A    between atoms: C_5  and  C_6
REMARK    4  A    between atoms: C_5  and  C_7
REMARK    5  A    between atoms: C_10  and  O_11
REMARK    6  A    between atoms: O_11  and  C_12
REMARK    7  A    between atoms: N_15  and  C_16
REMARK    8  A    between atoms: C_19  and  O_20
REMARK    9  A    between atoms: O_20  and  C_21
REMARK   10  A    between atoms: C_21  and  C_22
REMARK                            x       y       z     vdW  Elec       q    Type
REMARK                         _______ _______ _______ _____ _____    ______ ____
ROOT
ATOM      1  C   UNL     1       2.587   5.926  19.276  0.00  0.00    +0.000 C 
ATOM      2  C   UNL     1       2.220   6.497  17.905  0.00  0.00    +0.000 C 
ATOM      3  C   UNL     1       2.175   8.016  18.082  0.00  0.00    +0.000 C 
ATOM      4  N   UNL     1       1.856   8.203  19.485  0.00  0.00    +0.000 N 
ATOM      5  C   UNL     1       2.080   6.996  20.263  0.00  0.00    +0.000 C 
ENDROOT
BRANCH   4   6
ATOM      6  C   UNL     1       1.180   9.299  19.970  0.00  0.00    +0.000 A 
ATOM      7  N   UNL     1       0.663  10.182  19.079  0.00  0.00    +0.000 NA
ATOM      8  C   UNL     1      -0.045  11.246  19.554  0.00  0.00    +0.000 A 
ATOM      9  C   UNL     1      -0.299  11.494  20.897  0.00  0.00    +0.000 A 
ATOM     10  C   UNL     1       0.261  10.617  21.808  0.00  0.00    +0.000 A 
ATOM     11  C   UNL     1       0.995   9.528  21.342  0.00  0.00    +0.000 A 
ATOM     12  F   UNL     1       1.513   8.703  22.269  0.00  0.00    +0.000 F 
BRANCH   9  13
ATOM     13  O   UNL     1      -1.039  12.599  21.210  0.00  0.00    +0.000 OA
BRANCH  13  14
ATOM     14  C   UNL     1      -2.406  12.350  21.585  0.00  0.00    +0.000 C 
BRANCH  14  15
ATOM     15  C   UNL     1      -2.621  12.435  23.094  0.00  0.00    +0.000 C 
ATOM     16  F   UNL     1      -1.749  13.258  23.711  0.00  0.00    +0.000 F 
ATOM     17  F   UNL     1      -3.870  12.873  23.379  0.00  0.00    +0.000 F 
ATOM     18  F   UNL     1      -2.492  11.209  23.661  0.00  0.00    +0.000 F 
ENDBRANCH  14  15
ENDBRANCH  13  14
ENDBRANCH   9  13
ENDBRANCH   4   6
BRANCH   1  19
ATOM     19  O   UNL     1       4.006   5.692  19.359  0.00  0.00    +0.000 OA
BRANCH  19  23
ATOM     20  C   UNL     1       5.740   4.492  15.719  0.00  0.00    +0.000 A 
ATOM     21  C   UNL     1       4.824   3.681  16.402  0.00  0.00    +0.000 A 
ATOM     22  C   UNL     1       4.253   4.104  17.614  0.00  0.00    +0.000 A 
ATOM     23  C   UNL     1       4.603   5.336  18.174  0.00  0.00    +0.000 A 
ATOM     24  C   UNL     1       5.507   6.149  17.486  0.00  0.00    +0.000 A 
ATOM     25  C   UNL     1       6.061   5.739  16.277  0.00  0.00    +0.000 A 
BRANCH  20  26
ATOM     26  C   UNL     1       6.363   4.078  14.395  0.00  0.00    +0.000 C 
ATOM     27  C   UNL     1       7.399   5.110  13.929  0.00  0.00    +0.000 C 
BRANCH  26  31
ATOM     28  C   UNL     1       4.268   3.243  11.344  0.00  0.00    +0.000 C 
ATOM     29  C   UNL     1       5.494   3.241  12.219  0.00  0.00    +0.000 C 
ATOM     30  O   UNL     1       6.533   2.673  11.905  0.00  0.00    +0.000 OA
ATOM     31  N   UNL     1       5.311   3.918  13.399  0.00  0.00    +0.000 N 
ATOM     32  H   UNL     1       4.429   4.384  13.559  0.00  0.00    +0.000 HD
ENDBRANCH  26  31
ENDBRANCH  20  26
ENDBRANCH  19  23
ENDBRANCH   1  19
TORSDOF 8
ENDMDL
MODEL 9
REMARK VINA RESULT:      -7.4      4.141     10.327
REMARK  Name = 
REMARK  10 active torsions:
REMARK  status: ('A' for Active; 'I' for Inactive)
REMARK    1  A    between atoms: C_1  and  C_2
REMARK    2  A    between atoms: N_4  and  C_5
REMARK    3  A    between atoms: C_5  and  C_6
REMARK    4  A    between atoms: C_5  and  C_7
REMARK    5  A    between atoms: C_10  and  O_11
REMARK    6  A    between atoms: O_11  and  C_12
REMARK    7  A    between atoms: N_15  and  C_16
REMARK    8  A    between atoms: C_19  and  O_20
REMARK    9  A    between atoms: O_20  and  C_21
REMARK   10  A    between atoms: C_21  and  C_22
REMARK                            x       y       z     vdW  Elec       q    Type
REMARK                         _______ _______ _______ _____ _____    ______ ____
ROOT
ATOM      1  C   UNL     1      -0.653  11.637  20.328  0.00  0.00    +0.000 C 
ATOM      2  C   UNL     1       0.776  12.113  20.595  0.00  0.00    +0.000 C 
ATOM      3  C   UNL     1       1.683  11.196  19.773  0.00  0.00    +0.000 C 
ATOM      4  N   UNL     1       0.928   9.964  19.649  0.00  0.00    +0.000 N 
ATOM      5  C   UNL     1      -0.478  10.150  19.963  0.00  0.00    +0.000 C 
ENDROOT
BRANCH   4   6
ATOM      6  C   UNL     1       1.513   8.726  19.509  0.00  0.00    +0.000 A 
ATOM      7  N   UNL     1       1.484   7.877  20.567  0.00  0.00    +0.000 NA
ATOM      8  C   UNL     1       2.024   6.635  20.418  0.00  0.00    +0.000 A 
ATOM      9  C   UNL     1       2.596   6.152  19.248  0.00  0.00    +0.000 A 
ATOM     10  C   UNL     1       2.663   7.031  18.181  0.00  0.00    +0.000 A 
ATOM     11  C   UNL     1       2.124   8.308  18.316  0.00  0.00    +0.000 A 
ATOM     12  F   UNL     1       2.210   9.120  17.248  0.00  0.00    +0.000 F 
BRANCH   9  13
ATOM     13  O   UNL     1       3.082   4.876  19.257  0.00  0.00    +0.000 OA
BRANCH  13  14
ATOM     14  C   UNL     1       2.851   4.111  18.059  0.00  0.00    +0.000 C 
BRANCH  14  15
ATOM     15  C   UNL     1       2.089   2.816  18.332  0.00  0.00    +0.000 C 
ATOM     16  F   UNL     1       2.399   2.257  19.520  0.00  0.00    +0.000 F 
ATOM     17  F   UNL     1       0.753   3.030  18.316  0.00  0.00    +0.000 F 
ATOM     18  F   UNL     1       2.356   1.898  17.370  0.00  0.00    +0.000 F 
ENDBRANCH  14  15
ENDBRANCH  13  14
ENDBRANCH   9  13
ENDBRANCH   4   6
BRANCH   1  19
ATOM     19  O   UNL     1      -1.257  12.420  19.281  0.00  0.00    +0.000 OA
BRANCH  19  23
ATOM     20  C   UNL     1      -5.362  11.710  18.696  0.00  0.00    +0.000 A 
ATOM     21  C   UNL     1      -4.888  12.423  19.806  0.00  0.00    +0.000 A 
ATOM     22  C   UNL     1      -3.513  12.653  19.978  0.00  0.00    +0.000 A 
ATOM     23  C   UNL     1      -2.586  12.157  19.056  0.00  0.00    +0.000 A 
ATOM     24  C   UNL     1      -3.061  11.457  17.944  0.00  0.00    +0.000 A 
ATOM     25  C   UNL     1      -4.424  11.243  17.763  0.00  0.00    +0.000 A 
BRANCH  20  26
ATOM     26  C   UNL     1      -6.844  11.459  18.463  0.00  0.00    +0.000 C 
ATOM     27  C   UNL     1      -7.697  12.535  19.147  0.00  0.00    +0.000 C 
BRANCH  26  31
ATOM     28  C   UNL     1      -7.691   8.410  20.556  0.00  0.00    +0.000 C 
ATOM     29  C   UNL     1      -7.373   9.858  20.293  0.00  0.00    +0.000 C 
ATOM     30  O   UNL     1      -7.309  10.696  21.184  0.00  0.00    +0.000 OA
ATOM     31  N   UNL     1      -7.189  10.133  18.961  0.00  0.00    +0.000 N 
ATOM     32  H   UNL     1      -7.230   9.371  18.298  0.00  0.00    +0.000 HD
ENDBRANCH  26  31
ENDBRANCH  20  26
ENDBRANCH  19  23
ENDBRANCH   1  19
TORSDOF 8
ENDMDL
