MODEL 1
REMARK VINA RESULT:      -7.0      0.000      0.000
REMARK  Name = 
REMARK  11 active torsions:
REMARK  status: ('A' for Active; 'I' for Inactive)
REMARK    1  A    between atoms: C_1  and  O_2
REMARK    2  A    between atoms: O_2  and  C_3
REMARK    3  A    between atoms: C_3  and  C_4
REMARK    4  A    between atoms: C_4  and  N_5
REMARK    5  A    between atoms: N_5  and  C_6
REMARK    6  A    between atoms: N_5  and  C_7
REMARK    7  A    between atoms: C_7  and  C_8
REMARK    8  A    between atoms: C_11  and  N_12
REMARK    9  A    between atoms: C_17  and  C_18
REMARK   10  A    between atoms: C_21  and  N_22
REMARK   11  A    between atoms: C_28  and  C_29
REMARK                            x       y       z     vdW  Elec       q    Type
REMARK                         _______ _______ _______ _____ _____    ______ ____
ROOT
ATOM      1  N   UNL     1       6.153   5.619  17.402  0.00  0.00    +0.000 N 
ATOM      2  C   UNL     1       4.838   5.458  17.854  0.00  0.00    +0.000 A 
ATOM      3  N   UNL     1       4.397   4.211  18.037  0.00  0.00    +0.000 NA
ATOM      4  C   UNL     1       3.142   4.081  18.507  0.00  0.00    +0.000 A 
ATOM      5  C   UNL     1       2.319   5.143  18.795  0.00  0.00    +0.000 A 
ATOM      6  C   UNL     1       2.843   6.398  18.570  0.00  0.00    +0.000 A 
ATOM      7  N   UNL     1       4.099   6.550  18.096  0.00  0.00    +0.000 NA
ATOM      8  H   UNL     1       6.601   4.711  17.438  0.00  0.00    +0.000 HD
ENDROOT
BRANCH   1  12
ATOM      9  C   UNL     1       8.616   8.788  18.535  0.00  0.00    +0.000 A 
ATOM     10  C   UNL     1       7.777   8.943  17.431  0.00  0.00    +0.000 A 
ATOM     11  C   UNL     1       6.973   7.872  17.039  0.00  0.00    +0.000 A 
ATOM     12  C   UNL     1       6.997   6.682  17.764  0.00  0.00    +0.000 A 
ATOM     13  C   UNL     1       7.919   6.607  18.809  0.00  0.00    +0.000 A 
ATOM     14  N   UNL     1       8.727   7.619  19.207  0.00  0.00    +0.000 NA
BRANCH   9  15
ATOM     15  C   UNL     1       9.340   9.987  19.123  0.00  0.00    +0.000 C 
BRANCH  15  16
ATOM     16  N   UNL     1       9.638  11.040  18.118  0.00  0.00    +0.000 NA
ATOM     17  C   UNL     1      11.080  11.290  18.093  0.00  0.00    +0.000 C 
BRANCH  16  18
ATOM     18  C   UNL     1       8.876  12.277  18.418  0.00  0.00    +0.000 C 
BRANCH  18  19
ATOM     19  C   UNL     1       9.744  13.389  19.023  0.00  0.00    +0.000 C 
BRANCH  19  21
ATOM     20  C   UNL     1       8.792  15.519  18.791  0.00  0.00    +0.000 C 
ATOM     21  O   UNL     1       9.675  14.566  18.210  0.00  0.00    +0.000 OA
ENDBRANCH  19  21
ENDBRANCH  18  19
ENDBRANCH  16  18
ENDBRANCH  15  16
ENDBRANCH   9  15
ENDBRANCH   1  12
BRANCH   6  22
ATOM     22  C   UNL     1       2.098   7.646  18.842  0.00  0.00    +0.000 A 
ATOM     23  C   UNL     1       1.655   8.483  17.824  0.00  0.00    +0.000 A 
ATOM     24  C   UNL     1       0.975   9.664  18.136  0.00  0.00    +0.000 A 
ATOM     25  C   UNL     1       0.734  10.042  19.463  0.00  0.00    +0.000 A 
ATOM     26  C   UNL     1       1.200   9.118  20.418  0.00  0.00    +0.000 A 
ATOM     27  N   UNL     1       1.867   7.954  20.141  0.00  0.00    +0.000 NA
BRANCH  25  28
ATOM     28  N   UNL     1       0.072  11.223  19.779  0.00  0.00    +0.000 N 
ATOM     29  C   UNL     1      -1.389  11.355  19.712  0.00  0.00    +0.000 C 
ATOM     30  C   UNL     1      -1.645  12.860  19.725  0.00  0.00    +0.000 C 
ATOM     31  C   UNL     1      -0.448  13.409  18.979  0.00  0.00    +0.000 C 
ATOM     32  F   UNL     1      -0.651  13.242  17.642  0.00  0.00    +0.000 F 
ATOM     33  C   UNL     1       0.705  12.515  19.436  0.00  0.00    +0.000 C 
ENDBRANCH  25  28
BRANCH  26  34
ATOM     34  C   UNL     1       0.951   9.289  21.825  0.00  0.00    +0.000 C 
ATOM     35  N   UNL     1       0.753   9.414  22.963  0.00  0.00    +0.000 NA
ENDBRANCH  26  34
ENDBRANCH   6  22
TORSDOF 9
ENDMDL
MODEL 2
REMARK VINA RESULT:      -6.9      1.506      1.805
REMARK  Name = 
REMARK  11 active torsions:
REMARK  status: ('A' for Active; 'I' for Inactive)
REMARK    1  A    between atoms: C_1  and  O_2
REMARK    2  A    between atoms: O_2  and  C_3
REMARK    3  A    between atoms: C_3  and  C_4
REMARK    4  A    between atoms: C_4  and  N_5
REMARK    5  A    between atoms: N_5  and  C_6
REMARK    6  A    between atoms: N_5  and  C_7
REMARK    7  A    between atoms: C_7  and  C_8
REMARK    8  A    between atoms: C_11  and  N_12
REMARK    9  A    between atoms: C_17  and  C_18
REMARK   10  A    between atoms: C_21  and  N_22
REMARK   11  A    between atoms: C_28  and  C_29
REMARK                            x       y       z     vdW  Elec       q    Type
REMARK                         _______ _______ _______ _____ _____    ______ ____
ROOT
ATOM      1  N   UNL     1       5.218   4.693  18.433  0.00  0.00    +0.000 N 
ATOM      2  C   UNL     1       4.060   4.852  19.201  0.00  0.00    +0.000 A 
ATOM      3  N   UNL     1       3.621   3.790  19.881  0.00  0.00    +0.000 NA
ATOM      4  C   UNL     1       2.527   3.976  20.644  0.00  0.00    +0.000 A 
ATOM      5  C   UNL     1       1.860   5.173  20.747  0.00  0.00    +0.000 A 
ATOM      6  C   UNL     1       2.368   6.218  20.006  0.00  0.00    +0.000 A 
ATOM      7  N   UNL     1       3.464   6.053  19.233  0.00  0.00    +0.000 NA
ATOM      8  H   UNL     1       5.616   3.790  18.661  0.00  0.00    +0.000 HD
ENDROOT
BRANCH   1  12
ATOM      9  C   UNL     1       8.039   7.711  17.854  0.00  0.00    +0.000 A 
ATOM     10  C   UNL     1       7.024   7.542  16.912  0.00  0.00    +0.000 A 
ATOM     11  C   UNL     1       6.097   6.515  17.095  0.00  0.00    +0.000 A 
ATOM     12  C   UNL     1       6.179   5.697  18.219  0.00  0.00    +0.000 A 
ATOM     13  C   UNL     1       7.270   5.905  19.064  0.00  0.00    +0.000 A 
ATOM     14  N   UNL     1       8.198   6.879  18.909  0.00  0.00    +0.000 NA
BRANCH   9  15
ATOM     15  C   UNL     1       8.931   8.939  17.809  0.00  0.00    +0.000 C 
BRANCH  15  16
ATOM     16  N   UNL     1       8.470  10.030  18.704  0.00  0.00    +0.000 NA
ATOM     17  C   UNL     1       8.181  11.222  17.905  0.00  0.00    +0.000 C 
BRANCH  16  18
ATOM     18  C   UNL     1       9.482  10.309  19.751  0.00  0.00    +0.000 C 
BRANCH  18  19
ATOM     19  C   UNL     1       9.260  11.651  20.464  0.00  0.00    +0.000 C 
BRANCH  19  21
ATOM     20  C   UNL     1      11.515  11.695  19.825  0.00  0.00    +0.000 C 
ATOM     21  O   UNL     1      10.453  12.440  20.411  0.00  0.00    +0.000 OA
ENDBRANCH  19  21
ENDBRANCH  18  19
ENDBRANCH  16  18
ENDBRANCH  15  16
ENDBRANCH   9  15
ENDBRANCH   1  12
BRANCH   6  22
ATOM     22  C   UNL     1       1.782   7.576  20.016  0.00  0.00    +0.000 A 
ATOM     23  C   UNL     1       1.736   8.372  18.876  0.00  0.00    +0.000 A 
ATOM     24  C   UNL     1       1.192   9.658  18.945  0.00  0.00    +0.000 A 
ATOM     25  C   UNL     1       0.696  10.182  20.145  0.00  0.00    +0.000 A 
ATOM     26  C   UNL     1       0.766   9.291  21.234  0.00  0.00    +0.000 A 
ATOM     27  N   UNL     1       1.293   8.027  21.195  0.00  0.00    +0.000 NA
BRANCH  25  28
ATOM     28  N   UNL     1       0.168  11.466  20.222  0.00  0.00    +0.000 N 
ATOM     29  C   UNL     1      -0.918  11.930  19.349  0.00  0.00    +0.000 C 
ATOM     30  C   UNL     1      -0.895  13.451  19.474  0.00  0.00    +0.000 C 
ATOM     31  C   UNL     1       0.577  13.749  19.664  0.00  0.00    +0.000 C 
ATOM     32  F   UNL     1       1.194  13.697  18.450  0.00  0.00    +0.000 F 
ATOM     33  C   UNL     1       1.070  12.595  20.538  0.00  0.00    +0.000 C 
ENDBRANCH  25  28
BRANCH  26  34
ATOM     34  C   UNL     1       0.212   9.619  22.521  0.00  0.00    +0.000 C 
ATOM     35  N   UNL     1      -0.241   9.897  23.553  0.00  0.00    +0.000 NA
ENDBRANCH  26  34
ENDBRANCH   6  22
TORSDOF 9
ENDMDL
MODEL 3
REMARK VINA RESULT:      -6.6      3.749      8.878
REMARK  Name = 
REMARK  11 active torsions:
REMARK  status: ('A' for Active; 'I' for Inactive)
REMARK    1  A    between atoms: C_1  and  O_2
REMARK    2  A    between atoms: O_2  and  C_3
REMARK    3  A    between atoms: C_3  and  C_4
REMARK    4  A    between atoms: C_4  and  N_5
REMARK    5  A    between atoms: N_5  and  C_6
REMARK    6  A    between atoms: N_5  and  C_7
REMARK    7  A    between atoms: C_7  and  C_8
REMARK    8  A    between atoms: C_11  and  N_12
REMARK    9  A    between atoms: C_17  and  C_18
REMARK   10  A    between atoms: C_21  and  N_22
REMARK   11  A    between atoms: C_28  and  C_29
REMARK                            x       y       z     vdW  Elec       q    Type
REMARK                         _______ _______ _______ _____ _____    ______ ____
ROOT
ATOM      1  N   UNL     1      -0.004  11.638  18.299  0.00  0.00    +0.000 N 
ATOM      2  C   UNL     1       0.441  12.938  18.565  0.00  0.00    +0.000 A 
ATOM      3  N   UNL     1      -0.486  13.873  18.785  0.00  0.00    +0.000 NA
ATOM      4  C   UNL     1      -0.035  15.108  19.077  0.00  0.00    +0.000 A 
ATOM      5  C   UNL     1       1.296  15.439  19.152  0.00  0.00    +0.000 A 
ATOM      6  C   UNL     1       2.191  14.421  18.901  0.00  0.00    +0.000 A 
ATOM      7  N   UNL     1       1.760  13.175  18.604  0.00  0.00    +0.000 NA
ATOM      8  H   UNL     1      -1.001  11.614  18.475  0.00  0.00    +0.000 HD
ENDROOT
BRANCH   1  12
ATOM      9  C   UNL     1       1.944   8.125  19.422  0.00  0.00    +0.000 A 
ATOM     10  C   UNL     1       1.214   8.831  20.378  0.00  0.00    +0.000 A 
ATOM     11  C   UNL     1       0.585  10.020  20.006  0.00  0.00    +0.000 A 
ATOM     12  C   UNL     1       0.669  10.468  18.690  0.00  0.00    +0.000 A 
ATOM     13  C   UNL     1       1.478   9.725  17.828  0.00  0.00    +0.000 A 
ATOM     14  N   UNL     1       2.117   8.578  18.159  0.00  0.00    +0.000 NA
BRANCH   9  15
ATOM     15  C   UNL     1       2.459   6.729  19.726  0.00  0.00    +0.000 C 
BRANCH  15  16
ATOM     16  N   UNL     1       3.036   6.047  18.540  0.00  0.00    +0.000 NA
ATOM     17  C   UNL     1       2.201   4.897  18.189  0.00  0.00    +0.000 C 
BRANCH  16  18
ATOM     18  C   UNL     1       4.438   5.642  18.802  0.00  0.00    +0.000 C 
BRANCH  18  19
ATOM     19  C   UNL     1       4.741   4.198  18.374  0.00  0.00    +0.000 C 
BRANCH  19  21
ATOM     20  C   UNL     1       5.234   4.285  16.084  0.00  0.00    +0.000 C 
ATOM     21  O   UNL     1       5.783   4.183  17.393  0.00  0.00    +0.000 OA
ENDBRANCH  19  21
ENDBRANCH  18  19
ENDBRANCH  16  18
ENDBRANCH  15  16
ENDBRANCH   9  15
ENDBRANCH   1  12
BRANCH   6  22
ATOM     22  C   UNL     1       3.658  14.601  18.957  0.00  0.00    +0.000 A 
ATOM     23  C   UNL     1       4.458  14.536  17.821  0.00  0.00    +0.000 A 
ATOM     24  C   UNL     1       5.843  14.690  17.931  0.00  0.00    +0.000 A 
ATOM     25  C   UNL     1       6.460  14.900  19.170  0.00  0.00    +0.000 A 
ATOM     26  C   UNL     1       5.564  14.974  20.255  0.00  0.00    +0.000 A 
ATOM     27  N   UNL     1       4.205  14.827  20.175  0.00  0.00    +0.000 NA
BRANCH  25  28
ATOM     28  N   UNL     1       7.839  15.039  19.287  0.00  0.00    +0.000 N 
ATOM     29  C   UNL     1       8.604  16.029  18.519  0.00  0.00    +0.000 C 
ATOM     30  C   UNL     1      10.056  15.571  18.630  0.00  0.00    +0.000 C 
ATOM     31  C   UNL     1       9.928  14.064  18.676  0.00  0.00    +0.000 C 
ATOM     32  F   UNL     1       9.730  13.603  17.409  0.00  0.00    +0.000 F 
ATOM     33  C   UNL     1       8.666  13.832  19.508  0.00  0.00    +0.000 C 
ENDBRANCH  25  28
BRANCH  26  34
ATOM     34  C   UNL     1       6.009  15.286  21.587  0.00  0.00    +0.000 C 
ATOM     35  N   UNL     1       6.370  15.523  22.665  0.00  0.00    +0.000 NA
ENDBRANCH  26  34
ENDBRANCH   6  22
TORSDOF 9
ENDMDL
MODEL 4
REMARK VINA RESULT:      -6.6      2.824      6.809
REMARK  Name = 
REMARK  11 active torsions:
REMARK  status: ('A' for Active; 'I' for Inactive)
REMARK    1  A    between atoms: C_1  and  O_2
REMARK    2  A    between atoms: O_2  and  C_3
REMARK    3  A    between atoms: C_3  and  C_4
REMARK    4  A    between atoms: C_4  and  N_5
REMARK    5  A    between atoms: N_5  and  C_6
REMARK    6  A    between atoms: N_5  and  C_7
REMARK    7  A    between atoms: C_7  and  C_8
REMARK    8  A    between atoms: C_11  and  N_12
REMARK    9  A    between atoms: C_17  and  C_18
REMARK   10  A    between atoms: C_21  and  N_22
REMARK   11  A    between atoms: C_28  and  C_29
REMARK                            x       y       z     vdW  Elec       q    Type
REMARK                         _______ _______ _______ _____ _____    ______ ____
ROOT
ATOM      1  N   UNL     1       1.114  13.605  20.163  0.00  0.00    +0.000 N 
ATOM      2  C   UNL     1       0.500  12.388  19.846  0.00  0.00    +0.000 A 
ATOM      3  N   UNL     1      -0.834  12.363  19.807  0.00  0.00    +0.000 NA
ATOM      4  C   UNL     1      -1.402  11.191  19.462  0.00  0.00    +0.000 A 
ATOM      5  C   UNL     1      -0.691  10.055  19.163  0.00  0.00    +0.000 A 
ATOM      6  C   UNL     1       0.682  10.158  19.237  0.00  0.00    +0.000 A 
ATOM      7  N   UNL     1       1.272  11.324  19.582  0.00  0.00    +0.000 NA
ATOM      8  H   UNL     1       0.396  14.319  20.162  0.00  0.00    +0.000 HD
ENDROOT
BRANCH   1  12
ATOM      9  C   UNL     1       4.780  14.824  18.590  0.00  0.00    +0.000 A 
ATOM     10  C   UNL     1       4.636  14.723  19.974  0.00  0.00    +0.000 A 
ATOM     11  C   UNL     1       3.401  14.341  20.499  0.00  0.00    +0.000 A 
ATOM     12  C   UNL     1       2.345  14.039  19.641  0.00  0.00    +0.000 A 
ATOM     13  C   UNL     1       2.572  14.236  18.278  0.00  0.00    +0.000 A 
ATOM     14  N   UNL     1       3.751  14.623  17.735  0.00  0.00    +0.000 NA
BRANCH   9  15
ATOM     15  C   UNL     1       6.153  15.025  17.974  0.00  0.00    +0.000 C 
BRANCH  15  16
ATOM     16  N   UNL     1       7.255  14.498  18.819  0.00  0.00    +0.000 NA
ATOM     17  C   UNL     1       8.068  15.614  19.306  0.00  0.00    +0.000 C 
BRANCH  16  18
ATOM     18  C   UNL     1       8.073  13.521  18.059  0.00  0.00    +0.000 C 
BRANCH  18  19
ATOM     19  C   UNL     1       9.556  13.535  18.457  0.00  0.00    +0.000 C 
BRANCH  19  21
ATOM     20  C   UNL     1      11.486  12.664  17.450  0.00  0.00    +0.000 C 
ATOM     21  O   UNL     1      10.380  13.546  17.286  0.00  0.00    +0.000 OA
ENDBRANCH  19  21
ENDBRANCH  18  19
ENDBRANCH  16  18
ENDBRANCH  15  16
ENDBRANCH   9  15
ENDBRANCH   1  12
BRANCH   6  22
ATOM     22  C   UNL     1       1.596   9.037  18.930  0.00  0.00    +0.000 A 
ATOM     23  C   UNL     1       2.491   9.077  17.867  0.00  0.00    +0.000 A 
ATOM     24  C   UNL     1       3.317   7.980  17.607  0.00  0.00    +0.000 A 
ATOM     25  C   UNL     1       3.261   6.819  18.388  0.00  0.00    +0.000 A 
ATOM     26  C   UNL     1       2.341   6.885  19.453  0.00  0.00    +0.000 A 
ATOM     27  N   UNL     1       1.521   7.947  19.731  0.00  0.00    +0.000 NA
BRANCH  25  28
ATOM     28  N   UNL     1       4.070   5.719  18.124  0.00  0.00    +0.000 N 
ATOM     29  C   UNL     1       5.534   5.807  18.065  0.00  0.00    +0.000 C 
ATOM     30  C   UNL     1       5.973   4.526  17.362  0.00  0.00    +0.000 C 
ATOM     31  C   UNL     1       4.840   4.271  16.392  0.00  0.00    +0.000 C 
ATOM     32  F   UNL     1       4.996   5.086  15.312  0.00  0.00    +0.000 F 
ATOM     33  C   UNL     1       3.594   4.690  17.174  0.00  0.00    +0.000 C 
ENDBRANCH  25  28
BRANCH  26  34
ATOM     34  C   UNL     1       2.221   5.826  20.420  0.00  0.00    +0.000 C 
ATOM     35  N   UNL     1       2.135   4.964  21.193  0.00  0.00    +0.000 NA
ENDBRANCH  26  34
ENDBRANCH   6  22
TORSDOF 9
ENDMDL
MODEL 5
REMARK VINA RESULT:      -6.6      1.725      2.036
REMARK  Name = 
REMARK  11 active torsions:
REMARK  status: ('A' for Active; 'I' for Inactive)
REMARK    1  A    between atoms: C_1  and  O_2
REMARK    2  A    between atoms: O_2  and  C_3
REMARK    3  A    between atoms: C_3  and  C_4
REMARK    4  A    between atoms: C_4  and  N_5
REMARK    5  A    between atoms: N_5  and  C_6
REMARK    6  A    between atoms: N_5  and  C_7
REMARK    7  A    between atoms: C_7  and  C_8
REMARK    8  A    between atoms: C_11  and  N_12
REMARK    9  A    between atoms: C_17  and  C_18
REMARK   10  A    between atoms: C_21  and  N_22
REMARK   11  A    between atoms: C_28  and  C_29
REMARK                            x       y       z     vdW  Elec       q    Type
REMARK                         _______ _______ _______ _____ _____    ______ ____
ROOT
ATOM      1  N   UNL     1       5.335   4.770  18.400  0.00  0.00    +0.000 N 
ATOM      2  C   UNL     1       4.141   4.896  19.119  0.00  0.00    +0.000 A 
ATOM      3  N   UNL     1       3.675   3.807  19.735  0.00  0.00    +0.000 NA
ATOM      4  C   UNL     1       2.545   3.960  20.452  0.00  0.00    +0.000 A 
ATOM      5  C   UNL     1       1.870   5.150  20.570  0.00  0.00    +0.000 A 
ATOM      6  C   UNL     1       2.408   6.226  19.896  0.00  0.00    +0.000 A 
ATOM      7  N   UNL     1       3.539   6.093  19.169  0.00  0.00    +0.000 NA
ATOM      8  H   UNL     1       5.725   3.859  18.612  0.00  0.00    +0.000 HD
ENDROOT
BRANCH   1  12
ATOM      9  C   UNL     1       8.173   7.809  18.079  0.00  0.00    +0.000 A 
ATOM     10  C   UNL     1       7.124   7.762  17.161  0.00  0.00    +0.000 A 
ATOM     11  C   UNL     1       6.191   6.728  17.255  0.00  0.00    +0.000 A 
ATOM     12  C   UNL     1       6.301   5.783  18.272  0.00  0.00    +0.000 A 
ATOM     13  C   UNL     1       7.423   5.881  19.096  0.00  0.00    +0.000 A 
ATOM     14  N   UNL     1       8.357   6.858  19.023  0.00  0.00    +0.000 NA
BRANCH   9  15
ATOM     15  C   UNL     1       9.079   9.026  18.147  0.00  0.00    +0.000 C 
BRANCH  15  16
ATOM     16  N   UNL     1       8.444  10.192  18.813  0.00  0.00    +0.000 NA
ATOM     17  C   UNL     1       8.277  11.274  17.842  0.00  0.00    +0.000 C 
BRANCH  16  18
ATOM     18  C   UNL     1       9.249  10.627  19.980  0.00  0.00    +0.000 C 
BRANCH  18  19
ATOM     19  C   UNL     1       9.596  12.123  19.951  0.00  0.00    +0.000 C 
BRANCH  19  21
ATOM     20  C   UNL     1       8.713  12.024  22.120  0.00  0.00    +0.000 C 
ATOM     21  O   UNL     1       9.692  12.632  21.285  0.00  0.00    +0.000 OA
ENDBRANCH  19  21
ENDBRANCH  18  19
ENDBRANCH  16  18
ENDBRANCH  15  16
ENDBRANCH   9  15
ENDBRANCH   1  12
BRANCH   6  22
ATOM     22  C   UNL     1       1.817   7.581  19.930  0.00  0.00    +0.000 A 
ATOM     23  C   UNL     1       1.714   8.375  18.793  0.00  0.00    +0.000 A 
ATOM     24  C   UNL     1       1.167   9.658  18.885  0.00  0.00    +0.000 A 
ATOM     25  C   UNL     1       0.726  10.181  20.106  0.00  0.00    +0.000 A 
ATOM     26  C   UNL     1       0.850   9.293  21.192  0.00  0.00    +0.000 A 
ATOM     27  N   UNL     1       1.380   8.031  21.131  0.00  0.00    +0.000 NA
BRANCH  25  28
ATOM     28  N   UNL     1       0.195  11.463  20.206  0.00  0.00    +0.000 N 
ATOM     29  C   UNL     1       0.773  12.496  21.075  0.00  0.00    +0.000 C 
ATOM     30  C   UNL     1      -0.317  13.556  21.198  0.00  0.00    +0.000 C 
ATOM     31  C   UNL     1      -1.588  12.737  21.148  0.00  0.00    +0.000 C 
ATOM     32  F   UNL     1      -1.796  12.176  22.372  0.00  0.00    +0.000 F 
ATOM     33  C   UNL     1      -1.272  11.640  20.130  0.00  0.00    +0.000 C 
ENDBRANCH  25  28
BRANCH  26  34
ATOM     34  C   UNL     1       0.355   9.621  22.503  0.00  0.00    +0.000 C 
ATOM     35  N   UNL     1      -0.031   9.890  23.564  0.00  0.00    +0.000 NA
ENDBRANCH  26  34
ENDBRANCH   6  22
TORSDOF 9
ENDMDL
MODEL 6
REMARK VINA RESULT:      -6.5      2.955      6.797
REMARK  Name = 
REMARK  11 active torsions:
REMARK  status: ('A' for Active; 'I' for Inactive)
REMARK    1  A    between atoms: C_1  and  O_2
REMARK    2  A    between atoms: O_2  and  C_3
REMARK    3  A    between atoms: C_3  and  C_4
REMARK    4  A    between atoms: C_4  and  N_5
REMARK    5  A    between atoms: N_5  and  C_6
REMARK    6  A    between atoms: N_5  and  C_7
REMARK    7  A    between atoms: C_7  and  C_8
REMARK    8  A    between atoms: C_11  and  N_12
REMARK    9  A    between atoms: C_17  and  C_18
REMARK   10  A    between atoms: C_21  and  N_22
REMARK   11  A    between atoms: C_28  and  C_29
REMARK                            x       y       z     vdW  Elec       q    Type
REMARK                         _______ _______ _______ _____ _____    ______ ____
ROOT
ATOM      1  N   UNL     1       0.908  13.414  19.952  0.00  0.00    +0.000 N 
ATOM      2  C   UNL     1       0.373  12.218  19.458  0.00  0.00    +0.000 A 
ATOM      3  N   UNL     1      -0.925  12.204  19.150  0.00  0.00    +0.000 NA
ATOM      4  C   UNL     1      -1.410  11.056  18.641  0.00  0.00    +0.000 A 
ATOM      5  C   UNL     1      -0.650   9.929  18.436  0.00  0.00    +0.000 A 
ATOM      6  C   UNL     1       0.679  10.019  18.790  0.00  0.00    +0.000 A 
ATOM      7  N   UNL     1       1.185  11.162  19.304  0.00  0.00    +0.000 NA
ATOM      8  H   UNL     1       0.203  14.133  19.840  0.00  0.00    +0.000 HD
ENDROOT
BRANCH   1  12
ATOM      9  C   UNL     1       4.775  14.814  19.258  0.00  0.00    +0.000 A 
ATOM     10  C   UNL     1       3.943  14.553  18.169  0.00  0.00    +0.000 A 
ATOM     11  C   UNL     1       2.659  14.059  18.403  0.00  0.00    +0.000 A 
ATOM     12  C   UNL     1       2.217  13.863  19.710  0.00  0.00    +0.000 A 
ATOM     13  C   UNL     1       3.148  14.091  20.724  0.00  0.00    +0.000 A 
ATOM     14  N   UNL     1       4.407  14.552  20.533  0.00  0.00    +0.000 NA
BRANCH   9  15
ATOM     15  C   UNL     1       6.089  15.549  19.061  0.00  0.00    +0.000 C 
BRANCH  15  16
ATOM     16  N   UNL     1       7.279  14.681  19.253  0.00  0.00    +0.000 NA
ATOM     17  C   UNL     1       8.116  15.236  20.318  0.00  0.00    +0.000 C 
BRANCH  16  18
ATOM     18  C   UNL     1       8.034  14.543  17.984  0.00  0.00    +0.000 C 
BRANCH  18  19
ATOM     19  C   UNL     1       9.279  13.654  18.115  0.00  0.00    +0.000 C 
BRANCH  19  21
ATOM     20  C   UNL     1      11.244  13.326  16.880  0.00  0.00    +0.000 C 
ATOM     21  O   UNL     1      10.407  14.292  17.507  0.00  0.00    +0.000 OA
ENDBRANCH  19  21
ENDBRANCH  18  19
ENDBRANCH  16  18
ENDBRANCH  15  16
ENDBRANCH   9  15
ENDBRANCH   1  12
BRANCH   6  22
ATOM     22  C   UNL     1       1.639   8.906  18.621  0.00  0.00    +0.000 A 
ATOM     23  C   UNL     1       2.611   8.910  17.627  0.00  0.00    +0.000 A 
ATOM     24  C   UNL     1       3.479   7.822  17.495  0.00  0.00    +0.000 A 
ATOM     25  C   UNL     1       3.390   6.707  18.337  0.00  0.00    +0.000 A 
ATOM     26  C   UNL     1       2.391   6.810  19.325  0.00  0.00    +0.000 A 
ATOM     27  N   UNL     1       1.528   7.863  19.477  0.00  0.00    +0.000 NA
BRANCH  25  28
ATOM     28  N   UNL     1       4.241   5.616  18.201  0.00  0.00    +0.000 N 
ATOM     29  C   UNL     1       5.616   5.612  18.716  0.00  0.00    +0.000 C 
ATOM     30  C   UNL     1       6.295   4.443  18.008  0.00  0.00    +0.000 C 
ATOM     31  C   UNL     1       5.621   4.436  16.653  0.00  0.00    +0.000 C 
ATOM     32  F   UNL     1       6.178   5.412  15.882  0.00  0.00    +0.000 F 
ATOM     33  C   UNL     1       4.170   4.800  16.968  0.00  0.00    +0.000 C 
ENDBRANCH  25  28
BRANCH  26  34
ATOM     34  C   UNL     1       2.221   5.805  20.341  0.00  0.00    +0.000 C 
ATOM     35  N   UNL     1       2.094   5.001  21.169  0.00  0.00    +0.000 NA
ENDBRANCH  26  34
ENDBRANCH   6  22
TORSDOF 9
ENDMDL
MODEL 7
REMARK VINA RESULT:      -6.5      4.092      8.449
REMARK  Name = 
REMARK  11 active torsions:
REMARK  status: ('A' for Active; 'I' for Inactive)
REMARK    1  A    between atoms: C_1  and  O_2
REMARK    2  A    between atoms: O_2  and  C_3
REMARK    3  A    between atoms: C_3  and  C_4
REMARK    4  A    between atoms: C_4  and  N_5
REMARK    5  A    between atoms: N_5  and  C_6
REMARK    6  A    between atoms: N_5  and  C_7
REMARK    7  A    between atoms: C_7  and  C_8
REMARK    8  A    between atoms: C_11  and  N_12
REMARK    9  A    between atoms: C_17  and  C_18
REMARK   10  A    between atoms: C_21  and  N_22
REMARK   11  A    between atoms: C_28  and  C_29
REMARK                            x       y       z     vdW  Elec       q    Type
REMARK                         _______ _______ _______ _____ _____    ______ ____
ROOT
ATOM      1  N   UNL     1      -0.095  10.053  19.532  0.00  0.00    +0.000 N 
ATOM      2  C   UNL     1       0.072  11.234  20.265  0.00  0.00    +0.000 A 
ATOM      3  N   UNL     1      -0.877  11.549  21.150  0.00  0.00    +0.000 NA
ATOM      4  C   UNL     1      -0.678  12.668  21.871  0.00  0.00    +0.000 A 
ATOM      5  C   UNL     1       0.423  13.478  21.738  0.00  0.00    +0.000 A 
ATOM      6  C   UNL     1       1.353  13.092  20.796  0.00  0.00    +0.000 A 
ATOM      7  N   UNL     1       1.171  11.973  20.060  0.00  0.00    +0.000 NA
ATOM      8  H   UNL     1      -0.877   9.551  19.934  0.00  0.00    +0.000 HD
ENDROOT
BRANCH   1  12
ATOM      9  C   UNL     1       2.977   7.547  18.235  0.00  0.00    +0.000 A 
ATOM     10  C   UNL     1       2.459   7.376  19.519  0.00  0.00    +0.000 A 
ATOM     11  C   UNL     1       1.450   8.233  19.960  0.00  0.00    +0.000 A 
ATOM     12  C   UNL     1       0.956   9.220  19.110  0.00  0.00    +0.000 A 
ATOM     13  C   UNL     1       1.587   9.351  17.872  0.00  0.00    +0.000 A 
ATOM     14  N   UNL     1       2.580   8.550  17.419  0.00  0.00    +0.000 NA
BRANCH   9  15
ATOM     15  C   UNL     1       3.914   6.510  17.642  0.00  0.00    +0.000 C 
BRANCH  15  16
ATOM     16  N   UNL     1       3.998   5.267  18.449  0.00  0.00    +0.000 NA
ATOM     17  C   UNL     1       5.310   5.197  19.096  0.00  0.00    +0.000 C 
BRANCH  16  18
ATOM     18  C   UNL     1       3.745   4.077  17.602  0.00  0.00    +0.000 C 
BRANCH  18  19
ATOM     19  C   UNL     1       2.260   3.694  17.524  0.00  0.00    +0.000 C 
BRANCH  19  21
ATOM     20  C   UNL     1       3.232   1.696  18.272  0.00  0.00    +0.000 C 
ATOM     21  O   UNL     1       2.112   2.273  17.607  0.00  0.00    +0.000 OA
ENDBRANCH  19  21
ENDBRANCH  18  19
ENDBRANCH  16  18
ENDBRANCH  15  16
ENDBRANCH   9  15
ENDBRANCH   1  12
BRANCH   6  22
ATOM     22  C   UNL     1       2.602  13.841  20.537  0.00  0.00    +0.000 A 
ATOM     23  C   UNL     1       2.930  14.322  19.274  0.00  0.00    +0.000 A 
ATOM     24  C   UNL     1       4.135  15.003  19.078  0.00  0.00    +0.000 A 
ATOM     25  C   UNL     1       5.039  15.210  20.127  0.00  0.00    +0.000 A 
ATOM     26  C   UNL     1       4.605  14.707  21.369  0.00  0.00    +0.000 A 
ATOM     27  N   UNL     1       3.431  14.036  21.589  0.00  0.00    +0.000 NA
BRANCH  25  28
ATOM     28  N   UNL     1       6.246  15.874  19.934  0.00  0.00    +0.000 N 
ATOM     29  C   UNL     1       6.330  17.199  19.307  0.00  0.00    +0.000 C 
ATOM     30  C   UNL     1       7.799  17.356  18.924  0.00  0.00    +0.000 C 
ATOM     31  C   UNL     1       8.209  15.940  18.580  0.00  0.00    +0.000 C 
ATOM     32  F   UNL     1       7.765  15.649  17.325  0.00  0.00    +0.000 F 
ATOM     33  C   UNL     1       7.453  15.087  19.600  0.00  0.00    +0.000 C 
ENDBRANCH  25  28
BRANCH  26  34
ATOM     34  C   UNL     1       5.357  14.916  22.578  0.00  0.00    +0.000 C 
ATOM     35  N   UNL     1       5.975  15.077  23.548  0.00  0.00    +0.000 NA
ENDBRANCH  26  34
ENDBRANCH   6  22
TORSDOF 9
ENDMDL
MODEL 8
REMARK VINA RESULT:      -6.5      1.295      1.550
REMARK  Name = 
REMARK  11 active torsions:
REMARK  status: ('A' for Active; 'I' for Inactive)
REMARK    1  A    between atoms: C_1  and  O_2
REMARK    2  A    between atoms: O_2  and  C_3
REMARK    3  A    between atoms: C_3  and  C_4
REMARK    4  A    between atoms: C_4  and  N_5
REMARK    5  A    between atoms: N_5  and  C_6
REMARK    6  A    between atoms: N_5  and  C_7
REMARK    7  A    between atoms: C_7  and  C_8
REMARK    8  A    between atoms: C_11  and  N_12
REMARK    9  A    between atoms: C_17  and  C_18
REMARK   10  A    between atoms: C_21  and  N_22
REMARK   11  A    between atoms: C_28  and  C_29
REMARK                            x       y       z     vdW  Elec       q    Type
REMARK                         _______ _______ _______ _____ _____    ______ ____
ROOT
ATOM      1  N   UNL     1       5.638   5.218  18.062  0.00  0.00    +0.000 N 
ATOM      2  C   UNL     1       4.422   5.176  18.753  0.00  0.00    +0.000 A 
ATOM      3  N   UNL     1       4.042   4.002  19.262  0.00  0.00    +0.000 NA
ATOM      4  C   UNL     1       2.888   3.994  19.956  0.00  0.00    +0.000 A 
ATOM      5  C   UNL     1       2.106   5.106  20.153  0.00  0.00    +0.000 A 
ATOM      6  C   UNL     1       2.560   6.278  19.587  0.00  0.00    +0.000 A 
ATOM      7  N   UNL     1       3.715   6.308  18.886  0.00  0.00    +0.000 NA
ATOM      8  H   UNL     1       6.103   4.330  18.208  0.00  0.00    +0.000 HD
ENDROOT
BRANCH   1  12
ATOM      9  C   UNL     1       8.258   8.462  17.954  0.00  0.00    +0.000 A 
ATOM     10  C   UNL     1       8.482   7.440  18.877  0.00  0.00    +0.000 A 
ATOM     11  C   UNL     1       7.589   6.368  18.929  0.00  0.00    +0.000 A 
ATOM     12  C   UNL     1       6.512   6.319  18.047  0.00  0.00    +0.000 A 
ATOM     13  C   UNL     1       6.339   7.422  17.209  0.00  0.00    +0.000 A 
ATOM     14  N   UNL     1       7.174   8.486  17.145  0.00  0.00    +0.000 NA
BRANCH   9  15
ATOM     15  C   UNL     1       9.314   9.527  17.718  0.00  0.00    +0.000 C 
BRANCH  15  16
ATOM     16  N   UNL     1       9.145  10.720  18.586  0.00  0.00    +0.000 NA
ATOM     17  C   UNL     1       8.543  11.804  17.809  0.00  0.00    +0.000 C 
BRANCH  16  18
ATOM     18  C   UNL     1      10.446  11.127  19.171  0.00  0.00    +0.000 C 
BRANCH  18  19
ATOM     19  C   UNL     1      10.299  12.020  20.411  0.00  0.00    +0.000 C 
BRANCH  19  21
ATOM     20  C   UNL     1      11.670  13.354  19.056  0.00  0.00    +0.000 C 
ATOM     21  O   UNL     1      11.288  13.055  20.395  0.00  0.00    +0.000 OA
ENDBRANCH  19  21
ENDBRANCH  18  19
ENDBRANCH  16  18
ENDBRANCH  15  16
ENDBRANCH   9  15
ENDBRANCH   1  12
BRANCH   6  22
ATOM     22  C   UNL     1       1.849   7.568  19.717  0.00  0.00    +0.000 A 
ATOM     23  C   UNL     1       1.545   8.362  18.617  0.00  0.00    +0.000 A 
ATOM     24  C   UNL     1       0.892   9.585  18.797  0.00  0.00    +0.000 A 
ATOM     25  C   UNL     1       0.539  10.047  20.071  0.00  0.00    +0.000 A 
ATOM     26  C   UNL     1       0.868   9.161  21.116  0.00  0.00    +0.000 A 
ATOM     27  N   UNL     1       1.507   7.958  20.968  0.00  0.00    +0.000 NA
BRANCH  25  28
ATOM     28  N   UNL     1      -0.097  11.269  20.257  0.00  0.00    +0.000 N 
ATOM     29  C   UNL     1      -1.533  11.461  20.015  0.00  0.00    +0.000 C 
ATOM     30  C   UNL     1      -1.715  12.974  19.933  0.00  0.00    +0.000 C 
ATOM     31  C   UNL     1      -0.416  13.434  19.308  0.00  0.00    +0.000 C 
ATOM     32  F   UNL     1      -0.473  13.212  17.965  0.00  0.00    +0.000 F 
ATOM     33  C   UNL     1       0.633  12.515  19.935  0.00  0.00    +0.000 C 
ENDBRANCH  25  28
BRANCH  26  34
ATOM     34  C   UNL     1       0.491   9.423  22.480  0.00  0.00    +0.000 C 
ATOM     35  N   UNL     1       0.176   9.642  23.576  0.00  0.00    +0.000 NA
ENDBRANCH  26  34
ENDBRANCH   6  22
TORSDOF 9
ENDMDL
MODEL 9
REMARK VINA RESULT:      -6.4      1.383      1.719
REMARK  Name = 
REMARK  11 active torsions:
REMARK  status: ('A' for Active; 'I' for Inactive)
REMARK    1  A    between atoms: C_1  and  O_2
REMARK    2  A    between atoms: O_2  and  C_3
REMARK    3  A    between atoms: C_3  and  C_4
REMARK    4  A    between atoms: C_4  and  N_5
REMARK    5  A    between atoms: N_5  and  C_6
REMARK    6  A    between atoms: N_5  and  C_7
REMARK    7  A    between atoms: C_7  and  C_8
REMARK    8  A    between atoms: C_11  and  N_12
REMARK    9  A    between atoms: C_17  and  C_18
REMARK   10  A    between atoms: C_21  and  N_22
REMARK   11  A    between atoms: C_28  and  C_29
REMARK                            x       y       z     vdW  Elec       q    Type
REMARK                         _______ _______ _______ _____ _____    ______ ____
ROOT
ATOM      1  N   UNL     1       6.062   5.826  17.487  0.00  0.00    +0.000 N 
ATOM      2  C   UNL     1       4.778   5.643  18.013  0.00  0.00    +0.000 A 
ATOM      3  N   UNL     1       4.394   4.392  18.280  0.00  0.00    +0.000 NA
ATOM      4  C   UNL     1       3.170   4.242  18.821  0.00  0.00    +0.000 A 
ATOM      5  C   UNL     1       2.322   5.288  19.096  0.00  0.00    +0.000 A 
ATOM      6  C   UNL     1       2.786   6.547  18.781  0.00  0.00    +0.000 A 
ATOM      7  N   UNL     1       4.010   6.719  18.237  0.00  0.00    +0.000 NA
ATOM      8  H   UNL     1       6.546   4.939  17.546  0.00  0.00    +0.000 HD
ENDROOT
BRANCH   1  12
ATOM      9  C   UNL     1       8.529   9.112  18.207  0.00  0.00    +0.000 A 
ATOM     10  C   UNL     1       8.730   7.940  18.937  0.00  0.00    +0.000 A 
ATOM     11  C   UNL     1       7.887   6.851  18.713  0.00  0.00    +0.000 A 
ATOM     12  C   UNL     1       6.881   6.937  17.752  0.00  0.00    +0.000 A 
ATOM     13  C   UNL     1       6.721   8.173  17.125  0.00  0.00    +0.000 A 
ATOM     14  N   UNL     1       7.508   9.256  17.331  0.00  0.00    +0.000 NA
BRANCH   9  15
ATOM     15  C   UNL     1       9.549  10.235  18.263  0.00  0.00    +0.000 C 
BRANCH  15  16
ATOM     16  N   UNL     1       8.986  11.511  18.774  0.00  0.00    +0.000 NA
ATOM     17  C   UNL     1       9.021  12.516  17.710  0.00  0.00    +0.000 C 
BRANCH  16  18
ATOM     18  C   UNL     1       9.728  11.964  19.975  0.00  0.00    +0.000 C 
BRANCH  18  19
ATOM     19  C   UNL     1       9.215  11.332  21.277  0.00  0.00    +0.000 C 
BRANCH  19  21
ATOM     20  C   UNL     1       7.772  11.765  23.073  0.00  0.00    +0.000 C 
ATOM     21  O   UNL     1       8.675  12.342  22.136  0.00  0.00    +0.000 OA
ENDBRANCH  19  21
ENDBRANCH  18  19
ENDBRANCH  16  18
ENDBRANCH  15  16
ENDBRANCH   9  15
ENDBRANCH   1  12
BRANCH   6  22
ATOM     22  C   UNL     1       2.008   7.781  19.028  0.00  0.00    +0.000 A 
ATOM     23  C   UNL     1       1.598   8.618  17.996  0.00  0.00    +0.000 A 
ATOM     24  C   UNL     1       0.885   9.785  18.286  0.00  0.00    +0.000 A 
ATOM     25  C   UNL     1       0.577  10.148  19.602  0.00  0.00    +0.000 A 
ATOM     26  C   UNL     1       1.014   9.224  20.572  0.00  0.00    +0.000 A 
ATOM     27  N   UNL     1       1.713   8.074  20.317  0.00  0.00    +0.000 NA
BRANCH  25  28
ATOM     28  N   UNL     1      -0.119  11.316  19.897  0.00  0.00    +0.000 N 
ATOM     29  C   UNL     1      -1.574  11.433  19.738  0.00  0.00    +0.000 C 
ATOM     30  C   UNL     1      -1.849  12.934  19.761  0.00  0.00    +0.000 C 
ATOM     31  C   UNL     1      -0.614  13.510  19.104  0.00  0.00    +0.000 C 
ATOM     32  F   UNL     1      -0.729  13.366  17.754  0.00  0.00    +0.000 F 
ATOM     33  C   UNL     1       0.519  12.621  19.619  0.00  0.00    +0.000 C 
ENDBRANCH  25  28
BRANCH  26  34
ATOM     34  C   UNL     1       0.698   9.381  21.967  0.00  0.00    +0.000 C 
ATOM     35  N   UNL     1       0.431   9.498  23.091  0.00  0.00    +0.000 NA
ENDBRANCH  26  34
ENDBRANCH   6  22
TORSDOF 9
ENDMDL
