MODEL 1
REMARK VINA RESULT:      -7.6      0.000      0.000
REMARK  Name = 
REMARK  11 active torsions:
REMARK  status: ('A' for Active; 'I' for Inactive)
REMARK    1  A    between atoms: C_1  and  O_2
REMARK    2  A    between atoms: O_2  and  C_3
REMARK    3  A    between atoms: C_8  and  N_9
REMARK    4  A    between atoms: N_12  and  C_13
REMARK    5  A    between atoms: C_13  and  C_14
REMARK    6  A    between atoms: C_14  and  C_15
REMARK    7  A    between atoms: C_15  and  C_16
REMARK    8  A    between atoms: N_18  and  C_19
REMARK    9  A    between atoms: C_23  and  C_24
REMARK   10  A    between atoms: C_24  and  C_25
REMARK   11  A    between atoms: C_24  and  C_26
REMARK                            x       y       z     vdW  Elec       q    Type
REMARK                         _______ _______ _______ _____ _____    ______ ____
ROOT
ATOM      1  C   UNL     1       7.343   6.715  17.325  0.00  0.00    +0.000 C 
ENDROOT
BRANCH   1   5
ATOM      2  N   UNL     1       4.377   4.755  18.194  0.00  0.00    +0.000 N 
ATOM      3  C   UNL     1       5.002   5.712  19.116  0.00  0.00    +0.000 C 
ATOM      4  C   UNL     1       6.508   5.397  19.242  0.00  0.00    +0.000 C 
ATOM      5  N   UNL     1       7.251   5.389  17.950  0.00  0.00    +0.000 NA
ATOM      6  C   UNL     1       6.560   4.440  17.041  0.00  0.00    +0.000 C 
ATOM      7  C   UNL     1       5.032   4.650  16.879  0.00  0.00    +0.000 C 
BRANCH   2  13
ATOM      8  C   UNL     1       3.209   2.996  19.508  0.00  0.00    +0.000 A 
ATOM      9  C   UNL     1       2.029   2.263  19.733  0.00  0.00    +0.000 A 
ATOM     10  C   UNL     1       0.872   2.524  19.007  0.00  0.00    +0.000 A 
ATOM     11  C   UNL     1       0.882   3.519  18.045  0.00  0.00    +0.000 A 
ATOM     12  C   UNL     1       2.051   4.245  17.809  0.00  0.00    +0.000 A 
ATOM     13  C   UNL     1       3.252   4.009  18.513  0.00  0.00    +0.000 A 
BRANCH   8  15
ATOM     14  C   UNL     1       4.796   1.315  20.051  0.00  0.00    +0.000 C 
ATOM     15  O   UNL     1       4.374   2.671  20.170  0.00  0.00    +0.000 OA
ENDBRANCH   8  15
ENDBRANCH   2  13
ENDBRANCH   1   5
BRANCH   1  16
ATOM     16  C   UNL     1       8.081   7.739  18.178  0.00  0.00    +0.000 C 
BRANCH  16  17
ATOM     17  C   UNL     1       7.941   9.182  17.682  0.00  0.00    +0.000 C 
BRANCH  17  18
ATOM     18  C   UNL     1       8.862  10.063  18.491  0.00  0.00    +0.000 C 
ATOM     19  O   UNL     1       9.426   9.633  19.497  0.00  0.00    +0.000 OA
ATOM     20  N   UNL     1       8.978  11.350  18.008  0.00  0.00    +0.000 N 
ATOM     21  H   UNL     1       8.288  11.663  17.342  0.00  0.00    +0.000 HD
BRANCH  20  22
ATOM     22  C   UNL     1       9.874  12.316  18.520  0.00  0.00    +0.000 A 
ATOM     23  C   UNL     1      11.197  12.417  18.075  0.00  0.00    +0.000 A 
ATOM     24  C   UNL     1      12.064  13.358  18.623  0.00  0.00    +0.000 A 
ATOM     25  C   UNL     1      11.613  14.221  19.615  0.00  0.00    +0.000 A 
ATOM     26  C   UNL     1      10.282  14.167  20.058  0.00  0.00    +0.000 A 
ATOM     27  C   UNL     1       9.416  13.210  19.493  0.00  0.00    +0.000 A 
BRANCH  26  28
ATOM     28  C   UNL     1       9.823  15.134  21.131  0.00  0.00    +0.000 C 
ATOM     29  C   UNL     1       9.014  14.420  22.213  0.00  0.00    +0.000 C 
ATOM     30  C   UNL     1      10.993  15.909  21.739  0.00  0.00    +0.000 C 
ENDBRANCH  26  28
ENDBRANCH  20  22
ENDBRANCH  17  18
ENDBRANCH  16  17
ENDBRANCH   1  16
TORSDOF 8
ENDMDL
MODEL 2
REMARK VINA RESULT:      -7.4      1.528      1.840
REMARK  Name = 
REMARK  11 active torsions:
REMARK  status: ('A' for Active; 'I' for Inactive)
REMARK    1  A    between atoms: C_1  and  O_2
REMARK    2  A    between atoms: O_2  and  C_3
REMARK    3  A    between atoms: C_8  and  N_9
REMARK    4  A    between atoms: N_12  and  C_13
REMARK    5  A    between atoms: C_13  and  C_14
REMARK    6  A    between atoms: C_14  and  C_15
REMARK    7  A    between atoms: C_15  and  C_16
REMARK    8  A    between atoms: N_18  and  C_19
REMARK    9  A    between atoms: C_23  and  C_24
REMARK   10  A    between atoms: C_24  and  C_25
REMARK   11  A    between atoms: C_24  and  C_26
REMARK                            x       y       z     vdW  Elec       q    Type
REMARK                         _______ _______ _______ _____ _____    ______ ____
ROOT
ATOM      1  C   UNL     1       6.466   7.641  17.455  0.00  0.00    +0.000 C 
ENDROOT
BRANCH   1   5
ATOM      2  N   UNL     1       3.911   5.373  18.768  0.00  0.00    +0.000 N 
ATOM      3  C   UNL     1       5.278   5.434  19.302  0.00  0.00    +0.000 C 
ATOM      4  C   UNL     1       6.289   5.274  18.146  0.00  0.00    +0.000 C 
ATOM      5  N   UNL     1       6.137   6.269  17.047  0.00  0.00    +0.000 NA
ATOM      6  C   UNL     1       4.734   6.199  16.569  0.00  0.00    +0.000 C 
ATOM      7  C   UNL     1       3.641   6.309  17.664  0.00  0.00    +0.000 C 
BRANCH   2  13
ATOM      8  C   UNL     1       2.798   3.153  18.896  0.00  0.00    +0.000 A 
ATOM      9  C   UNL     1       1.749   2.374  19.418  0.00  0.00    +0.000 A 
ATOM     10  C   UNL     1       0.835   2.912  20.319  0.00  0.00    +0.000 A 
ATOM     11  C   UNL     1       0.958   4.236  20.705  0.00  0.00    +0.000 A 
ATOM     12  C   UNL     1       1.992   5.017  20.184  0.00  0.00    +0.000 A 
ATOM     13  C   UNL     1       2.935   4.519  19.260  0.00  0.00    +0.000 A 
BRANCH   8  15
ATOM     14  C   UNL     1       4.064   1.290  18.142  0.00  0.00    +0.000 C 
ATOM     15  O   UNL     1       3.645   2.637  17.938  0.00  0.00    +0.000 OA
ENDBRANCH   8  15
ENDBRANCH   2  13
ENDBRANCH   1   5
BRANCH   1  16
ATOM     16  C   UNL     1       7.956   7.951  17.397  0.00  0.00    +0.000 C 
BRANCH  16  17
ATOM     17  C   UNL     1       8.579   8.282  18.757  0.00  0.00    +0.000 C 
BRANCH  17  18
ATOM     18  C   UNL     1       8.888   9.760  18.801  0.00  0.00    +0.000 C 
ATOM     19  O   UNL     1       8.469  10.520  17.928  0.00  0.00    +0.000 OA
ATOM     20  N   UNL     1       9.673  10.139  19.871  0.00  0.00    +0.000 N 
ATOM     21  H   UNL     1      10.163   9.413  20.371  0.00  0.00    +0.000 HD
BRANCH  20  22
ATOM     22  C   UNL     1       9.988  11.479  20.192  0.00  0.00    +0.000 A 
ATOM     23  C   UNL     1      11.047  12.164  19.586  0.00  0.00    +0.000 A 
ATOM     24  C   UNL     1      11.351  13.472  19.949  0.00  0.00    +0.000 A 
ATOM     25  C   UNL     1      10.588  14.119  20.914  0.00  0.00    +0.000 A 
ATOM     26  C   UNL     1       9.499  13.470  21.516  0.00  0.00    +0.000 A 
ATOM     27  C   UNL     1       9.203  12.146  21.137  0.00  0.00    +0.000 A 
BRANCH  26  28
ATOM     28  C   UNL     1       8.681  14.213  22.554  0.00  0.00    +0.000 C 
ATOM     29  C   UNL     1       9.439  15.424  23.096  0.00  0.00    +0.000 C 
ATOM     30  C   UNL     1       7.308  14.616  22.018  0.00  0.00    +0.000 C 
ENDBRANCH  26  28
ENDBRANCH  20  22
ENDBRANCH  17  18
ENDBRANCH  16  17
ENDBRANCH   1  16
TORSDOF 8
ENDMDL
MODEL 3
REMARK VINA RESULT:      -7.4      5.306      8.920
REMARK  Name = 
REMARK  11 active torsions:
REMARK  status: ('A' for Active; 'I' for Inactive)
REMARK    1  A    between atoms: C_1  and  O_2
REMARK    2  A    between atoms: O_2  and  C_3
REMARK    3  A    between atoms: C_8  and  N_9
REMARK    4  A    between atoms: N_12  and  C_13
REMARK    5  A    between atoms: C_13  and  C_14
REMARK    6  A    between atoms: C_14  and  C_15
REMARK    7  A    between atoms: C_15  and  C_16
REMARK    8  A    between atoms: N_18  and  C_19
REMARK    9  A    between atoms: C_23  and  C_24
REMARK   10  A    between atoms: C_24  and  C_25
REMARK   11  A    between atoms: C_24  and  C_26
REMARK                            x       y       z     vdW  Elec       q    Type
REMARK                         _______ _______ _______ _____ _____    ______ ____
ROOT
ATOM      1  C   UNL     1       2.353   5.479  20.844  0.00  0.00    +0.000 C 
ENDROOT
BRANCH   1   5
ATOM      2  N   UNL     1       4.558   5.162  17.939  0.00  0.00    +0.000 N 
ATOM      3  C   UNL     1       3.371   6.027  17.953  0.00  0.00    +0.000 C 
ATOM      4  C   UNL     1       2.140   5.206  18.395  0.00  0.00    +0.000 C 
ATOM      5  N   UNL     1       2.285   4.536  19.719  0.00  0.00    +0.000 NA
ATOM      6  C   UNL     1       3.516   3.708  19.670  0.00  0.00    +0.000 C 
ATOM      7  C   UNL     1       4.802   4.435  19.197  0.00  0.00    +0.000 C 
BRANCH   2  13
ATOM      8  C   UNL     1       6.542   5.846  16.608  0.00  0.00    +0.000 A 
ATOM      9  C   UNL     1       7.317   5.670  15.445  0.00  0.00    +0.000 A 
ATOM     10  C   UNL     1       7.000   4.686  14.514  0.00  0.00    +0.000 A 
ATOM     11  C   UNL     1       5.903   3.870  14.732  0.00  0.00    +0.000 A 
ATOM     12  C   UNL     1       5.125   4.045  15.879  0.00  0.00    +0.000 A 
ATOM     13  C   UNL     1       5.401   5.036  16.845  0.00  0.00    +0.000 A 
BRANCH   8  15
ATOM     14  C   UNL     1       7.845   6.634  18.431  0.00  0.00    +0.000 C 
ATOM     15  O   UNL     1       6.812   6.880  17.479  0.00  0.00    +0.000 OA
ENDBRANCH   8  15
ENDBRANCH   2  13
ENDBRANCH   1   5
BRANCH   1  16
ATOM     16  C   UNL     1       1.257   6.537  20.815  0.00  0.00    +0.000 C 
BRANCH  16  17
ATOM     17  C   UNL     1       1.739   7.944  21.185  0.00  0.00    +0.000 C 
BRANCH  17  18
ATOM     18  C   UNL     1       0.686   8.942  20.765  0.00  0.00    +0.000 C 
ATOM     19  O   UNL     1      -0.120   9.391  21.579  0.00  0.00    +0.000 OA
ATOM     20  N   UNL     1       0.719   9.263  19.423  0.00  0.00    +0.000 N 
ATOM     21  H   UNL     1       1.243   8.657  18.810  0.00  0.00    +0.000 HD
BRANCH  20  22
ATOM     22  C   UNL     1      -0.081  10.262  18.823  0.00  0.00    +0.000 A 
ATOM     23  C   UNL     1       0.191  11.626  18.974  0.00  0.00    +0.000 A 
ATOM     24  C   UNL     1      -0.635  12.587  18.398  0.00  0.00    +0.000 A 
ATOM     25  C   UNL     1      -1.737  12.193  17.648  0.00  0.00    +0.000 A 
ATOM     26  C   UNL     1      -2.016  10.831  17.450  0.00  0.00    +0.000 A 
ATOM     27  C   UNL     1      -1.171   9.871  18.040  0.00  0.00    +0.000 A 
BRANCH  26  28
ATOM     28  C   UNL     1      -3.220  10.440  16.615  0.00  0.00    +0.000 C 
ATOM     29  C   UNL     1      -4.401  11.376  16.869  0.00  0.00    +0.000 C 
ATOM     30  C   UNL     1      -2.882  10.371  15.125  0.00  0.00    +0.000 C 
ENDBRANCH  26  28
ENDBRANCH  20  22
ENDBRANCH  17  18
ENDBRANCH  16  17
ENDBRANCH   1  16
TORSDOF 8
ENDMDL
MODEL 4
REMARK VINA RESULT:      -7.3      1.910      2.295
REMARK  Name = 
REMARK  11 active torsions:
REMARK  status: ('A' for Active; 'I' for Inactive)
REMARK    1  A    between atoms: C_1  and  O_2
REMARK    2  A    between atoms: O_2  and  C_3
REMARK    3  A    between atoms: C_8  and  N_9
REMARK    4  A    between atoms: N_12  and  C_13
REMARK    5  A    between atoms: C_13  and  C_14
REMARK    6  A    between atoms: C_14  and  C_15
REMARK    7  A    between atoms: C_15  and  C_16
REMARK    8  A    between atoms: N_18  and  C_19
REMARK    9  A    between atoms: C_23  and  C_24
REMARK   10  A    between atoms: C_24  and  C_25
REMARK   11  A    between atoms: C_24  and  C_26
REMARK                            x       y       z     vdW  Elec       q    Type
REMARK                         _______ _______ _______ _____ _____    ______ ____
ROOT
ATOM      1  C   UNL     1       7.019   8.260  17.621  0.00  0.00    +0.000 C 
ENDROOT
BRANCH   1   5
ATOM      2  N   UNL     1       4.691   5.459  17.986  0.00  0.00    +0.000 N 
ATOM      3  C   UNL     1       5.798   5.706  18.918  0.00  0.00    +0.000 C 
ATOM      4  C   UNL     1       7.117   5.842  18.127  0.00  0.00    +0.000 C 
ATOM      5  N   UNL     1       7.104   6.898  17.075  0.00  0.00    +0.000 NA
ATOM      6  C   UNL     1       5.948   6.630  16.184  0.00  0.00    +0.000 C 
ATOM      7  C   UNL     1       4.580   6.438  16.890  0.00  0.00    +0.000 C 
BRANCH   2  13
ATOM      8  C   UNL     1       2.505   4.504  18.685  0.00  0.00    +0.000 A 
ATOM      9  C   UNL     1       1.688   3.365  18.812  0.00  0.00    +0.000 A 
ATOM     10  C   UNL     1       2.117   2.120  18.363  0.00  0.00    +0.000 A 
ATOM     11  C   UNL     1       3.369   1.998  17.786  0.00  0.00    +0.000 A 
ATOM     12  C   UNL     1       4.190   3.122  17.665  0.00  0.00    +0.000 A 
ATOM     13  C   UNL     1       3.802   4.403  18.116  0.00  0.00    +0.000 A 
BRANCH   8  15
ATOM     14  C   UNL     1       1.872   5.731  20.618  0.00  0.00    +0.000 C 
ATOM     15  O   UNL     1       2.107   5.714  19.212  0.00  0.00    +0.000 OA
ENDBRANCH   8  15
ENDBRANCH   2  13
ENDBRANCH   1   5
BRANCH   1  16
ATOM     16  C   UNL     1       8.365   8.970  17.693  0.00  0.00    +0.000 C 
BRANCH  16  17
ATOM     17  C   UNL     1       8.795   9.350  19.114  0.00  0.00    +0.000 C 
BRANCH  17  18
ATOM     18  C   UNL     1       9.544  10.660  19.058  0.00  0.00    +0.000 C 
ATOM     19  O   UNL     1      10.475  10.889  19.829  0.00  0.00    +0.000 OA
ATOM     20  N   UNL     1       9.073  11.537  18.102  0.00  0.00    +0.000 N 
ATOM     21  H   UNL     1       8.163  11.355  17.708  0.00  0.00    +0.000 HD
BRANCH  20  22
ATOM     22  C   UNL     1       9.689  12.768  17.779  0.00  0.00    +0.000 A 
ATOM     23  C   UNL     1      10.874  12.838  17.038  0.00  0.00    +0.000 A 
ATOM     24  C   UNL     1      11.473  14.064  16.764  0.00  0.00    +0.000 A 
ATOM     25  C   UNL     1      10.883  15.239  17.215  0.00  0.00    +0.000 A 
ATOM     26  C   UNL     1       9.677  15.204  17.931  0.00  0.00    +0.000 A 
ATOM     27  C   UNL     1       9.082  13.955  18.200  0.00  0.00    +0.000 A 
BRANCH  26  28
ATOM     28  C   UNL     1       9.057  16.507  18.395  0.00  0.00    +0.000 C 
ATOM     29  C   UNL     1       7.531  16.419  18.420  0.00  0.00    +0.000 C 
ATOM     30  C   UNL     1       9.606  16.949  19.751  0.00  0.00    +0.000 C 
ENDBRANCH  26  28
ENDBRANCH  20  22
ENDBRANCH  17  18
ENDBRANCH  16  17
ENDBRANCH   1  16
TORSDOF 8
ENDMDL
MODEL 5
REMARK VINA RESULT:      -7.3      5.340      8.123
REMARK  Name = 
REMARK  11 active torsions:
REMARK  status: ('A' for Active; 'I' for Inactive)
REMARK    1  A    between atoms: C_1  and  O_2
REMARK    2  A    between atoms: O_2  and  C_3
REMARK    3  A    between atoms: C_8  and  N_9
REMARK    4  A    between atoms: N_12  and  C_13
REMARK    5  A    between atoms: C_13  and  C_14
REMARK    6  A    between atoms: C_14  and  C_15
REMARK    7  A    between atoms: C_15  and  C_16
REMARK    8  A    between atoms: N_18  and  C_19
REMARK    9  A    between atoms: C_23  and  C_24
REMARK   10  A    between atoms: C_24  and  C_25
REMARK   11  A    between atoms: C_24  and  C_26
REMARK                            x       y       z     vdW  Elec       q    Type
REMARK                         _______ _______ _______ _____ _____    ______ ____
ROOT
ATOM      1  C   UNL     1       1.615   2.392  19.427  0.00  0.00    +0.000 C 
ENDROOT
BRANCH   1   5
ATOM      2  N   UNL     1       4.413   4.301  18.040  0.00  0.00    +0.000 N 
ATOM      3  C   UNL     1       3.039   4.409  17.531  0.00  0.00    +0.000 C 
ATOM      4  C   UNL     1       2.501   3.000  17.200  0.00  0.00    +0.000 C 
ATOM      5  N   UNL     1       2.537   2.039  18.340  0.00  0.00    +0.000 NA
ATOM      6  C   UNL     1       3.932   1.996  18.844  0.00  0.00    +0.000 C 
ATOM      7  C   UNL     1       4.578   3.368  19.167  0.00  0.00    +0.000 C 
BRANCH   2  13
ATOM      8  C   UNL     1       6.200   4.668  16.351  0.00  0.00    +0.000 A 
ATOM      9  C   UNL     1       7.297   5.441  15.925  0.00  0.00    +0.000 A 
ATOM     10  C   UNL     1       7.688   6.579  16.624  0.00  0.00    +0.000 A 
ATOM     11  C   UNL     1       6.990   6.955  17.758  0.00  0.00    +0.000 A 
ATOM     12  C   UNL     1       5.905   6.189  18.192  0.00  0.00    +0.000 A 
ATOM     13  C   UNL     1       5.479   5.021  17.523  0.00  0.00    +0.000 A 
BRANCH   8  15
ATOM     14  C   UNL     1       5.488   3.628  14.338  0.00  0.00    +0.000 C 
ATOM     15  O   UNL     1       5.875   3.495  15.704  0.00  0.00    +0.000 OA
ENDBRANCH   8  15
ENDBRANCH   2  13
ENDBRANCH   1   5
BRANCH   1  16
ATOM     16  C   UNL     1       2.222   2.231  20.815  0.00  0.00    +0.000 C 
BRANCH  16  17
ATOM     17  C   UNL     1       2.062   3.462  21.713  0.00  0.00    +0.000 C 
BRANCH  17  18
ATOM     18  C   UNL     1       1.533   4.604  20.879  0.00  0.00    +0.000 C 
ATOM     19  O   UNL     1       0.455   4.513  20.293  0.00  0.00    +0.000 OA
ATOM     20  N   UNL     1       2.368   5.702  20.836  0.00  0.00    +0.000 N 
ATOM     21  H   UNL     1       3.323   5.576  21.135  0.00  0.00    +0.000 HD
BRANCH  20  22
ATOM     22  C   UNL     1       2.034   6.934  20.227  0.00  0.00    +0.000 A 
ATOM     23  C   UNL     1       2.352   7.218  18.895  0.00  0.00    +0.000 A 
ATOM     24  C   UNL     1       2.038   8.453  18.334  0.00  0.00    +0.000 A 
ATOM     25  C   UNL     1       1.386   9.414  19.097  0.00  0.00    +0.000 A 
ATOM     26  C   UNL     1       1.023   9.146  20.426  0.00  0.00    +0.000 A 
ATOM     27  C   UNL     1       1.347   7.892  20.979  0.00  0.00    +0.000 A 
BRANCH  26  28
ATOM     28  C   UNL     1       0.301  10.215  21.223  0.00  0.00    +0.000 C 
ATOM     29  C   UNL     1      -0.724  10.953  20.361  0.00  0.00    +0.000 C 
ATOM     30  C   UNL     1      -0.348   9.645  22.484  0.00  0.00    +0.000 C 
ENDBRANCH  26  28
ENDBRANCH  20  22
ENDBRANCH  17  18
ENDBRANCH  16  17
ENDBRANCH   1  16
TORSDOF 8
ENDMDL
MODEL 6
REMARK VINA RESULT:      -7.2      9.451     12.674
REMARK  Name = 
REMARK  11 active torsions:
REMARK  status: ('A' for Active; 'I' for Inactive)
REMARK    1  A    between atoms: C_1  and  O_2
REMARK    2  A    between atoms: O_2  and  C_3
REMARK    3  A    between atoms: C_8  and  N_9
REMARK    4  A    between atoms: N_12  and  C_13
REMARK    5  A    between atoms: C_13  and  C_14
REMARK    6  A    between atoms: C_14  and  C_15
REMARK    7  A    between atoms: C_15  and  C_16
REMARK    8  A    between atoms: N_18  and  C_19
REMARK    9  A    between atoms: C_23  and  C_24
REMARK   10  A    between atoms: C_24  and  C_25
REMARK   11  A    between atoms: C_24  and  C_26
REMARK                            x       y       z     vdW  Elec       q    Type
REMARK                         _______ _______ _______ _____ _____    ______ ____
ROOT
ATOM      1  C   UNL     1      -0.910  11.429  21.303  0.00  0.00    +0.000 C 
ENDROOT
BRANCH   1   5
ATOM      2  N   UNL     1      -4.096  12.895  22.354  0.00  0.00    +0.000 N 
ATOM      3  C   UNL     1      -3.622  12.922  20.964  0.00  0.00    +0.000 C 
ATOM      4  C   UNL     1      -2.193  13.508  20.919  0.00  0.00    +0.000 C 
ATOM      5  N   UNL     1      -1.202  12.791  21.771  0.00  0.00    +0.000 NA
ATOM      6  C   UNL     1      -1.742  12.754  23.153  0.00  0.00    +0.000 C 
ATOM      7  C   UNL     1      -3.191  12.218  23.298  0.00  0.00    +0.000 C 
BRANCH   2  13
ATOM      8  C   UNL     1      -6.577  12.880  22.501  0.00  0.00    +0.000 A 
ATOM      9  C   UNL     1      -7.751  13.534  22.922  0.00  0.00    +0.000 A 
ATOM     10  C   UNL     1      -7.691  14.734  23.623  0.00  0.00    +0.000 A 
ATOM     11  C   UNL     1      -6.459  15.296  23.908  0.00  0.00    +0.000 A 
ATOM     12  C   UNL     1      -5.290  14.658  23.486  0.00  0.00    +0.000 A 
ATOM     13  C   UNL     1      -5.301  13.446  22.763  0.00  0.00    +0.000 A 
BRANCH   8  15
ATOM     14  C   UNL     1      -7.916  11.085  21.708  0.00  0.00    +0.000 C 
ATOM     15  O   UNL     1      -6.649  11.739  21.732  0.00  0.00    +0.000 OA
ENDBRANCH   8  15
ENDBRANCH   2  13
ENDBRANCH   1   5
BRANCH   1  16
ATOM     16  C   UNL     1       0.431  10.895  21.788  0.00  0.00    +0.000 C 
BRANCH  16  17
ATOM     17  C   UNL     1       0.328   9.605  22.609  0.00  0.00    +0.000 C 
BRANCH  17  18
ATOM     18  C   UNL     1       0.364   8.427  21.665  0.00  0.00    +0.000 C 
ATOM     19  O   UNL     1      -0.668   7.831  21.358  0.00  0.00    +0.000 OA
ATOM     20  N   UNL     1       1.630   8.099  21.222  0.00  0.00    +0.000 N 
ATOM     21  H   UNL     1       2.415   8.482  21.726  0.00  0.00    +0.000 HD
BRANCH  20  22
ATOM     22  C   UNL     1       1.901   7.119  20.240  0.00  0.00    +0.000 A 
ATOM     23  C   UNL     1       2.335   7.452  18.953  0.00  0.00    +0.000 A 
ATOM     24  C   UNL     1       2.562   6.465  17.998  0.00  0.00    +0.000 A 
ATOM     25  C   UNL     1       2.372   5.128  18.326  0.00  0.00    +0.000 A 
ATOM     26  C   UNL     1       1.970   4.760  19.619  0.00  0.00    +0.000 A 
ATOM     27  C   UNL     1       1.744   5.770  20.574  0.00  0.00    +0.000 A 
BRANCH  26  28
ATOM     28  C   UNL     1       1.785   3.290  19.943  0.00  0.00    +0.000 C 
ATOM     29  C   UNL     1       1.332   3.092  21.389  0.00  0.00    +0.000 C 
ATOM     30  C   UNL     1       0.828   2.607  18.966  0.00  0.00    +0.000 C 
ENDBRANCH  26  28
ENDBRANCH  20  22
ENDBRANCH  17  18
ENDBRANCH  16  17
ENDBRANCH   1  16
TORSDOF 8
ENDMDL
MODEL 7
REMARK VINA RESULT:      -7.2      1.932      2.529
REMARK  Name = 
REMARK  11 active torsions:
REMARK  status: ('A' for Active; 'I' for Inactive)
REMARK    1  A    between atoms: C_1  and  O_2
REMARK    2  A    between atoms: O_2  and  C_3
REMARK    3  A    between atoms: C_8  and  N_9
REMARK    4  A    between atoms: N_12  and  C_13
REMARK    5  A    between atoms: C_13  and  C_14
REMARK    6  A    between atoms: C_14  and  C_15
REMARK    7  A    between atoms: C_15  and  C_16
REMARK    8  A    between atoms: N_18  and  C_19
REMARK    9  A    between atoms: C_23  and  C_24
REMARK   10  A    between atoms: C_24  and  C_25
REMARK   11  A    between atoms: C_24  and  C_26
REMARK                            x       y       z     vdW  Elec       q    Type
REMARK                         _______ _______ _______ _____ _____    ______ ____
ROOT
ATOM      1  C   UNL     1       7.381   6.905  17.076  0.00  0.00    +0.000 C 
ENDROOT
BRANCH   1   5
ATOM      2  N   UNL     1       4.456   4.847  17.856  0.00  0.00    +0.000 N 
ATOM      3  C   UNL     1       5.571   4.372  17.027  0.00  0.00    +0.000 C 
ATOM      4  C   UNL     1       5.834   5.384  15.890  0.00  0.00    +0.000 C 
ATOM      5  N   UNL     1       6.111   6.775  16.350  0.00  0.00    +0.000 NA
ATOM      6  C   UNL     1       4.980   7.194  17.215  0.00  0.00    +0.000 C 
ATOM      7  C   UNL     1       4.610   6.221  18.365  0.00  0.00    +0.000 C 
BRANCH   2  13
ATOM      8  C   UNL     1       2.281   4.487  19.007  0.00  0.00    +0.000 A 
ATOM      9  C   UNL     1       1.212   3.616  19.289  0.00  0.00    +0.000 A 
ATOM     10  C   UNL     1       1.155   2.344  18.729  0.00  0.00    +0.000 A 
ATOM     11  C   UNL     1       2.169   1.926  17.884  0.00  0.00    +0.000 A 
ATOM     12  C   UNL     1       3.238   2.781  17.607  0.00  0.00    +0.000 A 
ATOM     13  C   UNL     1       3.344   4.075  18.160  0.00  0.00    +0.000 A 
BRANCH   8  15
ATOM     14  C   UNL     1       1.589   5.862  20.816  0.00  0.00    +0.000 C 
ATOM     15  O   UNL     1       2.374   5.711  19.635  0.00  0.00    +0.000 OA
ENDBRANCH   8  15
ENDBRANCH   2  13
ENDBRANCH   1   5
BRANCH   1  16
ATOM     16  C   UNL     1       7.624   8.304  17.627  0.00  0.00    +0.000 C 
BRANCH  16  17
ATOM     17  C   UNL     1       8.612   8.352  18.797  0.00  0.00    +0.000 C 
BRANCH  17  18
ATOM     18  C   UNL     1       9.021   9.787  19.028  0.00  0.00    +0.000 C 
ATOM     19  O   UNL     1       9.192  10.220  20.167  0.00  0.00    +0.000 OA
ATOM     20  N   UNL     1       9.156  10.526  17.870  0.00  0.00    +0.000 N 
ATOM     21  H   UNL     1       8.751  10.151  17.026  0.00  0.00    +0.000 HD
BRANCH  20  22
ATOM     22  C   UNL     1       9.649  11.850  17.824  0.00  0.00    +0.000 A 
ATOM     23  C   UNL     1      10.983  12.140  17.516  0.00  0.00    +0.000 A 
ATOM     24  C   UNL     1      11.445  13.453  17.511  0.00  0.00    +0.000 A 
ATOM     25  C   UNL     1      10.572  14.495  17.799  0.00  0.00    +0.000 A 
ATOM     26  C   UNL     1       9.221  14.240  18.077  0.00  0.00    +0.000 A 
ATOM     27  C   UNL     1       8.768  12.905  18.078  0.00  0.00    +0.000 A 
BRANCH  26  28
ATOM     28  C   UNL     1       8.296  15.404  18.373  0.00  0.00    +0.000 C 
ATOM     29  C   UNL     1       8.867  16.717  17.838  0.00  0.00    +0.000 C 
ATOM     30  C   UNL     1       6.883  15.160  17.842  0.00  0.00    +0.000 C 
ENDBRANCH  26  28
ENDBRANCH  20  22
ENDBRANCH  17  18
ENDBRANCH  16  17
ENDBRANCH   1  16
TORSDOF 8
ENDMDL
MODEL 8
REMARK VINA RESULT:      -7.1      1.340      2.130
REMARK  Name = 
REMARK  11 active torsions:
REMARK  status: ('A' for Active; 'I' for Inactive)
REMARK    1  A    between atoms: C_1  and  O_2
REMARK    2  A    between atoms: O_2  and  C_3
REMARK    3  A    between atoms: C_8  and  N_9
REMARK    4  A    between atoms: N_12  and  C_13
REMARK    5  A    between atoms: C_13  and  C_14
REMARK    6  A    between atoms: C_14  and  C_15
REMARK    7  A    between atoms: C_15  and  C_16
REMARK    8  A    between atoms: N_18  and  C_19
REMARK    9  A    between atoms: C_23  and  C_24
REMARK   10  A    between atoms: C_24  and  C_25
REMARK   11  A    between atoms: C_24  and  C_26
REMARK                            x       y       z     vdW  Elec       q    Type
REMARK                         _______ _______ _______ _____ _____    ______ ____
ROOT
ATOM      1  C   UNL     1       7.104   6.843  16.698  0.00  0.00    +0.000 C 
ENDROOT
BRANCH   1   5
ATOM      2  N   UNL     1       4.402   4.683  17.896  0.00  0.00    +0.000 N 
ATOM      3  C   UNL     1       5.432   4.229  16.953  0.00  0.00    +0.000 C 
ATOM      4  C   UNL     1       5.505   5.207  15.760  0.00  0.00    +0.000 C 
ATOM      5  N   UNL     1       5.764   6.626  16.137  0.00  0.00    +0.000 NA
ATOM      6  C   UNL     1       4.725   7.025  17.119  0.00  0.00    +0.000 C 
ATOM      7  C   UNL     1       4.547   6.081  18.337  0.00  0.00    +0.000 C 
BRANCH   2  13
ATOM      8  C   UNL     1       3.523   2.873  19.357  0.00  0.00    +0.000 A 
ATOM      9  C   UNL     1       2.429   2.071  19.733  0.00  0.00    +0.000 A 
ATOM     10  C   UNL     1       1.176   2.250  19.156  0.00  0.00    +0.000 A 
ATOM     11  C   UNL     1       1.002   3.230  18.195  0.00  0.00    +0.000 A 
ATOM     12  C   UNL     1       2.084   4.025  17.810  0.00  0.00    +0.000 A 
ATOM     13  C   UNL     1       3.376   3.873  18.358  0.00  0.00    +0.000 A 
BRANCH   8  15
ATOM     14  C   UNL     1       4.868   1.570  20.817  0.00  0.00    +0.000 C 
ATOM     15  O   UNL     1       4.780   2.630  19.868  0.00  0.00    +0.000 OA
ENDBRANCH   8  15
ENDBRANCH   2  13
ENDBRANCH   1   5
BRANCH   1  16
ATOM     16  C   UNL     1       7.170   8.007  17.678  0.00  0.00    +0.000 C 
BRANCH  16  17
ATOM     17  C   UNL     1       8.564   8.248  18.268  0.00  0.00    +0.000 C 
BRANCH  17  18
ATOM     18  C   UNL     1       8.728   9.725  18.532  0.00  0.00    +0.000 C 
ATOM     19  O   UNL     1       8.320  10.561  17.727  0.00  0.00    +0.000 OA
ATOM     20  N   UNL     1       9.375  10.016  19.716  0.00  0.00    +0.000 N 
ATOM     21  H   UNL     1       9.883   9.271  20.167  0.00  0.00    +0.000 HD
BRANCH  20  22
ATOM     22  C   UNL     1       9.532  11.321  20.238  0.00  0.00    +0.000 A 
ATOM     23  C   UNL     1       9.090  11.672  21.518  0.00  0.00    +0.000 A 
ATOM     24  C   UNL     1       9.230  12.973  21.990  0.00  0.00    +0.000 A 
ATOM     25  C   UNL     1       9.831  13.938  21.191  0.00  0.00    +0.000 A 
ATOM     26  C   UNL     1      10.317  13.609  19.916  0.00  0.00    +0.000 A 
ATOM     27  C   UNL     1      10.167  12.287  19.452  0.00  0.00    +0.000 A 
BRANCH  26  28
ATOM     28  C   UNL     1      10.978  14.686  19.079  0.00  0.00    +0.000 C 
ATOM     29  C   UNL     1      10.060  15.895  18.900  0.00  0.00    +0.000 C 
ATOM     30  C   UNL     1      12.333  15.103  19.653  0.00  0.00    +0.000 C 
ENDBRANCH  26  28
ENDBRANCH  20  22
ENDBRANCH  17  18
ENDBRANCH  16  17
ENDBRANCH   1  16
TORSDOF 8
ENDMDL
MODEL 9
REMARK VINA RESULT:      -7.1      1.845      2.335
REMARK  Name = 
REMARK  11 active torsions:
REMARK  status: ('A' for Active; 'I' for Inactive)
REMARK    1  A    between atoms: C_1  and  O_2
REMARK    2  A    between atoms: O_2  and  C_3
REMARK    3  A    between atoms: C_8  and  N_9
REMARK    4  A    between atoms: N_12  and  C_13
REMARK    5  A    between atoms: C_13  and  C_14
REMARK    6  A    between atoms: C_14  and  C_15
REMARK    7  A    between atoms: C_15  and  C_16
REMARK    8  A    between atoms: N_18  and  C_19
REMARK    9  A    between atoms: C_23  and  C_24
REMARK   10  A    between atoms: C_24  and  C_25
REMARK   11  A    between atoms: C_24  and  C_26
REMARK                            x       y       z     vdW  Elec       q    Type
REMARK                         _______ _______ _______ _____ _____    ______ ____
ROOT
ATOM      1  C   UNL     1       7.846   7.167  18.001  0.00  0.00    +0.000 C 
ENDROOT
BRANCH   1   5
ATOM      2  N   UNL     1       4.891   5.019  18.229  0.00  0.00    +0.000 N 
ATOM      3  C   UNL     1       6.262   4.494  18.207  0.00  0.00    +0.000 C 
ATOM      4  C   UNL     1       7.014   5.071  16.987  0.00  0.00    +0.000 C 
ATOM      5  N   UNL     1       7.048   6.560  16.927  0.00  0.00    +0.000 NA
ATOM      6  C   UNL     1       5.646   7.043  16.994  0.00  0.00    +0.000 C 
ATOM      7  C   UNL     1       4.794   6.487  18.165  0.00  0.00    +0.000 C 
BRANCH   2  13
ATOM      8  C   UNL     1       2.748   4.352  19.299  0.00  0.00    +0.000 A 
ATOM      9  C   UNL     1       1.660   3.460  19.334  0.00  0.00    +0.000 A 
ATOM     10  C   UNL     1       1.539   2.439  18.398  0.00  0.00    +0.000 A 
ATOM     11  C   UNL     1       2.507   2.294  17.418  0.00  0.00    +0.000 A 
ATOM     12  C   UNL     1       3.594   3.170  17.383  0.00  0.00    +0.000 A 
ATOM     13  C   UNL     1       3.765   4.214  18.318  0.00  0.00    +0.000 A 
BRANCH   8  15
ATOM     14  C   UNL     1       1.736   6.052  20.615  0.00  0.00    +0.000 C 
ATOM     15  O   UNL     1       2.905   5.305  20.283  0.00  0.00    +0.000 OA
ENDBRANCH   8  15
ENDBRANCH   2  13
ENDBRANCH   1   5
BRANCH   1  16
ATOM     16  C   UNL     1       8.169   8.636  17.761  0.00  0.00    +0.000 C 
BRANCH  16  17
ATOM     17  C   UNL     1       8.603   9.394  19.020  0.00  0.00    +0.000 C 
BRANCH  17  18
ATOM     18  C   UNL     1       9.409  10.601  18.605  0.00  0.00    +0.000 C 
ATOM     19  O   UNL     1       9.941  10.655  17.497  0.00  0.00    +0.000 OA
ATOM     20  N   UNL     1       9.491  11.582  19.571  0.00  0.00    +0.000 N 
ATOM     21  H   UNL     1       9.239  11.331  20.515  0.00  0.00    +0.000 HD
BRANCH  20  22
ATOM     22  C   UNL     1      10.082  12.851  19.371  0.00  0.00    +0.000 A 
ATOM     23  C   UNL     1      11.378  13.148  19.805  0.00  0.00    +0.000 A 
ATOM     24  C   UNL     1      11.919  14.418  19.621  0.00  0.00    +0.000 A 
ATOM     25  C   UNL     1      11.173  15.403  18.984  0.00  0.00    +0.000 A 
ATOM     26  C   UNL     1       9.883  15.125  18.507  0.00  0.00    +0.000 A 
ATOM     27  C   UNL     1       9.349  13.835  18.700  0.00  0.00    +0.000 A 
BRANCH  26  28
ATOM     28  C   UNL     1       9.105  16.221  17.806  0.00  0.00    +0.000 C 
ATOM     29  C   UNL     1       7.797  16.528  18.534  0.00  0.00    +0.000 C 
ATOM     30  C   UNL     1       9.943  17.487  17.621  0.00  0.00    +0.000 C 
ENDBRANCH  26  28
ENDBRANCH  20  22
ENDBRANCH  17  18
ENDBRANCH  16  17
ENDBRANCH   1  16
TORSDOF 8
ENDMDL
