MODEL 1
REMARK VINA RESULT:      -7.7      0.000      0.000
REMARK  Name = 
REMARK  5 active torsions:
REMARK  status: ('A' for Active; 'I' for Inactive)
REMARK    1  A    between atoms: C_1  and  C_2
REMARK    2  A    between atoms: C_7  and  C_8
REMARK    3  A    between atoms: C_11  and  C_12
REMARK    4  A    between atoms: N_14  and  C_15
REMARK    5  A    between atoms: N_18  and  C_19
REMARK                            x       y       z     vdW  Elec       q    Type
REMARK                         _______ _______ _______ _____ _____    ______ ____
ROOT
ATOM      1  C   UNL     1       0.990   9.296  20.570  0.00  0.00    +0.000 A 
ATOM      2  C   UNL     1       1.367   8.049  21.101  0.00  0.00    +0.000 A 
ATOM      3  C   UNL     1       1.994   7.075  20.311  0.00  0.00    +0.000 A 
ATOM      4  C   UNL     1       2.273   7.316  18.960  0.00  0.00    +0.000 A 
ATOM      5  C   UNL     1       1.897   8.544  18.421  0.00  0.00    +0.000 A 
ATOM      6  F   UNL     1       2.138   8.835  17.134  0.00  0.00    +0.000 F 
ATOM      7  C   UNL     1       1.266   9.517  19.207  0.00  0.00    +0.000 A 
ENDROOT
BRANCH   1  14
ATOM      8  C   UNL     1       0.562  14.003  21.594  0.00  0.00    +0.000 C 
ATOM      9  C   UNL     1       0.175  12.590  21.903  0.00  0.00    +0.000 A 
ATOM     10  N   UNL     1      -0.733  12.389  22.876  0.00  0.00    +0.000 NA
ATOM     11  C   UNL     1      -1.075  11.107  23.115  0.00  0.00    +0.000 A 
ATOM     12  C   UNL     1      -0.555  10.040  22.423  0.00  0.00    +0.000 A 
ATOM     13  F   UNL     1      -0.938   8.792  22.723  0.00  0.00    +0.000 F 
ATOM     14  C   UNL     1       0.366  10.325  21.432  0.00  0.00    +0.000 A 
ATOM     15  N   UNL     1       0.745  11.607  21.173  0.00  0.00    +0.000 NA
ENDBRANCH   1  14
BRANCH   4  16
ATOM     16  C   UNL     1       2.944   6.237  18.185  0.00  0.00    +0.000 C 
ATOM     17  O   UNL     1       2.286   5.265  17.816  0.00  0.00    +0.000 OA
ATOM     18  N   UNL     1       4.287   6.359  17.890  0.00  0.00    +0.000 N 
ATOM     19  H   UNL     1       4.825   7.092  18.344  0.00  0.00    +0.000 HD
BRANCH  18  20
ATOM     20  C   UNL     1       4.984   5.296  17.176  0.00  0.00    +0.000 C 
ATOM     21  C   UNL     1       6.442   5.140  17.609  0.00  0.00    +0.000 C 
ATOM     22  C   UNL     1       7.207   4.660  16.373  0.00  0.00    +0.000 C 
ATOM     23  N   UNL     1       6.239   4.675  15.258  0.00  0.00    +0.000 N 
ATOM     24  C   UNL     1       5.087   5.512  15.658  0.00  0.00    +0.000 C 
BRANCH  23  25
ATOM     25  C   UNL     1       6.435   4.151  14.041  0.00  0.00    +0.000 C 
ATOM     26  N   UNL     1       6.604   3.715  12.986  0.00  0.00    +0.000 NA
ENDBRANCH  23  25
ENDBRANCH  18  20
ENDBRANCH   4  16
TORSDOF 4
ENDMDL
MODEL 2
REMARK VINA RESULT:      -7.4      2.263      9.389
REMARK  Name = 
REMARK  5 active torsions:
REMARK  status: ('A' for Active; 'I' for Inactive)
REMARK    1  A    between atoms: C_1  and  C_2
REMARK    2  A    between atoms: C_7  and  C_8
REMARK    3  A    between atoms: C_11  and  C_12
REMARK    4  A    between atoms: N_14  and  C_15
REMARK    5  A    between atoms: N_18  and  C_19
REMARK                            x       y       z     vdW  Elec       q    Type
REMARK                         _______ _______ _______ _____ _____    ______ ____
ROOT
ATOM      1  C   UNL     1       2.741   7.102  18.502  0.00  0.00    +0.000 A 
ATOM      2  C   UNL     1       2.333   8.155  17.665  0.00  0.00    +0.000 A 
ATOM      3  C   UNL     1       1.513   9.191  18.134  0.00  0.00    +0.000 A 
ATOM      4  C   UNL     1       1.076   9.213  19.465  0.00  0.00    +0.000 A 
ATOM      5  C   UNL     1       1.467   8.171  20.302  0.00  0.00    +0.000 A 
ATOM      6  F   UNL     1       1.083   8.137  21.587  0.00  0.00    +0.000 F 
ATOM      7  C   UNL     1       2.283   7.133  19.833  0.00  0.00    +0.000 A 
ENDROOT
BRANCH   1  14
ATOM      8  C   UNL     1       7.299   5.711  17.674  0.00  0.00    +0.000 C 
ATOM      9  C   UNL     1       5.836   5.394  17.610  0.00  0.00    +0.000 A 
ATOM     10  N   UNL     1       5.480   4.175  17.166  0.00  0.00    +0.000 NA
ATOM     11  C   UNL     1       4.158   3.915  17.139  0.00  0.00    +0.000 A 
ATOM     12  C   UNL     1       3.198   4.811  17.543  0.00  0.00    +0.000 A 
ATOM     13  F   UNL     1       1.901   4.483  17.481  0.00  0.00    +0.000 F 
ATOM     14  C   UNL     1       3.641   6.041  17.996  0.00  0.00    +0.000 A 
ATOM     15  N   UNL     1       4.969   6.343  18.022  0.00  0.00    +0.000 NA
ENDBRANCH   1  14
BRANCH   4  16
ATOM     16  C   UNL     1       0.211  10.345  19.894  0.00  0.00    +0.000 C 
ATOM     17  O   UNL     1      -0.944  10.410  19.476  0.00  0.00    +0.000 OA
ATOM     18  N   UNL     1       0.724  11.290  20.760  0.00  0.00    +0.000 N 
ATOM     19  H   UNL     1       1.721  11.288  20.956  0.00  0.00    +0.000 HD
BRANCH  18  20
ATOM     20  C   UNL     1      -0.082  12.438  21.160  0.00  0.00    +0.000 C 
ATOM     21  C   UNL     1       0.735  13.722  21.303  0.00  0.00    +0.000 C 
ATOM     22  C   UNL     1       0.057  14.541  22.404  0.00  0.00    +0.000 C 
ATOM     23  N   UNL     1      -1.019  13.688  22.948  0.00  0.00    +0.000 N 
ATOM     24  C   UNL     1      -0.757  12.293  22.533  0.00  0.00    +0.000 C 
BRANCH  23  25
ATOM     25  C   UNL     1      -1.980  14.081  23.794  0.00  0.00    +0.000 C 
ATOM     26  N   UNL     1      -2.798  14.415  24.537  0.00  0.00    +0.000 NA
ENDBRANCH  23  25
ENDBRANCH  18  20
ENDBRANCH   4  16
TORSDOF 4
ENDMDL
MODEL 3
REMARK VINA RESULT:      -7.4      2.771      9.427
REMARK  Name = 
REMARK  5 active torsions:
REMARK  status: ('A' for Active; 'I' for Inactive)
REMARK    1  A    between atoms: C_1  and  C_2
REMARK    2  A    between atoms: C_7  and  C_8
REMARK    3  A    between atoms: C_11  and  C_12
REMARK    4  A    between atoms: N_14  and  C_15
REMARK    5  A    between atoms: N_18  and  C_19
REMARK                            x       y       z     vdW  Elec       q    Type
REMARK                         _______ _______ _______ _____ _____    ______ ____
ROOT
ATOM      1  C   UNL     1       2.532   7.031  18.649  0.00  0.00    +0.000 A 
ATOM      2  C   UNL     1       2.329   8.149  17.820  0.00  0.00    +0.000 A 
ATOM      3  C   UNL     1       1.706   9.312  18.296  0.00  0.00    +0.000 A 
ATOM      4  C   UNL     1       1.269   9.400  19.624  0.00  0.00    +0.000 A 
ATOM      5  C   UNL     1       1.457   8.295  20.452  0.00  0.00    +0.000 A 
ATOM      6  F   UNL     1       1.062   8.319  21.733  0.00  0.00    +0.000 F 
ATOM      7  C   UNL     1       2.075   7.131  19.977  0.00  0.00    +0.000 A 
ENDROOT
BRANCH   1  14
ATOM      8  C   UNL     1       6.770   4.859  17.803  0.00  0.00    +0.000 C 
ATOM      9  C   UNL     1       5.274   4.805  17.742  0.00  0.00    +0.000 A 
ATOM     10  N   UNL     1       4.706   3.671  17.295  0.00  0.00    +0.000 NA
ATOM     11  C   UNL     1       3.359   3.648  17.272  0.00  0.00    +0.000 A 
ATOM     12  C   UNL     1       2.575   4.699  17.681  0.00  0.00    +0.000 A 
ATOM     13  F   UNL     1       1.239   4.606  17.621  0.00  0.00    +0.000 F 
ATOM     14  C   UNL     1       3.229   5.829  18.137  0.00  0.00    +0.000 A 
ATOM     15  N   UNL     1       4.589   5.891  18.159  0.00  0.00    +0.000 NA
ENDBRANCH   1  14
BRANCH   4  16
ATOM     16  C   UNL     1       0.621  10.666  20.060  0.00  0.00    +0.000 C 
ATOM     17  O   UNL     1       1.322  11.648  20.297  0.00  0.00    +0.000 OA
ATOM     18  N   UNL     1      -0.754  10.710  20.178  0.00  0.00    +0.000 N 
ATOM     19  H   UNL     1      -1.280   9.842  20.126  0.00  0.00    +0.000 HD
BRANCH  18  20
ATOM     20  C   UNL     1      -1.415  11.921  20.651  0.00  0.00    +0.000 C 
ATOM     21  C   UNL     1      -1.750  11.876  22.141  0.00  0.00    +0.000 C 
ATOM     22  C   UNL     1      -3.027  12.701  22.318  0.00  0.00    +0.000 C 
ATOM     23  N   UNL     1      -3.464  13.081  20.959  0.00  0.00    +0.000 N 
ATOM     24  C   UNL     1      -2.774  12.202  19.990  0.00  0.00    +0.000 C 
BRANCH  23  25
ATOM     25  C   UNL     1      -4.428  13.961  20.661  0.00  0.00    +0.000 C 
ATOM     26  N   UNL     1      -5.271  14.710  20.412  0.00  0.00    +0.000 NA
ENDBRANCH  23  25
ENDBRANCH  18  20
ENDBRANCH   4  16
TORSDOF 4
ENDMDL
MODEL 4
REMARK VINA RESULT:      -7.4      2.626      9.248
REMARK  Name = 
REMARK  5 active torsions:
REMARK  status: ('A' for Active; 'I' for Inactive)
REMARK    1  A    between atoms: C_1  and  C_2
REMARK    2  A    between atoms: C_7  and  C_8
REMARK    3  A    between atoms: C_11  and  C_12
REMARK    4  A    between atoms: N_14  and  C_15
REMARK    5  A    between atoms: N_18  and  C_19
REMARK                            x       y       z     vdW  Elec       q    Type
REMARK                         _______ _______ _______ _____ _____    ______ ____
ROOT
ATOM      1  C   UNL     1       4.303   6.263  18.003  0.00  0.00    +0.000 A 
ATOM      2  C   UNL     1       3.891   7.491  17.456  0.00  0.00    +0.000 A 
ATOM      3  C   UNL     1       2.844   8.232  18.023  0.00  0.00    +0.000 A 
ATOM      4  C   UNL     1       2.174   7.772  19.164  0.00  0.00    +0.000 A 
ATOM      5  C   UNL     1       2.569   6.553  19.710  0.00  0.00    +0.000 A 
ATOM      6  F   UNL     1       1.968   6.060  20.803  0.00  0.00    +0.000 F 
ATOM      7  C   UNL     1       3.611   5.809  19.142  0.00  0.00    +0.000 A 
ENDROOT
BRANCH   1  14
ATOM      8  C   UNL     1       6.102   4.047  14.098  0.00  0.00    +0.000 C 
ATOM      9  C   UNL     1       6.282   4.462  15.526  0.00  0.00    +0.000 A 
ATOM     10  N   UNL     1       7.459   4.181  16.116  0.00  0.00    +0.000 NA
ATOM     11  C   UNL     1       7.595   4.585  17.394  0.00  0.00    +0.000 A 
ATOM     12  C   UNL     1       6.617   5.256  18.088  0.00  0.00    +0.000 A 
ATOM     13  F   UNL     1       6.824   5.619  19.361  0.00  0.00    +0.000 F 
ATOM     14  C   UNL     1       5.438   5.517  17.413  0.00  0.00    +0.000 A 
ATOM     15  N   UNL     1       5.261   5.110  16.126  0.00  0.00    +0.000 NA
ENDBRANCH   1  14
BRANCH   4  16
ATOM     16  C   UNL     1       1.076   8.613  19.712  0.00  0.00    +0.000 C 
ATOM     17  O   UNL     1       0.730   8.459  20.883  0.00  0.00    +0.000 OA
ATOM     18  N   UNL     1       0.480   9.554  18.896  0.00  0.00    +0.000 N 
ATOM     19  H   UNL     1       0.685   9.541  17.901  0.00  0.00    +0.000 HD
BRANCH  18  20
ATOM     20  C   UNL     1      -0.632  10.359  19.389  0.00  0.00    +0.000 C 
ATOM     21  C   UNL     1      -1.769  10.493  18.376  0.00  0.00    +0.000 C 
ATOM     22  C   UNL     1      -2.399  11.866  18.619  0.00  0.00    +0.000 C 
ATOM     23  N   UNL     1      -1.562  12.529  19.639  0.00  0.00    +0.000 N 
ATOM     24  C   UNL     1      -0.267  11.818  19.707  0.00  0.00    +0.000 C 
BRANCH  23  25
ATOM     25  C   UNL     1      -1.860  13.665  20.282  0.00  0.00    +0.000 C 
ATOM     26  N   UNL     1      -2.114  14.654  20.821  0.00  0.00    +0.000 NA
ENDBRANCH  23  25
ENDBRANCH  18  20
ENDBRANCH   4  16
TORSDOF 4
ENDMDL
MODEL 5
REMARK VINA RESULT:      -7.4      2.094      9.365
REMARK  Name = 
REMARK  5 active torsions:
REMARK  status: ('A' for Active; 'I' for Inactive)
REMARK    1  A    between atoms: C_1  and  C_2
REMARK    2  A    between atoms: C_7  and  C_8
REMARK    3  A    between atoms: C_11  and  C_12
REMARK    4  A    between atoms: N_14  and  C_15
REMARK    5  A    between atoms: N_18  and  C_19
REMARK                            x       y       z     vdW  Elec       q    Type
REMARK                         _______ _______ _______ _____ _____    ______ ____
ROOT
ATOM      1  C   UNL     1       4.270   6.573  17.855  0.00  0.00    +0.000 A 
ATOM      2  C   UNL     1       3.968   7.755  17.156  0.00  0.00    +0.000 A 
ATOM      3  C   UNL     1       2.910   8.588  17.545  0.00  0.00    +0.000 A 
ATOM      4  C   UNL     1       2.118   8.271  18.656  0.00  0.00    +0.000 A 
ATOM      5  C   UNL     1       2.403   7.098  19.352  0.00  0.00    +0.000 A 
ATOM      6  F   UNL     1       1.681   6.741  20.425  0.00  0.00    +0.000 F 
ATOM      7  C   UNL     1       3.456   6.262  18.962  0.00  0.00    +0.000 A 
ENDROOT
BRANCH   1  14
ATOM      8  C   UNL     1       6.485   4.190  14.276  0.00  0.00    +0.000 C 
ATOM      9  C   UNL     1       6.464   4.595  15.718  0.00  0.00    +0.000 A 
ATOM     10  N   UNL     1       7.501   4.217  16.489  0.00  0.00    +0.000 NA
ATOM     11  C   UNL     1       7.461   4.615  17.775  0.00  0.00    +0.000 A 
ATOM     12  C   UNL     1       6.445   5.371  18.306  0.00  0.00    +0.000 A 
ATOM     13  F   UNL     1       6.471   5.722  19.599  0.00  0.00    +0.000 F 
ATOM     14  C   UNL     1       5.418   5.729  17.452  0.00  0.00    +0.000 A 
ATOM     15  N   UNL     1       5.418   5.332  16.149  0.00  0.00    +0.000 NA
ENDBRANCH   1  14
BRANCH   4  16
ATOM     16  C   UNL     1       1.015   9.204  19.013  0.00  0.00    +0.000 C 
ATOM     17  O   UNL     1       0.183   9.504  18.158  0.00  0.00    +0.000 OA
ATOM     18  N   UNL     1       0.947   9.702  20.299  0.00  0.00    +0.000 N 
ATOM     19  H   UNL     1       1.735   9.556  20.924  0.00  0.00    +0.000 HD
BRANCH  18  20
ATOM     20  C   UNL     1      -0.092  10.657  20.665  0.00  0.00    +0.000 C 
ATOM     21  C   UNL     1       0.441  12.076  20.862  0.00  0.00    +0.000 C 
ATOM     22  C   UNL     1      -0.442  12.720  21.933  0.00  0.00    +0.000 C 
ATOM     23  N   UNL     1      -1.350  11.659  22.413  0.00  0.00    +0.000 N 
ATOM     24  C   UNL     1      -0.792  10.353  22.000  0.00  0.00    +0.000 C 
BRANCH  23  25
ATOM     25  C   UNL     1      -2.411  11.834  23.211  0.00  0.00    +0.000 C 
ATOM     26  N   UNL     1      -3.335  11.978  23.887  0.00  0.00    +0.000 NA
ENDBRANCH  23  25
ENDBRANCH  18  20
ENDBRANCH   4  16
TORSDOF 4
ENDMDL
MODEL 6
REMARK VINA RESULT:      -7.3      2.597      9.434
REMARK  Name = 
REMARK  5 active torsions:
REMARK  status: ('A' for Active; 'I' for Inactive)
REMARK    1  A    between atoms: C_1  and  C_2
REMARK    2  A    between atoms: C_7  and  C_8
REMARK    3  A    between atoms: C_11  and  C_12
REMARK    4  A    between atoms: N_14  and  C_15
REMARK    5  A    between atoms: N_18  and  C_19
REMARK                            x       y       z     vdW  Elec       q    Type
REMARK                         _______ _______ _______ _____ _____    ______ ____
ROOT
ATOM      1  C   UNL     1       2.351   7.093  18.730  0.00  0.00    +0.000 A 
ATOM      2  C   UNL     1       2.117   7.076  20.117  0.00  0.00    +0.000 A 
ATOM      3  C   UNL     1       1.571   8.183  20.782  0.00  0.00    +0.000 A 
ATOM      4  C   UNL     1       1.232   9.347  20.081  0.00  0.00    +0.000 A 
ATOM      5  C   UNL     1       1.467   9.379  18.708  0.00  0.00    +0.000 A 
ATOM      6  F   UNL     1       1.162  10.464  17.981  0.00  0.00    +0.000 F 
ATOM      7  C   UNL     1       2.017   8.276  18.042  0.00  0.00    +0.000 A 
ENDROOT
BRANCH   1  14
ATOM      8  C   UNL     1       5.930   5.221  16.069  0.00  0.00    +0.000 C 
ATOM      9  C   UNL     1       4.619   5.021  16.767  0.00  0.00    +0.000 A 
ATOM     10  N   UNL     1       4.089   3.785  16.758  0.00  0.00    +0.000 NA
ATOM     11  C   UNL     1       2.920   3.635  17.412  0.00  0.00    +0.000 A 
ATOM     12  C   UNL     1       2.279   4.657  18.068  0.00  0.00    +0.000 A 
ATOM     13  F   UNL     1       1.114   4.433  18.690  0.00  0.00    +0.000 F 
ATOM     14  C   UNL     1       2.889   5.898  18.041  0.00  0.00    +0.000 A 
ATOM     15  N   UNL     1       4.063   6.089  17.377  0.00  0.00    +0.000 NA
ENDBRANCH   1  14
BRANCH   4  16
ATOM     16  C   UNL     1       0.654  10.480  20.853  0.00  0.00    +0.000 C 
ATOM     17  O   UNL     1       1.393  11.165  21.559  0.00  0.00    +0.000 OA
ATOM     18  N   UNL     1      -0.698  10.742  20.749  0.00  0.00    +0.000 N 
ATOM     19  H   UNL     1      -1.295  10.064  20.285  0.00  0.00    +0.000 HD
BRANCH  18  20
ATOM     20  C   UNL     1      -1.303  11.814  21.531  0.00  0.00    +0.000 C 
ATOM     21  C   UNL     1      -1.688  11.379  22.945  0.00  0.00    +0.000 C 
ATOM     22  C   UNL     1      -2.921  12.201  23.326  0.00  0.00    +0.000 C 
ATOM     23  N   UNL     1      -3.292  12.970  22.120  0.00  0.00    +0.000 N 
ATOM     24  C   UNL     1      -2.623  12.352  20.955  0.00  0.00    +0.000 C 
BRANCH  23  25
ATOM     25  C   UNL     1      -4.194  13.958  22.066  0.00  0.00    +0.000 C 
ATOM     26  N   UNL     1      -4.973  14.810  22.036  0.00  0.00    +0.000 NA
ENDBRANCH  23  25
ENDBRANCH  18  20
ENDBRANCH   4  16
TORSDOF 4
ENDMDL
MODEL 7
REMARK VINA RESULT:      -7.3      2.794      9.602
REMARK  Name = 
REMARK  5 active torsions:
REMARK  status: ('A' for Active; 'I' for Inactive)
REMARK    1  A    between atoms: C_1  and  C_2
REMARK    2  A    between atoms: C_7  and  C_8
REMARK    3  A    between atoms: C_11  and  C_12
REMARK    4  A    between atoms: N_14  and  C_15
REMARK    5  A    between atoms: N_18  and  C_19
REMARK                            x       y       z     vdW  Elec       q    Type
REMARK                         _______ _______ _______ _____ _____    ______ ____
ROOT
ATOM      1  C   UNL     1       2.442   7.225  18.610  0.00  0.00    +0.000 A 
ATOM      2  C   UNL     1       2.149   8.347  17.814  0.00  0.00    +0.000 A 
ATOM      3  C   UNL     1       1.545   9.492  18.353  0.00  0.00    +0.000 A 
ATOM      4  C   UNL     1       1.219   9.559  19.713  0.00  0.00    +0.000 A 
ATOM      5  C   UNL     1       1.498   8.451  20.510  0.00  0.00    +0.000 A 
ATOM      6  F   UNL     1       1.210   8.455  21.820  0.00  0.00    +0.000 F 
ATOM      7  C   UNL     1       2.096   7.304  19.973  0.00  0.00    +0.000 A 
ENDROOT
BRANCH   1  14
ATOM      8  C   UNL     1       2.249   2.472  17.740  0.00  0.00    +0.000 C 
ATOM      9  C   UNL     1       3.002   3.761  17.620  0.00  0.00    +0.000 A 
ATOM     10  N   UNL     1       4.171   3.744  16.954  0.00  0.00    +0.000 NA
ATOM     11  C   UNL     1       4.812   4.924  16.847  0.00  0.00    +0.000 A 
ATOM     12  C   UNL     1       4.330   6.101  17.365  0.00  0.00    +0.000 A 
ATOM     13  F   UNL     1       5.029   7.235  17.225  0.00  0.00    +0.000 F 
ATOM     14  C   UNL     1       3.118   6.043  18.029  0.00  0.00    +0.000 A 
ATOM     15  N   UNL     1       2.450   4.865  18.169  0.00  0.00    +0.000 NA
ENDBRANCH   1  14
BRANCH   4  16
ATOM     16  C   UNL     1       0.585  10.807  20.215  0.00  0.00    +0.000 C 
ATOM     17  O   UNL     1       1.256  11.837  20.281  0.00  0.00    +0.000 OA
ATOM     18  N   UNL     1      -0.745  10.783  20.586  0.00  0.00    +0.000 N 
ATOM     19  H   UNL     1      -1.216   9.886  20.666  0.00  0.00    +0.000 HD
BRANCH  18  20
ATOM     20  C   UNL     1      -1.381  11.977  21.129  0.00  0.00    +0.000 C 
ATOM     21  C   UNL     1      -1.922  11.776  22.544  0.00  0.00    +0.000 C 
ATOM     22  C   UNL     1      -3.153  12.679  22.665  0.00  0.00    +0.000 C 
ATOM     23  N   UNL     1      -3.370  13.260  21.325  0.00  0.00    +0.000 N 
ATOM     24  C   UNL     1      -2.614  12.453  20.342  0.00  0.00    +0.000 C 
BRANCH  23  25
ATOM     25  C   UNL     1      -4.221  14.250  21.027  0.00  0.00    +0.000 C 
ATOM     26  N   UNL     1      -4.967  15.092  20.766  0.00  0.00    +0.000 NA
ENDBRANCH  23  25
ENDBRANCH  18  20
ENDBRANCH   4  16
TORSDOF 4
ENDMDL
MODEL 8
REMARK VINA RESULT:      -7.3      1.047      1.417
REMARK  Name = 
REMARK  5 active torsions:
REMARK  status: ('A' for Active; 'I' for Inactive)
REMARK    1  A    between atoms: C_1  and  C_2
REMARK    2  A    between atoms: C_7  and  C_8
REMARK    3  A    between atoms: C_11  and  C_12
REMARK    4  A    between atoms: N_14  and  C_15
REMARK    5  A    between atoms: N_18  and  C_19
REMARK                            x       y       z     vdW  Elec       q    Type
REMARK                         _______ _______ _______ _____ _____    ______ ____
ROOT
ATOM      1  C   UNL     1       0.991   9.401  20.519  0.00  0.00    +0.000 A 
ATOM      2  C   UNL     1       1.407   9.581  19.187  0.00  0.00    +0.000 A 
ATOM      3  C   UNL     1       2.016   8.546  18.463  0.00  0.00    +0.000 A 
ATOM      4  C   UNL     1       2.225   7.289  19.044  0.00  0.00    +0.000 A 
ATOM      5  C   UNL     1       1.824   7.102  20.365  0.00  0.00    +0.000 A 
ATOM      6  F   UNL     1       1.995   5.920  20.976  0.00  0.00    +0.000 F 
ATOM      7  C   UNL     1       1.220   8.135  21.092  0.00  0.00    +0.000 A 
ENDROOT
BRANCH   1  14
ATOM      8  C   UNL     1      -0.089  14.113  20.673  0.00  0.00    +0.000 C 
ATOM      9  C   UNL     1      -0.196  12.758  21.303  0.00  0.00    +0.000 A 
ATOM     10  N   UNL     1      -0.934  12.645  22.423  0.00  0.00    +0.000 NA
ATOM     11  C   UNL     1      -1.025  11.410  22.953  0.00  0.00    +0.000 A 
ATOM     12  C   UNL     1      -0.422  10.302  22.408  0.00  0.00    +0.000 A 
ATOM     13  F   UNL     1      -0.552   9.106  22.997  0.00  0.00    +0.000 F 
ATOM     14  C   UNL     1       0.313  10.494  21.252  0.00  0.00    +0.000 A 
ATOM     15  N   UNL     1       0.439  11.731  20.698  0.00  0.00    +0.000 NA
ENDBRANCH   1  14
BRANCH   4  16
ATOM     16  C   UNL     1       2.873   6.238  18.214  0.00  0.00    +0.000 C 
ATOM     17  O   UNL     1       2.212   5.263  17.857  0.00  0.00    +0.000 OA
ATOM     18  N   UNL     1       4.197   6.389  17.854  0.00  0.00    +0.000 N 
ATOM     19  H   UNL     1       4.746   7.121  18.295  0.00  0.00    +0.000 HD
BRANCH  18  20
ATOM     20  C   UNL     1       4.874   5.352  17.082  0.00  0.00    +0.000 C 
ATOM     21  C   UNL     1       6.201   4.916  17.702  0.00  0.00    +0.000 C 
ATOM     22  C   UNL     1       7.108   4.518  16.535  0.00  0.00    +0.000 C 
ATOM     23  N   UNL     1       6.362   4.846  15.303  0.00  0.00    +0.000 N 
ATOM     24  C   UNL     1       5.269   5.776  15.659  0.00  0.00    +0.000 C 
BRANCH  23  25
ATOM     25  C   UNL     1       6.704   4.487  14.059  0.00  0.00    +0.000 C 
ATOM     26  N   UNL     1       7.013   4.188  12.987  0.00  0.00    +0.000 NA
ENDBRANCH  23  25
ENDBRANCH  18  20
ENDBRANCH   4  16
TORSDOF 4
ENDMDL
MODEL 9
REMARK VINA RESULT:      -7.3      2.753      9.585
REMARK  Name = 
REMARK  5 active torsions:
REMARK  status: ('A' for Active; 'I' for Inactive)
REMARK    1  A    between atoms: C_1  and  C_2
REMARK    2  A    between atoms: C_7  and  C_8
REMARK    3  A    between atoms: C_11  and  C_12
REMARK    4  A    between atoms: N_14  and  C_15
REMARK    5  A    between atoms: N_18  and  C_19
REMARK                            x       y       z     vdW  Elec       q    Type
REMARK                         _______ _______ _______ _____ _____    ______ ____
ROOT
ATOM      1  C   UNL     1       2.310   7.234  18.877  0.00  0.00    +0.000 A 
ATOM      2  C   UNL     1       1.993   7.265  20.247  0.00  0.00    +0.000 A 
ATOM      3  C   UNL     1       1.435   8.404  20.846  0.00  0.00    +0.000 A 
ATOM      4  C   UNL     1       1.168   9.554  20.092  0.00  0.00    +0.000 A 
ATOM      5  C   UNL     1       1.485   9.538  18.735  0.00  0.00    +0.000 A 
ATOM      6  F   UNL     1       1.252  10.607  17.960  0.00  0.00    +0.000 F 
ATOM      7  C   UNL     1       2.047   8.403  18.137  0.00  0.00    +0.000 A 
ENDROOT
BRANCH   1  14
ATOM      8  C   UNL     1       1.801   2.477  18.168  0.00  0.00    +0.000 C 
ATOM      9  C   UNL     1       2.594   3.726  17.928  0.00  0.00    +0.000 A 
ATOM     10  N   UNL     1       3.679   3.636  17.137  0.00  0.00    +0.000 NA
ATOM     11  C   UNL     1       4.358   4.780  16.926  0.00  0.00    +0.000 A 
ATOM     12  C   UNL     1       3.991   5.991  17.462  0.00  0.00    +0.000 A 
ATOM     13  F   UNL     1       4.722   7.086  17.213  0.00  0.00    +0.000 F 
ATOM     14  C   UNL     1       2.860   6.007  18.258  0.00  0.00    +0.000 A 
ATOM     15  N   UNL     1       2.159   4.867  18.504  0.00  0.00    +0.000 NA
ENDBRANCH   1  14
BRANCH   4  16
ATOM     16  C   UNL     1       0.571  10.722  20.793  0.00  0.00    +0.000 C 
ATOM     17  O   UNL     1       1.313  11.598  21.237  0.00  0.00    +0.000 OA
ATOM     18  N   UNL     1      -0.801  10.801  20.918  0.00  0.00    +0.000 N 
ATOM     19  H   UNL     1      -1.363   9.989  20.680  0.00  0.00    +0.000 HD
BRANCH  18  20
ATOM     20  C   UNL     1      -1.413  11.908  21.644  0.00  0.00    +0.000 C 
ATOM     21  C   UNL     1      -1.835  11.532  23.064  0.00  0.00    +0.000 C 
ATOM     22  C   UNL     1      -3.068  12.381  23.384  0.00  0.00    +0.000 C 
ATOM     23  N   UNL     1      -3.402  13.106  22.141  0.00  0.00    +0.000 N 
ATOM     24  C   UNL     1      -2.713  12.437  21.016  0.00  0.00    +0.000 C 
BRANCH  23  25
ATOM     25  C   UNL     1      -4.292  14.101  22.027  0.00  0.00    +0.000 C 
ATOM     26  N   UNL     1      -5.065  14.954  21.944  0.00  0.00    +0.000 NA
ENDBRANCH  23  25
ENDBRANCH  18  20
ENDBRANCH   4  16
TORSDOF 4
ENDMDL
