MODEL 1
REMARK VINA RESULT:      -8.5      0.000      0.000
REMARK  Name = 
REMARK  2 active torsions:
REMARK  status: ('A' for Active; 'I' for Inactive)
REMARK    1  A    between atoms: N_7  and  C_8
REMARK    2  A    between atoms: C_11  and  O_12
REMARK                            x       y       z     vdW  Elec       q    Type
REMARK                         _______ _______ _______ _____ _____    ______ ____
ROOT
ATOM      1  O   UNL     1       6.456   5.376  19.910  0.00  0.00    +0.000 OA
ATOM      2  C   UNL     1       6.181   4.990  18.780  0.00  0.00    +0.000 A 
ATOM      3  N   UNL     1       6.990   5.329  17.718  0.00  0.00    +0.000 NA
ATOM      4  C   UNL     1       6.709   4.898  16.525  0.00  0.00    +0.000 A 
ATOM      5  C   UNL     1       5.577   3.979  16.237  0.00  0.00    +0.000 A 
ATOM      6  C   UNL     1       4.768   3.727  17.265  0.00  0.00    +0.000 A 
ATOM      7  N   UNL     1       5.006   4.261  18.517  0.00  0.00    +0.000 N 
ATOM      8  O   UNL     1       5.338   3.502  14.960  0.00  0.00    +0.000 OA
ATOM      9  C   UNL     1       6.144   3.974  13.943  0.00  0.00    +0.000 A 
ATOM     10  C   UNL     1       5.877   3.491  12.663  0.00  0.00    +0.000 A 
ATOM     11  C   UNL     1       6.650   3.925  11.587  0.00  0.00    +0.000 A 
ATOM     12  C   UNL     1       7.681   4.844  11.794  0.00  0.00    +0.000 A 
ATOM     13  C   UNL     1       7.945   5.330  13.079  0.00  0.00    +0.000 A 
ATOM     14  C   UNL     1       7.185   4.895  14.168  0.00  0.00    +0.000 A 
ATOM     15  N   UNL     1       7.471   5.320  15.467  0.00  0.00    +0.000 N 
ATOM     16  H   UNL     1       8.174   6.024  15.633  0.00  0.00    +0.000 HD
ENDROOT
BRANCH   7  17
ATOM     17  C   UNL     1       3.911   4.222  19.495  0.00  0.00    +0.000 C 
ATOM     18  C   UNL     1       2.603   4.715  18.974  0.00  0.00    +0.000 C 
ATOM     19  C   UNL     1       1.643   3.791  19.103  0.00  0.00    +0.000 C 
ATOM     20  C   UNL     1       2.167   2.500  19.631  0.00  0.00    +0.000 C 
ATOM     21  C   UNL     1       3.608   2.811  20.041  0.00  0.00    +0.000 C 
BRANCH  20  22
ATOM     22  O   UNL     1       2.114   1.535  18.598  0.00  0.00    +0.000 OA
ATOM     23  H   UNL     1       3.027   1.450  18.241  0.00  0.00    +0.000 HD
ENDBRANCH  20  22
ENDBRANCH   7  17
TORSDOF 2
ENDMDL
MODEL 2
REMARK VINA RESULT:      -7.8      3.370      6.892
REMARK  Name = 
REMARK  2 active torsions:
REMARK  status: ('A' for Active; 'I' for Inactive)
REMARK    1  A    between atoms: N_7  and  C_8
REMARK    2  A    between atoms: C_11  and  O_12
REMARK                            x       y       z     vdW  Elec       q    Type
REMARK                         _______ _______ _______ _____ _____    ______ ____
ROOT
ATOM      1  O   UNL     1       5.149   3.470  19.469  0.00  0.00    +0.000 OA
ATOM      2  C   UNL     1       4.609   4.495  19.067  0.00  0.00    +0.000 A 
ATOM      3  N   UNL     1       3.746   5.187  19.888  0.00  0.00    +0.000 NA
ATOM      4  C   UNL     1       3.195   6.286  19.468  0.00  0.00    +0.000 A 
ATOM      5  C   UNL     1       3.498   6.897  18.147  0.00  0.00    +0.000 A 
ATOM      6  C   UNL     1       4.275   6.171  17.346  0.00  0.00    +0.000 A 
ATOM      7  N   UNL     1       4.788   4.953  17.749  0.00  0.00    +0.000 N 
ATOM      8  O   UNL     1       2.926   8.095  17.755  0.00  0.00    +0.000 OA
ATOM      9  C   UNL     1       1.999   8.666  18.604  0.00  0.00    +0.000 A 
ATOM     10  C   UNL     1       1.426   9.865  18.183  0.00  0.00    +0.000 A 
ATOM     11  C   UNL     1       0.482  10.498  18.989  0.00  0.00    +0.000 A 
ATOM     12  C   UNL     1       0.109   9.928  20.208  0.00  0.00    +0.000 A 
ATOM     13  C   UNL     1       0.683   8.723  20.627  0.00  0.00    +0.000 A 
ATOM     14  C   UNL     1       1.639   8.082  19.834  0.00  0.00    +0.000 A 
ATOM     15  N   UNL     1       2.269   6.912  20.261  0.00  0.00    +0.000 N 
ATOM     16  H   UNL     1       1.977   6.454  21.111  0.00  0.00    +0.000 HD
ENDROOT
BRANCH   7  17
ATOM     17  C   UNL     1       5.341   4.068  16.714  0.00  0.00    +0.000 C 
ATOM     18  C   UNL     1       4.882   4.381  15.329  0.00  0.00    +0.000 C 
ATOM     19  C   UNL     1       5.915   4.612  14.509  0.00  0.00    +0.000 C 
ATOM     20  C   UNL     1       7.221   4.597  15.227  0.00  0.00    +0.000 C 
ATOM     21  C   UNL     1       6.881   4.088  16.629  0.00  0.00    +0.000 C 
BRANCH  20  22
ATOM     22  O   UNL     1       7.734   5.915  15.258  0.00  0.00    +0.000 OA
ATOM     23  H   UNL     1       7.005   6.510  14.971  0.00  0.00    +0.000 HD
ENDBRANCH  20  22
ENDBRANCH   7  17
TORSDOF 2
ENDMDL
MODEL 3
REMARK VINA RESULT:      -7.0      5.927      7.656
REMARK  Name = 
REMARK  2 active torsions:
REMARK  status: ('A' for Active; 'I' for Inactive)
REMARK    1  A    between atoms: N_7  and  C_8
REMARK    2  A    between atoms: C_11  and  O_12
REMARK                            x       y       z     vdW  Elec       q    Type
REMARK                         _______ _______ _______ _____ _____    ______ ____
ROOT
ATOM      1  O   UNL     1      -0.399   9.321  22.014  0.00  0.00    +0.000 OA
ATOM      2  C   UNL     1       0.349   9.058  21.079  0.00  0.00    +0.000 A 
ATOM      3  N   UNL     1       1.087   7.894  21.092  0.00  0.00    +0.000 NA
ATOM      4  C   UNL     1       1.860   7.606  20.089  0.00  0.00    +0.000 A 
ATOM      5  C   UNL     1       1.950   8.442  18.863  0.00  0.00    +0.000 A 
ATOM      6  C   UNL     1       1.287   9.596  18.908  0.00  0.00    +0.000 A 
ATOM      7  N   UNL     1       0.537   9.955  20.012  0.00  0.00    +0.000 N 
ATOM      8  O   UNL     1       2.751   8.076  17.795  0.00  0.00    +0.000 OA
ATOM      9  C   UNL     1       3.527   6.944  17.938  0.00  0.00    +0.000 A 
ATOM     10  C   UNL     1       4.335   6.602  16.855  0.00  0.00    +0.000 A 
ATOM     11  C   UNL     1       5.147   5.472  16.930  0.00  0.00    +0.000 A 
ATOM     12  C   UNL     1       5.153   4.692  18.088  0.00  0.00    +0.000 A 
ATOM     13  C   UNL     1       4.343   5.038  19.175  0.00  0.00    +0.000 A 
ATOM     14  C   UNL     1       3.517   6.164  19.110  0.00  0.00    +0.000 A 
ATOM     15  N   UNL     1       2.656   6.492  20.159  0.00  0.00    +0.000 N 
ATOM     16  H   UNL     1       2.683   5.976  21.026  0.00  0.00    +0.000 HD
ENDROOT
BRANCH   7  17
ATOM     17  C   UNL     1       0.123  11.359  20.128  0.00  0.00    +0.000 C 
ATOM     18  C   UNL     1       1.007  12.323  19.411  0.00  0.00    +0.000 C 
ATOM     19  C   UNL     1       0.319  13.058  18.528  0.00  0.00    +0.000 C 
ATOM     20  C   UNL     1      -1.107  12.640  18.433  0.00  0.00    +0.000 C 
ATOM     21  C   UNL     1      -1.291  11.643  19.580  0.00  0.00    +0.000 C 
BRANCH  20  22
ATOM     22  O   UNL     1      -1.317  12.031  17.173  0.00  0.00    +0.000 OA
ATOM     23  H   UNL     1      -2.032  12.538  16.728  0.00  0.00    +0.000 HD
ENDBRANCH  20  22
ENDBRANCH   7  17
TORSDOF 2
ENDMDL
MODEL 4
REMARK VINA RESULT:      -6.9      5.553      7.450
REMARK  Name = 
REMARK  2 active torsions:
REMARK  status: ('A' for Active; 'I' for Inactive)
REMARK    1  A    between atoms: N_7  and  C_8
REMARK    2  A    between atoms: C_11  and  O_12
REMARK                            x       y       z     vdW  Elec       q    Type
REMARK                         _______ _______ _______ _____ _____    ______ ____
ROOT
ATOM      1  O   UNL     1      -0.197   9.174  21.881  0.00  0.00    +0.000 OA
ATOM      2  C   UNL     1       0.552   8.879  20.957  0.00  0.00    +0.000 A 
ATOM      3  N   UNL     1       1.277   7.708  21.004  0.00  0.00    +0.000 NA
ATOM      4  C   UNL     1       2.052   7.385  20.013  0.00  0.00    +0.000 A 
ATOM      5  C   UNL     1       2.156   8.188  18.765  0.00  0.00    +0.000 A 
ATOM      6  C   UNL     1       1.505   9.350  18.777  0.00  0.00    +0.000 A 
ATOM      7  N   UNL     1       0.754   9.745  19.867  0.00  0.00    +0.000 N 
ATOM      8  O   UNL     1       2.957   7.786  17.710  0.00  0.00    +0.000 OA
ATOM      9  C   UNL     1       3.720   6.650  17.887  0.00  0.00    +0.000 A 
ATOM     10  C   UNL     1       4.529   6.271  16.817  0.00  0.00    +0.000 A 
ATOM     11  C   UNL     1       5.328   5.134  16.925  0.00  0.00    +0.000 A 
ATOM     12  C   UNL     1       5.321   4.385  18.103  0.00  0.00    +0.000 A 
ATOM     13  C   UNL     1       4.510   4.769  19.177  0.00  0.00    +0.000 A 
ATOM     14  C   UNL     1       3.696   5.900  19.079  0.00  0.00    +0.000 A 
ATOM     15  N   UNL     1       2.835   6.266  20.115  0.00  0.00    +0.000 N 
ATOM     16  H   UNL     1       2.852   5.772  20.995  0.00  0.00    +0.000 HD
ENDROOT
BRANCH   7  17
ATOM     17  C   UNL     1       0.355  11.157  19.946  0.00  0.00    +0.000 C 
ATOM     18  C   UNL     1       1.342  12.039  20.635  0.00  0.00    +0.000 C 
ATOM     19  C   UNL     1       1.728  13.052  19.850  0.00  0.00    +0.000 C 
ATOM     20  C   UNL     1       1.150  12.958  18.480  0.00  0.00    +0.000 C 
ATOM     21  C   UNL     1       0.130  11.822  18.572  0.00  0.00    +0.000 C 
BRANCH  20  22
ATOM     22  O   UNL     1       2.191  12.655  17.571  0.00  0.00    +0.000 OA
ATOM     23  H   UNL     1       2.465  13.505  17.158  0.00  0.00    +0.000 HD
ENDBRANCH  20  22
ENDBRANCH   7  17
TORSDOF 2
ENDMDL
MODEL 5
REMARK VINA RESULT:      -6.9      5.137      7.736
REMARK  Name = 
REMARK  2 active torsions:
REMARK  status: ('A' for Active; 'I' for Inactive)
REMARK    1  A    between atoms: N_7  and  C_8
REMARK    2  A    between atoms: C_11  and  O_12
REMARK                            x       y       z     vdW  Elec       q    Type
REMARK                         _______ _______ _______ _____ _____    ______ ____
ROOT
ATOM      1  O   UNL     1       2.338  10.390  17.334  0.00  0.00    +0.000 OA
ATOM      2  C   UNL     1       2.152   9.456  18.105  0.00  0.00    +0.000 A 
ATOM      3  N   UNL     1       2.556   8.185  17.760  0.00  0.00    +0.000 NA
ATOM      4  C   UNL     1       2.380   7.201  18.589  0.00  0.00    +0.000 A 
ATOM      5  C   UNL     1       1.815   7.377  19.954  0.00  0.00    +0.000 A 
ATOM      6  C   UNL     1       1.365   8.598  20.233  0.00  0.00    +0.000 A 
ATOM      7  N   UNL     1       1.461   9.630  19.319  0.00  0.00    +0.000 N 
ATOM      8  O   UNL     1       1.687   6.310  20.826  0.00  0.00    +0.000 OA
ATOM      9  C   UNL     1       2.030   5.058  20.357  0.00  0.00    +0.000 A 
ATOM     10  C   UNL     1       1.880   3.997  21.249  0.00  0.00    +0.000 A 
ATOM     11  C   UNL     1       2.205   2.704  20.843  0.00  0.00    +0.000 A 
ATOM     12  C   UNL     1       2.672   2.476  19.547  0.00  0.00    +0.000 A 
ATOM     13  C   UNL     1       2.819   3.541  18.653  0.00  0.00    +0.000 A 
ATOM     14  C   UNL     1       2.506   4.845  19.049  0.00  0.00    +0.000 A 
ATOM     15  N   UNL     1       2.703   5.929  18.193  0.00  0.00    +0.000 N 
ATOM     16  H   UNL     1       2.987   5.783  17.236  0.00  0.00    +0.000 HD
ENDROOT
BRANCH   7  17
ATOM     17  C   UNL     1       0.652  10.832  19.558  0.00  0.00    +0.000 C 
ATOM     18  C   UNL     1      -0.805  10.568  19.737  0.00  0.00    +0.000 C 
ATOM     19  C   UNL     1      -1.251  11.045  20.906  0.00  0.00    +0.000 C 
ATOM     20  C   UNL     1      -0.155  11.609  21.742  0.00  0.00    +0.000 C 
ATOM     21  C   UNL     1       1.063  11.624  20.817  0.00  0.00    +0.000 C 
BRANCH  20  22
ATOM     22  O   UNL     1       0.045  10.761  22.856  0.00  0.00    +0.000 OA
ATOM     23  H   UNL     1      -0.159  11.293  23.659  0.00  0.00    +0.000 HD
ENDBRANCH  20  22
ENDBRANCH   7  17
TORSDOF 2
ENDMDL
MODEL 6
REMARK VINA RESULT:      -6.8      3.987      7.354
REMARK  Name = 
REMARK  2 active torsions:
REMARK  status: ('A' for Active; 'I' for Inactive)
REMARK    1  A    between atoms: N_7  and  C_8
REMARK    2  A    between atoms: C_11  and  O_12
REMARK                            x       y       z     vdW  Elec       q    Type
REMARK                         _______ _______ _______ _____ _____    ______ ____
ROOT
ATOM      1  O   UNL     1       4.387   6.084  16.538  0.00  0.00    +0.000 OA
ATOM      2  C   UNL     1       3.712   6.299  17.538  0.00  0.00    +0.000 A 
ATOM      3  N   UNL     1       3.172   7.549  17.751  0.00  0.00    +0.000 NA
ATOM      4  C   UNL     1       2.437   7.767  18.799  0.00  0.00    +0.000 A 
ATOM      5  C   UNL     1       2.074   6.706  19.776  0.00  0.00    +0.000 A 
ATOM      6  C   UNL     1       2.668   5.529  19.588  0.00  0.00    +0.000 A 
ATOM      7  N   UNL     1       3.529   5.316  18.528  0.00  0.00    +0.000 N 
ATOM      8  O   UNL     1       1.248   6.967  20.855  0.00  0.00    +0.000 OA
ATOM      9  C   UNL     1       0.835   8.271  21.039  0.00  0.00    +0.000 A 
ATOM     10  C   UNL     1       0.015   8.514  22.141  0.00  0.00    +0.000 A 
ATOM     11  C   UNL     1      -0.440   9.807  22.390  0.00  0.00    +0.000 A 
ATOM     12  C   UNL     1      -0.069  10.854  21.543  0.00  0.00    +0.000 A 
ATOM     13  C   UNL     1       0.757  10.608  20.440  0.00  0.00    +0.000 A 
ATOM     14  C   UNL     1       1.212   9.315  20.172  0.00  0.00    +0.000 A 
ATOM     15  N   UNL     1       1.985   9.038  19.044  0.00  0.00    +0.000 N 
ATOM     16  H   UNL     1       2.311   9.785  18.449  0.00  0.00    +0.000 HD
ENDROOT
BRANCH   7  17
ATOM     17  C   UNL     1       4.394   4.130  18.578  0.00  0.00    +0.000 C 
ATOM     18  C   UNL     1       4.494   3.498  19.927  0.00  0.00    +0.000 C 
ATOM     19  C   UNL     1       4.132   2.209  19.894  0.00  0.00    +0.000 C 
ATOM     20  C   UNL     1       3.634   1.796  18.552  0.00  0.00    +0.000 C 
ATOM     21  C   UNL     1       3.945   2.987  17.644  0.00  0.00    +0.000 C 
BRANCH  20  22
ATOM     22  O   UNL     1       2.242   1.556  18.642  0.00  0.00    +0.000 OA
ATOM     23  H   UNL     1       2.008   1.595  19.597  0.00  0.00    +0.000 HD
ENDBRANCH  20  22
ENDBRANCH   7  17
TORSDOF 2
ENDMDL
MODEL 7
REMARK VINA RESULT:      -6.8      1.302      1.457
REMARK  Name = 
REMARK  2 active torsions:
REMARK  status: ('A' for Active; 'I' for Inactive)
REMARK    1  A    between atoms: N_7  and  C_8
REMARK    2  A    between atoms: C_11  and  O_12
REMARK                            x       y       z     vdW  Elec       q    Type
REMARK                         _______ _______ _______ _____ _____    ______ ____
ROOT
ATOM      1  O   UNL     1       4.671   5.688  20.016  0.00  0.00    +0.000 OA
ATOM      2  C   UNL     1       4.679   5.252  18.870  0.00  0.00    +0.000 A 
ATOM      3  N   UNL     1       5.707   5.581  18.014  0.00  0.00    +0.000 NA
ATOM      4  C   UNL     1       5.725   5.098  16.808  0.00  0.00    +0.000 A 
ATOM      5  C   UNL     1       4.715   4.131  16.302  0.00  0.00    +0.000 A 
ATOM      6  C   UNL     1       3.694   3.890  17.122  0.00  0.00    +0.000 A 
ATOM      7  N   UNL     1       3.617   4.475  18.371  0.00  0.00    +0.000 N 
ATOM      8  O   UNL     1       4.795   3.602  15.026  0.00  0.00    +0.000 OA
ATOM      9  C   UNL     1       5.806   4.064  14.207  0.00  0.00    +0.000 A 
ATOM     10  C   UNL     1       5.860   3.527  12.922  0.00  0.00    +0.000 A 
ATOM     11  C   UNL     1       6.853   3.948  12.040  0.00  0.00    +0.000 A 
ATOM     12  C   UNL     1       7.784   4.908  12.442  0.00  0.00    +0.000 A 
ATOM     13  C   UNL     1       7.726   5.448  13.732  0.00  0.00    +0.000 A 
ATOM     14  C   UNL     1       6.742   5.028  14.630  0.00  0.00    +0.000 A 
ATOM     15  N   UNL     1       6.704   5.508  15.941  0.00  0.00    +0.000 N 
ATOM     16  H   UNL     1       7.331   6.241  16.237  0.00  0.00    +0.000 HD
ENDROOT
BRANCH   7  17
ATOM     17  C   UNL     1       2.324   4.435  19.066  0.00  0.00    +0.000 C 
ATOM     18  C   UNL     1       1.577   3.153  18.903  0.00  0.00    +0.000 C 
ATOM     19  C   UNL     1       1.293   2.596  20.087  0.00  0.00    +0.000 C 
ATOM     20  C   UNL     1       1.887   3.351  21.225  0.00  0.00    +0.000 C 
ATOM     21  C   UNL     1       2.426   4.635  20.593  0.00  0.00    +0.000 C 
BRANCH  20  22
ATOM     22  O   UNL     1       2.924   2.572  21.791  0.00  0.00    +0.000 OA
ATOM     23  H   UNL     1       2.814   1.657  21.444  0.00  0.00    +0.000 HD
ENDBRANCH  20  22
ENDBRANCH   7  17
TORSDOF 2
ENDMDL
MODEL 8
REMARK VINA RESULT:      -6.7      1.381      1.772
REMARK  Name = 
REMARK  2 active torsions:
REMARK  status: ('A' for Active; 'I' for Inactive)
REMARK    1  A    between atoms: N_7  and  C_8
REMARK    2  A    between atoms: C_11  and  O_12
REMARK                            x       y       z     vdW  Elec       q    Type
REMARK                         _______ _______ _______ _____ _____    ______ ____
ROOT
ATOM      1  O   UNL     1       4.944   5.140  19.973  0.00  0.00    +0.000 OA
ATOM      2  C   UNL     1       4.980   4.761  18.808  0.00  0.00    +0.000 A 
ATOM      3  N   UNL     1       5.919   5.280  17.942  0.00  0.00    +0.000 NA
ATOM      4  C   UNL     1       5.971   4.859  16.715  0.00  0.00    +0.000 A 
ATOM      5  C   UNL     1       5.101   3.773  16.188  0.00  0.00    +0.000 A 
ATOM      6  C   UNL     1       4.155   3.343  17.021  0.00  0.00    +0.000 A 
ATOM      7  N   UNL     1       4.032   3.855  18.298  0.00  0.00    +0.000 N 
ATOM      8  O   UNL     1       5.219   3.319  14.886  0.00  0.00    +0.000 OA
ATOM      9  C   UNL     1       6.122   3.965  14.065  0.00  0.00    +0.000 A 
ATOM     10  C   UNL     1       6.215   3.500  12.754  0.00  0.00    +0.000 A 
ATOM     11  C   UNL     1       7.105   4.105  11.869  0.00  0.00    +0.000 A 
ATOM     12  C   UNL     1       7.893   5.176  12.294  0.00  0.00    +0.000 A 
ATOM     13  C   UNL     1       7.796   5.644  13.610  0.00  0.00    +0.000 A 
ATOM     14  C   UNL     1       6.915   5.040  14.511  0.00  0.00    +0.000 A 
ATOM     15  N   UNL     1       6.848   5.450  15.844  0.00  0.00    +0.000 N 
ATOM     16  H   UNL     1       7.367   6.256  16.159  0.00  0.00    +0.000 HD
ENDROOT
BRANCH   7  17
ATOM     17  C   UNL     1       2.783   3.588  19.023  0.00  0.00    +0.000 C 
ATOM     18  C   UNL     1       2.969   3.229  20.460  0.00  0.00    +0.000 C 
ATOM     19  C   UNL     1       2.288   4.054  21.265  0.00  0.00    +0.000 C 
ATOM     20  C   UNL     1       1.624   5.156  20.514  0.00  0.00    +0.000 C 
ATOM     21  C   UNL     1       1.802   4.779  19.042  0.00  0.00    +0.000 C 
BRANCH  20  22
ATOM     22  O   UNL     1       2.277   6.372  20.825  0.00  0.00    +0.000 OA
ATOM     23  H   UNL     1       1.649   7.097  20.605  0.00  0.00    +0.000 HD
ENDBRANCH  20  22
ENDBRANCH   7  17
TORSDOF 2
ENDMDL
MODEL 9
REMARK VINA RESULT:      -6.7      4.184      7.834
REMARK  Name = 
REMARK  2 active torsions:
REMARK  status: ('A' for Active; 'I' for Inactive)
REMARK    1  A    between atoms: N_7  and  C_8
REMARK    2  A    between atoms: C_11  and  O_12
REMARK                            x       y       z     vdW  Elec       q    Type
REMARK                         _______ _______ _______ _____ _____    ______ ____
ROOT
ATOM      1  O   UNL     1       4.512   6.773  16.298  0.00  0.00    +0.000 OA
ATOM      2  C   UNL     1       3.874   6.901  17.337  0.00  0.00    +0.000 A 
ATOM      3  N   UNL     1       3.093   8.019  17.534  0.00  0.00    +0.000 NA
ATOM      4  C   UNL     1       2.399   8.141  18.624  0.00  0.00    +0.000 A 
ATOM      5  C   UNL     1       2.338   7.089  19.673  0.00  0.00    +0.000 A 
ATOM      6  C   UNL     1       3.157   6.054  19.494  0.00  0.00    +0.000 A 
ATOM      7  N   UNL     1       3.972   5.964  18.381  0.00  0.00    +0.000 N 
ATOM      8  O   UNL     1       1.548   7.235  20.800  0.00  0.00    +0.000 OA
ATOM      9  C   UNL     1       0.877   8.431  20.957  0.00  0.00    +0.000 A 
ATOM     10  C   UNL     1       0.098   8.561  22.106  0.00  0.00    +0.000 A 
ATOM     11  C   UNL     1      -0.607   9.743  22.330  0.00  0.00    +0.000 A 
ATOM     12  C   UNL     1      -0.526  10.790  21.411  0.00  0.00    +0.000 A 
ATOM     13  C   UNL     1       0.259  10.658  20.260  0.00  0.00    +0.000 A 
ATOM     14  C   UNL     1       0.963   9.476  20.016  0.00  0.00    +0.000 A 
ATOM     15  N   UNL     1       1.702   9.300  18.845  0.00  0.00    +0.000 N 
ATOM     16  H   UNL     1       1.819  10.062  18.194  0.00  0.00    +0.000 HD
ENDROOT
BRANCH   7  17
ATOM     17  C   UNL     1       5.073   4.992  18.418  0.00  0.00    +0.000 C 
ATOM     18  C   UNL     1       5.202   4.161  17.186  0.00  0.00    +0.000 C 
ATOM     19  C   UNL     1       6.421   4.273  16.643  0.00  0.00    +0.000 C 
ATOM     20  C   UNL     1       7.269   5.269  17.356  0.00  0.00    +0.000 C 
ATOM     21  C   UNL     1       6.465   5.630  18.607  0.00  0.00    +0.000 C 
BRANCH  20  22
ATOM     22  O   UNL     1       7.454   6.389  16.512  0.00  0.00    +0.000 OA
ATOM     23  H   UNL     1       8.365   6.723  16.679  0.00  0.00    +0.000 HD
ENDBRANCH  20  22
ENDBRANCH   7  17
TORSDOF 2
ENDMDL
