MODEL 1
REMARK VINA RESULT:      -7.5      0.000      0.000
REMARK  Name = 
REMARK  7 active torsions:
REMARK  status: ('A' for Active; 'I' for Inactive)
REMARK    1  A    between atoms: C_1  and  C_2
REMARK    2  A    between atoms: C_2  and  C_3
REMARK    3  A    between atoms: C_3  and  C_4
REMARK    4  A    between atoms: C_4  and  C_5
REMARK    5  A    between atoms: C_5  and  C_6
REMARK    6  A    between atoms: C_11  and  C_13
REMARK    7  A    between atoms: C_18  and  N_19
REMARK                            x       y       z     vdW  Elec       q    Type
REMARK                         _______ _______ _______ _____ _____    ______ ____
ROOT
ATOM      1  C   UNL     1       6.856   4.785  14.681  0.00  0.00    +0.000 A 
ATOM      2  N   UNL     1       7.793   4.660  15.599  0.00  0.00    +0.000 NA
ATOM      3  N   UNL     1       7.259   4.434  16.858  0.00  0.00    +0.000 NA
ATOM      4  C   UNL     1       5.945   4.350  16.836  0.00  0.00    +0.000 A 
ATOM      5  N   UNL     1       5.177   4.118  17.957  0.00  0.00    +0.000 N 
ATOM      6  C   UNL     1       3.860   3.681  17.935  0.00  0.00    +0.000 C 
ATOM      7  O   UNL     1       3.200   3.414  16.948  0.00  0.00    +0.000 OA
ATOM      8  S   UNL     1       5.259   4.652  15.303  0.00  0.00    +0.000 S 
ATOM      9  H   UNL     1       5.664   4.208  18.840  0.00  0.00    +0.000 HD
ENDROOT
BRANCH   6  10
ATOM     10  C   UNL     1       3.242   3.444  19.277  0.00  0.00    +0.000 A 
ATOM     11  N   UNL     1       2.138   4.200  19.564  0.00  0.00    +0.000 NA
ATOM     12  C   UNL     1       1.661   4.055  20.821  0.00  0.00    +0.000 A 
ATOM     13  C   UNL     1       2.236   3.194  21.740  0.00  0.00    +0.000 A 
ATOM     14  N   UNL     1       3.312   2.428  21.447  0.00  0.00    +0.000 NA
ATOM     15  C   UNL     1       3.833   2.561  20.202  0.00  0.00    +0.000 A 
BRANCH  15  16
ATOM     16  N   UNL     1       4.903   1.710  19.931  0.00  0.00    +0.000 N 
ATOM     17  H   UNL     1       4.761   1.321  19.005  0.00  0.00    +0.000 HD
ATOM     18  H   UNL     1       5.017   0.991  20.645  0.00  0.00    +0.000 HD
ENDBRANCH  15  16
ENDBRANCH   6  10
BRANCH   1  19
ATOM     19  C   UNL     1       7.087   5.013  13.221  0.00  0.00    +0.000 C 
BRANCH  19  20
ATOM     20  C   UNL     1       6.997   3.708  12.425  0.00  0.00    +0.000 C 
BRANCH  20  21
ATOM     21  C   UNL     1       5.545   3.270  12.219  0.00  0.00    +0.000 C 
BRANCH  21  23
ATOM     22  C   UNL     1       6.836   1.409  11.113  0.00  0.00    +0.000 C 
ATOM     23  C   UNL     1       5.465   2.030  11.327  0.00  0.00    +0.000 C 
ENDBRANCH  21  23
ENDBRANCH  20  21
ENDBRANCH  19  20
ENDBRANCH   1  19
TORSDOF 6
ENDMDL
MODEL 2
REMARK VINA RESULT:      -7.5      1.173      1.414
REMARK  Name = 
REMARK  7 active torsions:
REMARK  status: ('A' for Active; 'I' for Inactive)
REMARK    1  A    between atoms: C_1  and  C_2
REMARK    2  A    between atoms: C_2  and  C_3
REMARK    3  A    between atoms: C_3  and  C_4
REMARK    4  A    between atoms: C_4  and  C_5
REMARK    5  A    between atoms: C_5  and  C_6
REMARK    6  A    between atoms: C_11  and  C_13
REMARK    7  A    between atoms: C_18  and  N_19
REMARK                            x       y       z     vdW  Elec       q    Type
REMARK                         _______ _______ _______ _____ _____    ______ ____
ROOT
ATOM      1  C   UNL     1       6.977   4.644  15.216  0.00  0.00    +0.000 A 
ATOM      2  N   UNL     1       7.775   4.575  16.263  0.00  0.00    +0.000 NA
ATOM      3  N   UNL     1       7.066   4.432  17.445  0.00  0.00    +0.000 NA
ATOM      4  C   UNL     1       5.766   4.350  17.243  0.00  0.00    +0.000 A 
ATOM      5  N   UNL     1       4.846   4.193  18.256  0.00  0.00    +0.000 N 
ATOM      6  C   UNL     1       3.540   3.760  18.076  0.00  0.00    +0.000 C 
ATOM      7  O   UNL     1       3.022   3.433  17.023  0.00  0.00    +0.000 OA
ATOM      8  S   UNL     1       5.308   4.556  15.613  0.00  0.00    +0.000 S 
ATOM      9  H   UNL     1       5.205   4.337  19.192  0.00  0.00    +0.000 HD
ENDROOT
BRANCH   6  10
ATOM     10  C   UNL     1       2.736   3.611  19.328  0.00  0.00    +0.000 A 
ATOM     11  N   UNL     1       2.943   4.568  20.285  0.00  0.00    +0.000 NA
ATOM     12  C   UNL     1       2.295   4.355  21.453  0.00  0.00    +0.000 A 
ATOM     13  C   UNL     1       1.472   3.261  21.657  0.00  0.00    +0.000 A 
ATOM     14  N   UNL     1       1.247   2.329  20.701  0.00  0.00    +0.000 NA
ATOM     15  C   UNL     1       1.896   2.497  19.523  0.00  0.00    +0.000 A 
BRANCH  15  16
ATOM     16  N   UNL     1       1.587   1.544  18.554  0.00  0.00    +0.000 N 
ATOM     17  H   UNL     1       2.359   1.510  17.897  0.00  0.00    +0.000 HD
ATOM     18  H   UNL     1       0.693   1.730  18.099  0.00  0.00    +0.000 HD
ENDBRANCH  15  16
ENDBRANCH   6  10
BRANCH   1  19
ATOM     19  C   UNL     1       7.415   4.777  13.791  0.00  0.00    +0.000 C 
BRANCH  19  20
ATOM     20  C   UNL     1       6.267   4.492  12.819  0.00  0.00    +0.000 C 
BRANCH  20  21
ATOM     21  C   UNL     1       6.604   3.343  11.867  0.00  0.00    +0.000 C 
BRANCH  21  23
ATOM     22  C   UNL     1       4.191   3.080  11.189  0.00  0.00    +0.000 C 
ATOM     23  C   UNL     1       5.425   2.377  11.729  0.00  0.00    +0.000 C 
ENDBRANCH  21  23
ENDBRANCH  20  21
ENDBRANCH  19  20
ENDBRANCH   1  19
TORSDOF 6
ENDMDL
MODEL 3
REMARK VINA RESULT:      -7.1      0.946      1.688
REMARK  Name = 
REMARK  7 active torsions:
REMARK  status: ('A' for Active; 'I' for Inactive)
REMARK    1  A    between atoms: C_1  and  C_2
REMARK    2  A    between atoms: C_2  and  C_3
REMARK    3  A    between atoms: C_3  and  C_4
REMARK    4  A    between atoms: C_4  and  C_5
REMARK    5  A    between atoms: C_5  and  C_6
REMARK    6  A    between atoms: C_11  and  C_13
REMARK    7  A    between atoms: C_18  and  N_19
REMARK                            x       y       z     vdW  Elec       q    Type
REMARK                         _______ _______ _______ _____ _____    ______ ____
ROOT
ATOM      1  C   UNL     1       6.810   4.516  14.571  0.00  0.00    +0.000 A 
ATOM      2  N   UNL     1       7.755   4.668  15.477  0.00  0.00    +0.000 NA
ATOM      3  N   UNL     1       7.245   4.652  16.765  0.00  0.00    +0.000 NA
ATOM      4  C   UNL     1       5.945   4.442  16.786  0.00  0.00    +0.000 A 
ATOM      5  N   UNL     1       5.203   4.370  17.945  0.00  0.00    +0.000 N 
ATOM      6  C   UNL     1       3.934   3.817  18.038  0.00  0.00    +0.000 C 
ATOM      7  O   UNL     1       3.303   3.295  17.137  0.00  0.00    +0.000 OA
ATOM      8  S   UNL     1       5.233   4.362  15.238  0.00  0.00    +0.000 S 
ATOM      9  H   UNL     1       5.679   4.682  18.783  0.00  0.00    +0.000 HD
ENDROOT
BRANCH   6  10
ATOM     10  C   UNL     1       3.341   3.798  19.411  0.00  0.00    +0.000 A 
ATOM     11  N   UNL     1       3.495   2.630  20.108  0.00  0.00    +0.000 NA
ATOM     12  C   UNL     1       2.856   2.591  21.300  0.00  0.00    +0.000 A 
ATOM     13  C   UNL     1       2.119   3.658  21.783  0.00  0.00    +0.000 A 
ATOM     14  N   UNL     1       1.989   4.821  21.105  0.00  0.00    +0.000 NA
ATOM     15  C   UNL     1       2.598   4.892  19.896  0.00  0.00    +0.000 A 
BRANCH  15  16
ATOM     16  N   UNL     1       2.483   6.129  19.264  0.00  0.00    +0.000 N 
ATOM     17  H   UNL     1       2.882   6.829  19.880  0.00  0.00    +0.000 HD
ATOM     18  H   UNL     1       1.521   6.341  19.001  0.00  0.00    +0.000 HD
ENDBRANCH  15  16
ENDBRANCH   6  10
BRANCH   1  19
ATOM     19  C   UNL     1       7.018   4.465  13.090  0.00  0.00    +0.000 C 
BRANCH  19  20
ATOM     20  C   UNL     1       6.089   3.446  12.425  0.00  0.00    +0.000 C 
BRANCH  20  21
ATOM     21  C   UNL     1       6.872   2.413  11.612  0.00  0.00    +0.000 C 
BRANCH  21  23
ATOM     22  C   UNL     1       6.281  -0.028  11.391  0.00  0.00    +0.000 C 
ATOM     23  C   UNL     1       5.933   1.390  10.969  0.00  0.00    +0.000 C 
ENDBRANCH  21  23
ENDBRANCH  20  21
ENDBRANCH  19  20
ENDBRANCH   1  19
TORSDOF 6
ENDMDL
MODEL 4
REMARK VINA RESULT:      -7.1      1.278      1.997
REMARK  Name = 
REMARK  7 active torsions:
REMARK  status: ('A' for Active; 'I' for Inactive)
REMARK    1  A    between atoms: C_1  and  C_2
REMARK    2  A    between atoms: C_2  and  C_3
REMARK    3  A    between atoms: C_3  and  C_4
REMARK    4  A    between atoms: C_4  and  C_5
REMARK    5  A    between atoms: C_5  and  C_6
REMARK    6  A    between atoms: C_11  and  C_13
REMARK    7  A    between atoms: C_18  and  N_19
REMARK                            x       y       z     vdW  Elec       q    Type
REMARK                         _______ _______ _______ _____ _____    ______ ____
ROOT
ATOM      1  C   UNL     1       6.676   4.558  14.396  0.00  0.00    +0.000 A 
ATOM      2  N   UNL     1       7.445   5.251  15.211  0.00  0.00    +0.000 NA
ATOM      3  N   UNL     1       6.909   5.331  16.487  0.00  0.00    +0.000 NA
ATOM      4  C   UNL     1       5.782   4.657  16.599  0.00  0.00    +0.000 A 
ATOM      5  N   UNL     1       5.060   4.571  17.770  0.00  0.00    +0.000 N 
ATOM      6  C   UNL     1       4.087   3.615  18.028  0.00  0.00    +0.000 C 
ATOM      7  O   UNL     1       3.747   2.709  17.291  0.00  0.00    +0.000 OA
ATOM      8  S   UNL     1       5.238   3.974  15.134  0.00  0.00    +0.000 S 
ATOM      9  H   UNL     1       5.339   5.216  18.498  0.00  0.00    +0.000 HD
ENDROOT
BRANCH   6  10
ATOM     10  C   UNL     1       3.471   3.680  19.390  0.00  0.00    +0.000 A 
ATOM     11  N   UNL     1       3.575   2.543  20.143  0.00  0.00    +0.000 NA
ATOM     12  C   UNL     1       2.915   2.580  21.323  0.00  0.00    +0.000 A 
ATOM     13  C   UNL     1       2.205   3.691  21.743  0.00  0.00    +0.000 A 
ATOM     14  N   UNL     1       2.125   4.825  21.009  0.00  0.00    +0.000 NA
ATOM     15  C   UNL     1       2.756   4.819  19.809  0.00  0.00    +0.000 A 
BRANCH  15  16
ATOM     16  N   UNL     1       2.691   6.027  19.118  0.00  0.00    +0.000 N 
ATOM     17  H   UNL     1       3.633   6.265  18.822  0.00  0.00    +0.000 HD
ATOM     18  H   UNL     1       2.256   6.767  19.670  0.00  0.00    +0.000 HD
ENDBRANCH  15  16
ENDBRANCH   6  10
BRANCH   1  19
ATOM     19  C   UNL     1       6.967   4.262  12.959  0.00  0.00    +0.000 C 
BRANCH  19  20
ATOM     20  C   UNL     1       5.946   3.288  12.365  0.00  0.00    +0.000 C 
BRANCH  20  21
ATOM     21  C   UNL     1       4.698   4.016  11.861  0.00  0.00    +0.000 C 
BRANCH  21  23
ATOM     22  C   UNL     1       3.152   3.905   9.873  0.00  0.00    +0.000 C 
ATOM     23  C   UNL     1       3.858   3.109  10.960  0.00  0.00    +0.000 C 
ENDBRANCH  21  23
ENDBRANCH  20  21
ENDBRANCH  19  20
ENDBRANCH   1  19
TORSDOF 6
ENDMDL
MODEL 5
REMARK VINA RESULT:      -7.1      2.983      3.571
REMARK  Name = 
REMARK  7 active torsions:
REMARK  status: ('A' for Active; 'I' for Inactive)
REMARK    1  A    between atoms: C_1  and  C_2
REMARK    2  A    between atoms: C_2  and  C_3
REMARK    3  A    between atoms: C_3  and  C_4
REMARK    4  A    between atoms: C_4  and  C_5
REMARK    5  A    between atoms: C_5  and  C_6
REMARK    6  A    between atoms: C_11  and  C_13
REMARK    7  A    between atoms: C_18  and  N_19
REMARK                            x       y       z     vdW  Elec       q    Type
REMARK                         _______ _______ _______ _____ _____    ______ ____
ROOT
ATOM      1  C   UNL     1       6.484   5.236  15.391  0.00  0.00    +0.000 A 
ATOM      2  N   UNL     1       7.232   6.162  15.956  0.00  0.00    +0.000 NA
ATOM      3  N   UNL     1       6.498   6.973  16.807  0.00  0.00    +0.000 NA
ATOM      4  C   UNL     1       5.236   6.600  16.889  0.00  0.00    +0.000 A 
ATOM      5  N   UNL     1       4.303   7.237  17.677  0.00  0.00    +0.000 N 
ATOM      6  C   UNL     1       3.087   6.689  18.061  0.00  0.00    +0.000 C 
ATOM      7  O   UNL     1       2.676   5.576  17.790  0.00  0.00    +0.000 OA
ATOM      8  S   UNL     1       4.830   5.310  15.850  0.00  0.00    +0.000 S 
ATOM      9  H   UNL     1       4.591   8.134  18.049  0.00  0.00    +0.000 HD
ENDROOT
BRANCH   6  10
ATOM     10  C   UNL     1       2.257   7.542  18.966  0.00  0.00    +0.000 A 
ATOM     11  N   UNL     1       1.878   8.755  18.456  0.00  0.00    +0.000 NA
ATOM     12  C   UNL     1       1.226   9.559  19.326  0.00  0.00    +0.000 A 
ATOM     13  C   UNL     1       0.949   9.176  20.627  0.00  0.00    +0.000 A 
ATOM     14  N   UNL     1       1.301   7.967  21.122  0.00  0.00    +0.000 NA
ATOM     15  C   UNL     1       1.975   7.140  20.286  0.00  0.00    +0.000 A 
BRANCH  15  16
ATOM     16  N   UNL     1       2.264   5.887  20.823  0.00  0.00    +0.000 N 
ATOM     17  H   UNL     1       3.019   6.005  21.491  0.00  0.00    +0.000 HD
ATOM     18  H   UNL     1       2.480   5.197  20.105  0.00  0.00    +0.000 HD
ENDBRANCH  15  16
ENDBRANCH   6  10
BRANCH   1  19
ATOM     19  C   UNL     1       6.964   4.187  14.438  0.00  0.00    +0.000 C 
BRANCH  19  20
ATOM     20  C   UNL     1       5.918   3.881  13.362  0.00  0.00    +0.000 C 
BRANCH  20  21
ATOM     21  C   UNL     1       6.480   2.968  12.271  0.00  0.00    +0.000 C 
BRANCH  21  23
ATOM     22  C   UNL     1       4.129   3.277  11.414  0.00  0.00    +0.000 C 
ATOM     23  C   UNL     1       5.358   2.382  11.411  0.00  0.00    +0.000 C 
ENDBRANCH  21  23
ENDBRANCH  20  21
ENDBRANCH  19  20
ENDBRANCH   1  19
TORSDOF 6
ENDMDL
MODEL 6
REMARK VINA RESULT:      -6.9      1.041      1.689
REMARK  Name = 
REMARK  7 active torsions:
REMARK  status: ('A' for Active; 'I' for Inactive)
REMARK    1  A    between atoms: C_1  and  C_2
REMARK    2  A    between atoms: C_2  and  C_3
REMARK    3  A    between atoms: C_3  and  C_4
REMARK    4  A    between atoms: C_4  and  C_5
REMARK    5  A    between atoms: C_5  and  C_6
REMARK    6  A    between atoms: C_11  and  C_13
REMARK    7  A    between atoms: C_18  and  N_19
REMARK                            x       y       z     vdW  Elec       q    Type
REMARK                         _______ _______ _______ _____ _____    ______ ____
ROOT
ATOM      1  C   UNL     1       6.864   4.927  15.087  0.00  0.00    +0.000 A 
ATOM      2  N   UNL     1       7.404   5.599  16.085  0.00  0.00    +0.000 NA
ATOM      3  N   UNL     1       6.662   5.481  17.249  0.00  0.00    +0.000 NA
ATOM      4  C   UNL     1       5.619   4.689  17.100  0.00  0.00    +0.000 A 
ATOM      5  N   UNL     1       4.730   4.401  18.113  0.00  0.00    +0.000 N 
ATOM      6  C   UNL     1       3.848   3.331  18.108  0.00  0.00    +0.000 C 
ATOM      7  O   UNL     1       3.741   2.483  17.241  0.00  0.00    +0.000 OA
ATOM      8  S   UNL     1       5.404   4.124  15.505  0.00  0.00    +0.000 S 
ATOM      9  H   UNL     1       4.809   4.986  18.936  0.00  0.00    +0.000 HD
ENDROOT
BRANCH   6  10
ATOM     10  C   UNL     1       3.015   3.181  19.342  0.00  0.00    +0.000 A 
ATOM     11  N   UNL     1       3.688   2.800  20.470  0.00  0.00    +0.000 NA
ATOM     12  C   UNL     1       2.905   2.559  21.546  0.00  0.00    +0.000 A 
ATOM     13  C   UNL     1       1.529   2.704  21.511  0.00  0.00    +0.000 A 
ATOM     14  N   UNL     1       0.866   3.106  20.402  0.00  0.00    +0.000 NA
ATOM     15  C   UNL     1       1.616   3.337  19.296  0.00  0.00    +0.000 A 
BRANCH  15  16
ATOM     16  N   UNL     1       0.894   3.803  18.199  0.00  0.00    +0.000 N 
ATOM     17  H   UNL     1       1.538   3.891  17.420  0.00  0.00    +0.000 HD
ATOM     18  H   UNL     1       0.402   4.673  18.399  0.00  0.00    +0.000 HD
ENDBRANCH  15  16
ENDBRANCH   6  10
BRANCH   1  19
ATOM     19  C   UNL     1       7.419   4.824  13.701  0.00  0.00    +0.000 C 
BRANCH  19  20
ATOM     20  C   UNL     1       6.372   4.307  12.711  0.00  0.00    +0.000 C 
BRANCH  20  21
ATOM     21  C   UNL     1       6.887   3.102  11.922  0.00  0.00    +0.000 C 
BRANCH  21  23
ATOM     22  C   UNL     1       6.262   0.822  11.048  0.00  0.00    +0.000 C 
ATOM     23  C   UNL     1       5.741   2.160  11.545  0.00  0.00    +0.000 C 
ENDBRANCH  21  23
ENDBRANCH  20  21
ENDBRANCH  19  20
ENDBRANCH   1  19
TORSDOF 6
ENDMDL
MODEL 7
REMARK VINA RESULT:      -6.8      3.828      4.880
REMARK  Name = 
REMARK  7 active torsions:
REMARK  status: ('A' for Active; 'I' for Inactive)
REMARK    1  A    between atoms: C_1  and  C_2
REMARK    2  A    between atoms: C_2  and  C_3
REMARK    3  A    between atoms: C_3  and  C_4
REMARK    4  A    between atoms: C_4  and  C_5
REMARK    5  A    between atoms: C_5  and  C_6
REMARK    6  A    between atoms: C_11  and  C_13
REMARK    7  A    between atoms: C_18  and  N_19
REMARK                            x       y       z     vdW  Elec       q    Type
REMARK                         _______ _______ _______ _____ _____    ______ ____
ROOT
ATOM      1  C   UNL     1       5.277   5.077  16.319  0.00  0.00    +0.000 A 
ATOM      2  N   UNL     1       4.615   4.124  16.944  0.00  0.00    +0.000 NA
ATOM      3  N   UNL     1       3.703   4.637  17.852  0.00  0.00    +0.000 NA
ATOM      4  C   UNL     1       3.677   5.954  17.845  0.00  0.00    +0.000 A 
ATOM      5  N   UNL     1       2.846   6.704  18.650  0.00  0.00    +0.000 N 
ATOM      6  C   UNL     1       2.535   8.039  18.437  0.00  0.00    +0.000 C 
ATOM      7  O   UNL     1       2.916   8.734  17.513  0.00  0.00    +0.000 OA
ATOM      8  S   UNL     1       4.839   6.662  16.817  0.00  0.00    +0.000 S 
ATOM      9  H   UNL     1       2.388   6.191  19.393  0.00  0.00    +0.000 HD
ENDROOT
BRANCH   6  10
ATOM     10  C   UNL     1       1.566   8.634  19.409  0.00  0.00    +0.000 A 
ATOM     11  N   UNL     1       1.609   8.123  20.678  0.00  0.00    +0.000 NA
ATOM     12  C   UNL     1       0.652   8.591  21.512  0.00  0.00    +0.000 A 
ATOM     13  C   UNL     1      -0.286   9.527  21.115  0.00  0.00    +0.000 A 
ATOM     14  N   UNL     1      -0.312  10.051  19.867  0.00  0.00    +0.000 NA
ATOM     15  C   UNL     1       0.619   9.591  18.995  0.00  0.00    +0.000 A 
BRANCH  15  16
ATOM     16  N   UNL     1       0.588  10.202  17.744  0.00  0.00    +0.000 N 
ATOM     17  H   UNL     1       1.171   9.656  17.118  0.00  0.00    +0.000 HD
ATOM     18  H   UNL     1       0.866  11.183  17.783  0.00  0.00    +0.000 HD
ENDBRANCH  15  16
ENDBRANCH   6  10
BRANCH   1  19
ATOM     19  C   UNL     1       6.317   4.872  15.263  0.00  0.00    +0.000 C 
BRANCH  19  20
ATOM     20  C   UNL     1       5.970   3.692  14.351  0.00  0.00    +0.000 C 
BRANCH  20  21
ATOM     21  C   UNL     1       6.189   4.035  12.876  0.00  0.00    +0.000 C 
BRANCH  21  23
ATOM     22  C   UNL     1       4.380   3.189  11.338  0.00  0.00    +0.000 C 
ATOM     23  C   UNL     1       5.729   2.891  11.970  0.00  0.00    +0.000 C 
ENDBRANCH  21  23
ENDBRANCH  20  21
ENDBRANCH  19  20
ENDBRANCH   1  19
TORSDOF 6
ENDMDL
MODEL 8
REMARK VINA RESULT:      -6.7      3.709      4.943
REMARK  Name = 
REMARK  7 active torsions:
REMARK  status: ('A' for Active; 'I' for Inactive)
REMARK    1  A    between atoms: C_1  and  C_2
REMARK    2  A    between atoms: C_2  and  C_3
REMARK    3  A    between atoms: C_3  and  C_4
REMARK    4  A    between atoms: C_4  and  C_5
REMARK    5  A    between atoms: C_5  and  C_6
REMARK    6  A    between atoms: C_11  and  C_13
REMARK    7  A    between atoms: C_18  and  N_19
REMARK                            x       y       z     vdW  Elec       q    Type
REMARK                         _______ _______ _______ _____ _____    ______ ____
ROOT
ATOM      1  C   UNL     1       4.850   4.204  16.612  0.00  0.00    +0.000 A 
ATOM      2  N   UNL     1       3.940   3.407  17.136  0.00  0.00    +0.000 NA
ATOM      3  N   UNL     1       3.069   4.091  17.968  0.00  0.00    +0.000 NA
ATOM      4  C   UNL     1       3.324   5.384  18.005  0.00  0.00    +0.000 A 
ATOM      5  N   UNL     1       2.593   6.284  18.750  0.00  0.00    +0.000 N 
ATOM      6  C   UNL     1       2.595   7.657  18.554  0.00  0.00    +0.000 C 
ATOM      7  O   UNL     1       3.207   8.267  17.696  0.00  0.00    +0.000 OA
ATOM      8  S   UNL     1       4.709   5.840  17.119  0.00  0.00    +0.000 S 
ATOM      9  H   UNL     1       1.962   5.872  19.427  0.00  0.00    +0.000 HD
ENDROOT
BRANCH   6  10
ATOM     10  C   UNL     1       1.680   8.434  19.447  0.00  0.00    +0.000 A 
ATOM     11  N   UNL     1       1.518   7.933  20.710  0.00  0.00    +0.000 NA
ATOM     12  C   UNL     1       0.602   8.581  21.466  0.00  0.00    +0.000 A 
ATOM     13  C   UNL     1      -0.104   9.677  21.000  0.00  0.00    +0.000 A 
ATOM     14  N   UNL     1       0.076  10.187  19.759  0.00  0.00    +0.000 NA
ATOM     15  C   UNL     1       0.972   9.551  18.964  0.00  0.00    +0.000 A 
BRANCH  15  16
ATOM     16  N   UNL     1       1.162  10.148  17.720  0.00  0.00    +0.000 N 
ATOM     17  H   UNL     1       0.258  10.469  17.390  0.00  0.00    +0.000 HD
ATOM     18  H   UNL     1       1.622   9.524  17.057  0.00  0.00    +0.000 HD
ENDBRANCH  15  16
ENDBRANCH   6  10
BRANCH   1  19
ATOM     19  C   UNL     1       5.925   3.794  15.656  0.00  0.00    +0.000 C 
BRANCH  19  20
ATOM     20  C   UNL     1       5.830   4.564  14.336  0.00  0.00    +0.000 C 
BRANCH  20  21
ATOM     21  C   UNL     1       5.827   3.621  13.131  0.00  0.00    +0.000 C 
BRANCH  21  23
ATOM     22  C   UNL     1       7.761   5.162  12.642  0.00  0.00    +0.000 C 
ATOM     23  C   UNL     1       6.940   3.983  12.146  0.00  0.00    +0.000 C 
ENDBRANCH  21  23
ENDBRANCH  20  21
ENDBRANCH  19  20
ENDBRANCH   1  19
TORSDOF 6
ENDMDL
MODEL 9
REMARK VINA RESULT:      -6.7      4.946      6.373
REMARK  Name = 
REMARK  7 active torsions:
REMARK  status: ('A' for Active; 'I' for Inactive)
REMARK    1  A    between atoms: C_1  and  C_2
REMARK    2  A    between atoms: C_2  and  C_3
REMARK    3  A    between atoms: C_3  and  C_4
REMARK    4  A    between atoms: C_4  and  C_5
REMARK    5  A    between atoms: C_5  and  C_6
REMARK    6  A    between atoms: C_11  and  C_13
REMARK    7  A    between atoms: C_18  and  N_19
REMARK                            x       y       z     vdW  Elec       q    Type
REMARK                         _______ _______ _______ _____ _____    ______ ____
ROOT
ATOM      1  C   UNL     1       4.042   4.895  17.912  0.00  0.00    +0.000 A 
ATOM      2  N   UNL     1       3.369   4.494  18.971  0.00  0.00    +0.000 NA
ATOM      3  N   UNL     1       2.652   5.528  19.552  0.00  0.00    +0.000 NA
ATOM      4  C   UNL     1       2.772   6.657  18.884  0.00  0.00    +0.000 A 
ATOM      5  N   UNL     1       2.148   7.830  19.250  0.00  0.00    +0.000 N 
ATOM      6  C   UNL     1       1.962   8.920  18.413  0.00  0.00    +0.000 C 
ATOM      7  O   UNL     1       2.289   9.001  17.243  0.00  0.00    +0.000 OA
ATOM      8  S   UNL     1       3.855   6.569  17.569  0.00  0.00    +0.000 S 
ATOM      9  H   UNL     1       1.740   7.830  20.177  0.00  0.00    +0.000 HD
ENDROOT
BRANCH   6  10
ATOM     10  C   UNL     1       1.207  10.065  19.010  0.00  0.00    +0.000 A 
ATOM     11  N   UNL     1       0.275   9.733  19.955  0.00  0.00    +0.000 NA
ATOM     12  C   UNL     1      -0.476  10.767  20.400  0.00  0.00    +0.000 A 
ATOM     13  C   UNL     1      -0.301  12.062  19.947  0.00  0.00    +0.000 A 
ATOM     14  N   UNL     1       0.638  12.394  19.031  0.00  0.00    +0.000 NA
ATOM     15  C   UNL     1       1.398  11.381  18.545  0.00  0.00    +0.000 A 
BRANCH  15  16
ATOM     16  N   UNL     1       2.387  11.782  17.649  0.00  0.00    +0.000 N 
ATOM     17  H   UNL     1       1.959  11.868  16.733  0.00  0.00    +0.000 HD
ATOM     18  H   UNL     1       3.189  11.152  17.649  0.00  0.00    +0.000 HD
ENDBRANCH  15  16
ENDBRANCH   6  10
BRANCH   1  19
ATOM     19  C   UNL     1       4.899   4.031  17.042  0.00  0.00    +0.000 C 
BRANCH  19  20
ATOM     20  C   UNL     1       6.327   4.574  16.939  0.00  0.00    +0.000 C 
BRANCH  20  21
ATOM     21  C   UNL     1       6.839   4.549  15.497  0.00  0.00    +0.000 C 
BRANCH  21  23
ATOM     22  C   UNL     1       6.058   3.717  13.250  0.00  0.00    +0.000 C 
ATOM     23  C   UNL     1       5.679   4.492  14.502  0.00  0.00    +0.000 C 
ENDBRANCH  21  23
ENDBRANCH  20  21
ENDBRANCH  19  20
ENDBRANCH   1  19
TORSDOF 6
ENDMDL
