MODEL 1
REMARK VINA RESULT:      -7.6      0.000      0.000
REMARK  Name = 
REMARK  7 active torsions:
REMARK  status: ('A' for Active; 'I' for Inactive)
REMARK    1  A    between atoms: C_1  and  O_2
REMARK    2  A    between atoms: O_2  and  C_3
REMARK    3  A    between atoms: C_6  and  C_7
REMARK    4  A    between atoms: N_11  and  C_12
REMARK    5  A    between atoms: C_16  and  C_17
REMARK    6  A    between atoms: C_17  and  O_19
REMARK    7  A    between atoms: N_21  and  C_22
REMARK                            x       y       z     vdW  Elec       q    Type
REMARK                         _______ _______ _______ _____ _____    ______ ____
ROOT
ATOM      1  C   UNL     1       1.290   6.477  20.925  0.00  0.00    +0.000 C 
ATOM      2  C   UNL     1       2.112   5.581  20.349  0.00  0.00    +0.000 C 
ATOM      3  S   UNL     1       3.235   5.894  19.130  0.00  0.00    +0.000 S 
ATOM      4  C   UNL     1       3.844   4.243  19.113  0.00  0.00    +0.000 C 
ATOM      5  N   UNL     1       4.846   3.767  18.447  0.00  0.00    +0.000 NA
ATOM      6  N   UNL     1       3.077   3.477  19.938  0.00  0.00    +0.000 N 
ATOM      7  C   UNL     1       3.235   2.044  20.074  0.00  0.00    +0.000 C 
ATOM      8  C   UNL     1       2.103   4.126  20.673  0.00  0.00    +0.000 C 
ATOM      9  O   UNL     1       1.335   3.621  21.474  0.00  0.00    +0.000 OA
ENDROOT
BRANCH   1  13
ATOM     10  C   UNL     1       1.116  10.647  19.968  0.00  0.00    +0.000 A 
ATOM     11  C   UNL     1       1.362   9.698  18.971  0.00  0.00    +0.000 A 
ATOM     12  C   UNL     1       1.412   8.338  19.281  0.00  0.00    +0.000 A 
ATOM     13  C   UNL     1       1.250   7.910  20.602  0.00  0.00    +0.000 A 
ATOM     14  C   UNL     1       1.042   8.862  21.604  0.00  0.00    +0.000 A 
ATOM     15  C   UNL     1       0.969  10.223  21.288  0.00  0.00    +0.000 A 
BRANCH  10  17
ATOM     16  C   UNL     1       2.002  12.308  18.541  0.00  0.00    +0.000 C 
ATOM     17  O   UNL     1       1.053  11.945  19.540  0.00  0.00    +0.000 OA
ENDBRANCH  10  17
ENDBRANCH   1  13
BRANCH   5  18
ATOM     18  C   UNL     1       5.677   4.564  17.641  0.00  0.00    +0.000 A 
ATOM     19  C   UNL     1       5.867   4.211  16.302  0.00  0.00    +0.000 A 
ATOM     20  C   UNL     1       6.710   4.972  15.490  0.00  0.00    +0.000 A 
ATOM     21  C   UNL     1       7.350   6.101  16.007  0.00  0.00    +0.000 A 
ATOM     22  C   UNL     1       7.174   6.461  17.337  0.00  0.00    +0.000 A 
ATOM     23  C   UNL     1       6.391   5.662  18.147  0.00  0.00    +0.000 A 
BRANCH  22  24
ATOM     24  C   UNL     1       7.899   7.666  17.856  0.00  0.00    +0.000 C 
ATOM     25  O   UNL     1       7.799   8.730  17.302  0.00  0.00    +0.000 OA
BRANCH  24  26
ATOM     26  O   UNL     1       8.592   7.487  18.993  0.00  0.00    +0.000 OA
ATOM     27  H   UNL     1       8.989   6.623  19.174  0.00  0.00    +0.000 HD
ENDBRANCH  24  26
ENDBRANCH  22  24
ENDBRANCH   5  18
TORSDOF 5
ENDMDL
MODEL 2
REMARK VINA RESULT:      -7.5      1.567      2.086
REMARK  Name = 
REMARK  7 active torsions:
REMARK  status: ('A' for Active; 'I' for Inactive)
REMARK    1  A    between atoms: C_1  and  O_2
REMARK    2  A    between atoms: O_2  and  C_3
REMARK    3  A    between atoms: C_6  and  C_7
REMARK    4  A    between atoms: N_11  and  C_12
REMARK    5  A    between atoms: C_16  and  C_17
REMARK    6  A    between atoms: C_17  and  O_19
REMARK    7  A    between atoms: N_21  and  C_22
REMARK                            x       y       z     vdW  Elec       q    Type
REMARK                         _______ _______ _______ _____ _____    ______ ____
ROOT
ATOM      1  C   UNL     1       1.303   6.559  20.923  0.00  0.00    +0.000 C 
ATOM      2  C   UNL     1       2.184   5.662  20.444  0.00  0.00    +0.000 C 
ATOM      3  S   UNL     1       3.361   5.947  19.269  0.00  0.00    +0.000 S 
ATOM      4  C   UNL     1       4.023   4.321  19.378  0.00  0.00    +0.000 C 
ATOM      5  N   UNL     1       5.075   3.844  18.794  0.00  0.00    +0.000 NA
ATOM      6  N   UNL     1       3.238   3.574  20.205  0.00  0.00    +0.000 N 
ATOM      7  C   UNL     1       3.435   2.158  20.432  0.00  0.00    +0.000 C 
ATOM      8  C   UNL     1       2.205   4.228  20.850  0.00  0.00    +0.000 C 
ATOM      9  O   UNL     1       1.412   3.741  21.637  0.00  0.00    +0.000 OA
ENDROOT
BRANCH   1  13
ATOM     10  C   UNL     1       1.045  10.659  19.718  0.00  0.00    +0.000 A 
ATOM     11  C   UNL     1       1.421   9.672  18.803  0.00  0.00    +0.000 A 
ATOM     12  C   UNL     1       1.498   8.333  19.194  0.00  0.00    +0.000 A 
ATOM     13  C   UNL     1       1.234   7.969  20.517  0.00  0.00    +0.000 A 
ATOM     14  C   UNL     1       0.896   8.963  21.440  0.00  0.00    +0.000 A 
ATOM     15  C   UNL     1       0.796  10.300  21.042  0.00  0.00    +0.000 A 
BRANCH  10  17
ATOM     16  C   UNL     1       2.093  12.354  18.448  0.00  0.00    +0.000 C 
ATOM     17  O   UNL     1       0.969  11.929  19.213  0.00  0.00    +0.000 OA
ENDBRANCH  10  17
ENDBRANCH   1  13
BRANCH   5  18
ATOM     18  C   UNL     1       5.922   4.624  17.988  0.00  0.00    +0.000 A 
ATOM     19  C   UNL     1       6.614   5.693  18.564  0.00  0.00    +0.000 A 
ATOM     20  C   UNL     1       7.438   6.499  17.776  0.00  0.00    +0.000 A 
ATOM     21  C   UNL     1       7.590   6.227  16.414  0.00  0.00    +0.000 A 
ATOM     22  C   UNL     1       6.905   5.171  15.828  0.00  0.00    +0.000 A 
ATOM     23  C   UNL     1       6.041   4.423  16.604  0.00  0.00    +0.000 A 
BRANCH  22  24
ATOM     24  C   UNL     1       7.079   4.930  14.359  0.00  0.00    +0.000 C 
ATOM     25  O   UNL     1       7.890   5.553  13.725  0.00  0.00    +0.000 OA
BRANCH  24  26
ATOM     26  O   UNL     1       6.329   3.945  13.835  0.00  0.00    +0.000 OA
ATOM     27  H   UNL     1       5.510   3.686  14.280  0.00  0.00    +0.000 HD
ENDBRANCH  24  26
ENDBRANCH  22  24
ENDBRANCH   5  18
TORSDOF 5
ENDMDL
MODEL 3
REMARK VINA RESULT:      -7.4      2.192      7.093
REMARK  Name = 
REMARK  7 active torsions:
REMARK  status: ('A' for Active; 'I' for Inactive)
REMARK    1  A    between atoms: C_1  and  O_2
REMARK    2  A    between atoms: O_2  and  C_3
REMARK    3  A    between atoms: C_6  and  C_7
REMARK    4  A    between atoms: N_11  and  C_12
REMARK    5  A    between atoms: C_16  and  C_17
REMARK    6  A    between atoms: C_17  and  O_19
REMARK    7  A    between atoms: N_21  and  C_22
REMARK                            x       y       z     vdW  Elec       q    Type
REMARK                         _______ _______ _______ _____ _____    ______ ____
ROOT
ATOM      1  C   UNL     1       5.037   3.316  17.770  0.00  0.00    +0.000 C 
ATOM      2  C   UNL     1       4.214   3.975  18.605  0.00  0.00    +0.000 C 
ATOM      3  S   UNL     1       3.791   5.606  18.511  0.00  0.00    +0.000 S 
ATOM      4  C   UNL     1       2.684   5.513  19.875  0.00  0.00    +0.000 C 
ATOM      5  N   UNL     1       1.887   6.430  20.322  0.00  0.00    +0.000 NA
ATOM      6  N   UNL     1       2.778   4.278  20.442  0.00  0.00    +0.000 N 
ATOM      7  C   UNL     1       2.082   3.899  21.654  0.00  0.00    +0.000 C 
ATOM      8  C   UNL     1       3.587   3.355  19.807  0.00  0.00    +0.000 C 
ATOM      9  O   UNL     1       3.784   2.201  20.146  0.00  0.00    +0.000 OA
ENDROOT
BRANCH   1  13
ATOM     10  C   UNL     1       6.997   4.993  14.353  0.00  0.00    +0.000 A 
ATOM     11  C   UNL     1       7.562   5.111  15.626  0.00  0.00    +0.000 A 
ATOM     12  C   UNL     1       6.927   4.559  16.739  0.00  0.00    +0.000 A 
ATOM     13  C   UNL     1       5.698   3.908  16.599  0.00  0.00    +0.000 A 
ATOM     14  C   UNL     1       5.115   3.824  15.331  0.00  0.00    +0.000 A 
ATOM     15  C   UNL     1       5.764   4.358  14.212  0.00  0.00    +0.000 A 
BRANCH  10  17
ATOM     16  C   UNL     1       7.514   4.964  12.048  0.00  0.00    +0.000 C 
ATOM     17  O   UNL     1       7.726   5.542  13.333  0.00  0.00    +0.000 OA
ENDBRANCH  10  17
ENDBRANCH   1  13
BRANCH   5  18
ATOM     18  C   UNL     1       1.742   7.684  19.706  0.00  0.00    +0.000 A 
ATOM     19  C   UNL     1       2.182   7.850  18.390  0.00  0.00    +0.000 A 
ATOM     20  C   UNL     1       2.075   9.096  17.769  0.00  0.00    +0.000 A 
ATOM     21  C   UNL     1       1.508  10.175  18.451  0.00  0.00    +0.000 A 
ATOM     22  C   UNL     1       1.071  10.025  19.761  0.00  0.00    +0.000 A 
ATOM     23  C   UNL     1       1.245   8.807  20.388  0.00  0.00    +0.000 A 
BRANCH  22  24
ATOM     24  C   UNL     1       0.491  11.215  20.465  0.00  0.00    +0.000 C 
ATOM     25  O   UNL     1       0.765  11.444  21.614  0.00  0.00    +0.000 OA
BRANCH  24  26
ATOM     26  O   UNL     1      -0.280  12.020  19.714  0.00  0.00    +0.000 OA
ATOM     27  H   UNL     1      -0.450  11.786  18.791  0.00  0.00    +0.000 HD
ENDBRANCH  24  26
ENDBRANCH  22  24
ENDBRANCH   5  18
TORSDOF 5
ENDMDL
MODEL 4
REMARK VINA RESULT:      -7.2      2.199      7.016
REMARK  Name = 
REMARK  7 active torsions:
REMARK  status: ('A' for Active; 'I' for Inactive)
REMARK    1  A    between atoms: C_1  and  O_2
REMARK    2  A    between atoms: O_2  and  C_3
REMARK    3  A    between atoms: C_6  and  C_7
REMARK    4  A    between atoms: N_11  and  C_12
REMARK    5  A    between atoms: C_16  and  C_17
REMARK    6  A    between atoms: C_17  and  O_19
REMARK    7  A    between atoms: N_21  and  C_22
REMARK                            x       y       z     vdW  Elec       q    Type
REMARK                         _______ _______ _______ _____ _____    ______ ____
ROOT
ATOM      1  C   UNL     1       5.053   3.300  17.788  0.00  0.00    +0.000 C 
ATOM      2  C   UNL     1       4.217   3.967  18.604  0.00  0.00    +0.000 C 
ATOM      3  S   UNL     1       3.811   5.601  18.498  0.00  0.00    +0.000 S 
ATOM      4  C   UNL     1       2.673   5.520  19.837  0.00  0.00    +0.000 C 
ATOM      5  N   UNL     1       1.873   6.443  20.266  0.00  0.00    +0.000 NA
ATOM      6  N   UNL     1       2.744   4.284  20.407  0.00  0.00    +0.000 N 
ATOM      7  C   UNL     1       2.017   3.913  21.604  0.00  0.00    +0.000 C 
ATOM      8  C   UNL     1       3.558   3.354  19.791  0.00  0.00    +0.000 C 
ATOM      9  O   UNL     1       3.738   2.198  20.136  0.00  0.00    +0.000 OA
ENDROOT
BRANCH   1  13
ATOM     10  C   UNL     1       7.031   5.051  14.417  0.00  0.00    +0.000 A 
ATOM     11  C   UNL     1       5.906   4.240  14.240  0.00  0.00    +0.000 A 
ATOM     12  C   UNL     1       5.257   3.674  15.339  0.00  0.00    +0.000 A 
ATOM     13  C   UNL     1       5.745   3.885  16.631  0.00  0.00    +0.000 A 
ATOM     14  C   UNL     1       6.893   4.665  16.805  0.00  0.00    +0.000 A 
ATOM     15  C   UNL     1       7.529   5.250  15.704  0.00  0.00    +0.000 A 
BRANCH  10  17
ATOM     16  C   UNL     1       7.359   4.808  12.091  0.00  0.00    +0.000 C 
ATOM     17  O   UNL     1       7.561   5.579  13.272  0.00  0.00    +0.000 OA
ENDBRANCH  10  17
ENDBRANCH   1  13
BRANCH   5  18
ATOM     18  C   UNL     1       1.754   7.698  19.646  0.00  0.00    +0.000 A 
ATOM     19  C   UNL     1       2.235   7.863  18.345  0.00  0.00    +0.000 A 
ATOM     20  C   UNL     1       2.152   9.109  17.720  0.00  0.00    +0.000 A 
ATOM     21  C   UNL     1       1.569  10.190  18.384  0.00  0.00    +0.000 A 
ATOM     22  C   UNL     1       1.090  10.042  19.680  0.00  0.00    +0.000 A 
ATOM     23  C   UNL     1       1.239   8.823  20.311  0.00  0.00    +0.000 A 
BRANCH  22  24
ATOM     24  C   UNL     1       0.494  11.234  20.365  0.00  0.00    +0.000 C 
ATOM     25  O   UNL     1      -0.607  11.624  20.074  0.00  0.00    +0.000 OA
BRANCH  24  26
ATOM     26  O   UNL     1       1.234  11.775  21.348  0.00  0.00    +0.000 OA
ATOM     27  H   UNL     1       1.193  12.730  21.500  0.00  0.00    +0.000 HD
ENDBRANCH  24  26
ENDBRANCH  22  24
ENDBRANCH   5  18
TORSDOF 5
ENDMDL
MODEL 5
REMARK VINA RESULT:      -7.1      2.352      3.062
REMARK  Name = 
REMARK  7 active torsions:
REMARK  status: ('A' for Active; 'I' for Inactive)
REMARK    1  A    between atoms: C_1  and  O_2
REMARK    2  A    between atoms: O_2  and  C_3
REMARK    3  A    between atoms: C_6  and  C_7
REMARK    4  A    between atoms: N_11  and  C_12
REMARK    5  A    between atoms: C_16  and  C_17
REMARK    6  A    between atoms: C_17  and  O_19
REMARK    7  A    between atoms: N_21  and  C_22
REMARK                            x       y       z     vdW  Elec       q    Type
REMARK                         _______ _______ _______ _____ _____    ______ ____
ROOT
ATOM      1  C   UNL     1       1.909   6.511  20.381  0.00  0.00    +0.000 C 
ATOM      2  C   UNL     1       2.650   5.518  19.855  0.00  0.00    +0.000 C 
ATOM      3  S   UNL     1       3.488   5.565  18.392  0.00  0.00    +0.000 S 
ATOM      4  C   UNL     1       4.173   3.959  18.605  0.00  0.00    +0.000 C 
ATOM      5  N   UNL     1       5.048   3.357  17.865  0.00  0.00    +0.000 NA
ATOM      6  N   UNL     1       3.630   3.387  19.716  0.00  0.00    +0.000 N 
ATOM      7  C   UNL     1       3.893   2.022  20.122  0.00  0.00    +0.000 C 
ATOM      8  C   UNL     1       2.788   4.172  20.479  0.00  0.00    +0.000 C 
ATOM      9  O   UNL     1       2.224   3.850  21.511  0.00  0.00    +0.000 OA
ENDROOT
BRANCH   1  13
ATOM     10  C   UNL     1       1.421  10.391  18.637  0.00  0.00    +0.000 A 
ATOM     11  C   UNL     1       0.946  10.125  19.924  0.00  0.00    +0.000 A 
ATOM     12  C   UNL     1       1.111   8.862  20.496  0.00  0.00    +0.000 A 
ATOM     13  C   UNL     1       1.725   7.836  19.773  0.00  0.00    +0.000 A 
ATOM     14  C   UNL     1       2.165   8.091  18.471  0.00  0.00    +0.000 A 
ATOM     15  C   UNL     1       2.019   9.364  17.908  0.00  0.00    +0.000 A 
BRANCH  10  17
ATOM     16  C   UNL     1       0.889  12.623  19.198  0.00  0.00    +0.000 C 
ATOM     17  O   UNL     1       1.235  11.672  18.194  0.00  0.00    +0.000 OA
ENDBRANCH  10  17
ENDBRANCH   1  13
BRANCH   5  18
ATOM     18  C   UNL     1       5.655   3.964  16.752  0.00  0.00    +0.000 A 
ATOM     19  C   UNL     1       6.493   5.064  16.951  0.00  0.00    +0.000 A 
ATOM     20  C   UNL     1       7.084   5.701  15.857  0.00  0.00    +0.000 A 
ATOM     21  C   UNL     1       6.857   5.227  14.563  0.00  0.00    +0.000 A 
ATOM     22  C   UNL     1       6.023   4.137  14.351  0.00  0.00    +0.000 A 
ATOM     23  C   UNL     1       5.391   3.559  15.434  0.00  0.00    +0.000 A 
BRANCH  22  24
ATOM     24  C   UNL     1       5.788   3.677  12.944  0.00  0.00    +0.000 C 
ATOM     25  O   UNL     1       4.670   3.538  12.521  0.00  0.00    +0.000 OA
BRANCH  24  26
ATOM     26  O   UNL     1       6.889   3.503  12.193  0.00  0.00    +0.000 OA
ATOM     27  H   UNL     1       7.652   4.082  12.332  0.00  0.00    +0.000 HD
ENDBRANCH  24  26
ENDBRANCH  22  24
ENDBRANCH   5  18
TORSDOF 5
ENDMDL
MODEL 6
REMARK VINA RESULT:      -6.8      4.535      9.066
REMARK  Name = 
REMARK  7 active torsions:
REMARK  status: ('A' for Active; 'I' for Inactive)
REMARK    1  A    between atoms: C_1  and  O_2
REMARK    2  A    between atoms: O_2  and  C_3
REMARK    3  A    between atoms: C_6  and  C_7
REMARK    4  A    between atoms: N_11  and  C_12
REMARK    5  A    between atoms: C_16  and  C_17
REMARK    6  A    between atoms: C_17  and  O_19
REMARK    7  A    between atoms: N_21  and  C_22
REMARK                            x       y       z     vdW  Elec       q    Type
REMARK                         _______ _______ _______ _____ _____    ______ ____
ROOT
ATOM      1  C   UNL     1       1.782   7.465  21.065  0.00  0.00    +0.000 C 
ATOM      2  C   UNL     1       1.054   8.587  20.919  0.00  0.00    +0.000 C 
ATOM      3  S   UNL     1       0.074   8.978  19.602  0.00  0.00    +0.000 S 
ATOM      4  C   UNL     1      -0.490  10.479  20.325  0.00  0.00    +0.000 C 
ATOM      5  N   UNL     1      -1.396  11.290  19.881  0.00  0.00    +0.000 NA
ATOM      6  N   UNL     1       0.193  10.700  21.483  0.00  0.00    +0.000 N 
ATOM      7  C   UNL     1       0.053  11.903  22.277  0.00  0.00    +0.000 C 
ATOM      8  C   UNL     1       1.059   9.708  21.901  0.00  0.00    +0.000 C 
ATOM      9  O   UNL     1       1.739   9.711  22.913  0.00  0.00    +0.000 OA
ENDROOT
BRANCH   1  13
ATOM     10  C   UNL     1       1.858   4.257  18.230  0.00  0.00    +0.000 A 
ATOM     11  C   UNL     1       1.270   4.083  19.486  0.00  0.00    +0.000 A 
ATOM     12  C   UNL     1       1.239   5.130  20.408  0.00  0.00    +0.000 A 
ATOM     13  C   UNL     1       1.827   6.359  20.098  0.00  0.00    +0.000 A 
ATOM     14  C   UNL     1       2.449   6.521  18.857  0.00  0.00    +0.000 A 
ATOM     15  C   UNL     1       2.459   5.478  17.925  0.00  0.00    +0.000 A 
BRANCH  10  17
ATOM     16  C   UNL     1       2.805   2.187  17.600  0.00  0.00    +0.000 C 
ATOM     17  O   UNL     1       1.797   3.173  17.397  0.00  0.00    +0.000 OA
ENDBRANCH  10  17
ENDBRANCH   1  13
BRANCH   5  18
ATOM     18  C   UNL     1      -2.144  11.038  18.719  0.00  0.00    +0.000 A 
ATOM     19  C   UNL     1      -1.559  10.315  17.677  0.00  0.00    +0.000 A 
ATOM     20  C   UNL     1      -2.274  10.078  16.501  0.00  0.00    +0.000 A 
ATOM     21  C   UNL     1      -3.584  10.543  16.371  0.00  0.00    +0.000 A 
ATOM     22  C   UNL     1      -4.177  11.267  17.397  0.00  0.00    +0.000 A 
ATOM     23  C   UNL     1      -3.437  11.553  18.527  0.00  0.00    +0.000 A 
BRANCH  22  24
ATOM     24  C   UNL     1      -5.577  11.768  17.206  0.00  0.00    +0.000 C 
ATOM     25  O   UNL     1      -5.790  12.773  16.580  0.00  0.00    +0.000 OA
BRANCH  24  26
ATOM     26  O   UNL     1      -6.551  10.993  17.714  0.00  0.00    +0.000 OA
ATOM     27  H   UNL     1      -6.426  10.586  18.582  0.00  0.00    +0.000 HD
ENDBRANCH  24  26
ENDBRANCH  22  24
ENDBRANCH   5  18
TORSDOF 5
ENDMDL
MODEL 7
REMARK VINA RESULT:      -6.7      3.998      6.385
REMARK  Name = 
REMARK  7 active torsions:
REMARK  status: ('A' for Active; 'I' for Inactive)
REMARK    1  A    between atoms: C_1  and  O_2
REMARK    2  A    between atoms: O_2  and  C_3
REMARK    3  A    between atoms: C_6  and  C_7
REMARK    4  A    between atoms: N_11  and  C_12
REMARK    5  A    between atoms: C_16  and  C_17
REMARK    6  A    between atoms: C_17  and  O_19
REMARK    7  A    between atoms: N_21  and  C_22
REMARK                            x       y       z     vdW  Elec       q    Type
REMARK                         _______ _______ _______ _____ _____    ______ ____
ROOT
ATOM      1  C   UNL     1      -1.376  11.239  19.826  0.00  0.00    +0.000 C 
ATOM      2  C   UNL     1      -0.499  10.363  20.351  0.00  0.00    +0.000 C 
ATOM      3  S   UNL     1      -0.070   8.867  19.699  0.00  0.00    +0.000 S 
ATOM      4  C   UNL     1       1.115   8.534  20.955  0.00  0.00    +0.000 C 
ATOM      5  N   UNL     1       1.944   7.543  21.031  0.00  0.00    +0.000 NA
ATOM      6  N   UNL     1       1.045   9.510  21.904  0.00  0.00    +0.000 N 
ATOM      7  C   UNL     1       1.808   9.485  23.134  0.00  0.00    +0.000 C 
ATOM      8  C   UNL     1       0.193  10.568  21.654  0.00  0.00    +0.000 C 
ATOM      9  O   UNL     1       0.007  11.540  22.367  0.00  0.00    +0.000 OA
ENDROOT
BRANCH   1  13
ATOM     10  C   UNL     1      -3.505  10.632  16.161  0.00  0.00    +0.000 A 
ATOM     11  C   UNL     1      -2.217  10.115  16.330  0.00  0.00    +0.000 A 
ATOM     12  C   UNL     1      -1.525  10.307  17.527  0.00  0.00    +0.000 A 
ATOM     13  C   UNL     1      -2.100  11.049  18.562  0.00  0.00    +0.000 A 
ATOM     14  C   UNL     1      -3.372  11.598  18.379  0.00  0.00    +0.000 A 
ATOM     15  C   UNL     1      -4.074  11.385  17.187  0.00  0.00    +0.000 A 
BRANCH  10  17
ATOM     16  C   UNL     1      -3.209   9.996  13.905  0.00  0.00    +0.000 C 
ATOM     17  O   UNL     1      -4.098  10.350  14.961  0.00  0.00    +0.000 OA
ENDBRANCH  10  17
ENDBRANCH   1  13
BRANCH   5  18
ATOM     18  C   UNL     1       2.062   6.567  20.028  0.00  0.00    +0.000 A 
ATOM     19  C   UNL     1       2.624   6.919  18.798  0.00  0.00    +0.000 A 
ATOM     20  C   UNL     1       2.724   5.972  17.776  0.00  0.00    +0.000 A 
ATOM     21  C   UNL     1       2.283   4.664  17.987  0.00  0.00    +0.000 A 
ATOM     22  C   UNL     1       1.719   4.300  19.203  0.00  0.00    +0.000 A 
ATOM     23  C   UNL     1       1.563   5.263  20.181  0.00  0.00    +0.000 A 
BRANCH  22  24
ATOM     24  C   UNL     1       1.236   2.892  19.377  0.00  0.00    +0.000 C 
ATOM     25  O   UNL     1       1.979   1.962  19.204  0.00  0.00    +0.000 OA
BRANCH  24  26
ATOM     26  O   UNL     1      -0.033   2.756  19.797  0.00  0.00    +0.000 OA
ATOM     27  H   UNL     1      -0.670   2.292  19.236  0.00  0.00    +0.000 HD
ENDBRANCH  24  26
ENDBRANCH  22  24
ENDBRANCH   5  18
TORSDOF 5
ENDMDL
MODEL 8
REMARK VINA RESULT:      -6.7      4.513      9.057
REMARK  Name = 
REMARK  7 active torsions:
REMARK  status: ('A' for Active; 'I' for Inactive)
REMARK    1  A    between atoms: C_1  and  O_2
REMARK    2  A    between atoms: O_2  and  C_3
REMARK    3  A    between atoms: C_6  and  C_7
REMARK    4  A    between atoms: N_11  and  C_12
REMARK    5  A    between atoms: C_16  and  C_17
REMARK    6  A    between atoms: C_17  and  O_19
REMARK    7  A    between atoms: N_21  and  C_22
REMARK                            x       y       z     vdW  Elec       q    Type
REMARK                         _______ _______ _______ _____ _____    ______ ____
ROOT
ATOM      1  C   UNL     1       1.812   7.410  21.022  0.00  0.00    +0.000 C 
ATOM      2  C   UNL     1       1.111   8.545  20.844  0.00  0.00    +0.000 C 
ATOM      3  S   UNL     1       0.086   8.893  19.550  0.00  0.00    +0.000 S 
ATOM      4  C   UNL     1      -0.402  10.449  20.210  0.00  0.00    +0.000 C 
ATOM      5  N   UNL     1      -1.303  11.262  19.760  0.00  0.00    +0.000 NA
ATOM      6  N   UNL     1       0.337  10.711  21.325  0.00  0.00    +0.000 N 
ATOM      7  C   UNL     1       0.267  11.960  22.055  0.00  0.00    +0.000 C 
ATOM      8  C   UNL     1       1.190   9.716  21.761  0.00  0.00    +0.000 C 
ATOM      9  O   UNL     1       1.914   9.753  22.742  0.00  0.00    +0.000 OA
ENDROOT
BRANCH   1  13
ATOM     10  C   UNL     1       1.780   4.021  18.405  0.00  0.00    +0.000 A 
ATOM     11  C   UNL     1       2.393   5.215  18.015  0.00  0.00    +0.000 A 
ATOM     12  C   UNL     1       2.409   6.318  18.870  0.00  0.00    +0.000 A 
ATOM     13  C   UNL     1       1.782   6.252  20.118  0.00  0.00    +0.000 A 
ATOM     14  C   UNL     1       1.136   5.070  20.491  0.00  0.00    +0.000 A 
ATOM     15  C   UNL     1       1.140   3.958  19.642  0.00  0.00    +0.000 A 
BRANCH  10  17
ATOM     16  C   UNL     1       2.941   2.092  17.690  0.00  0.00    +0.000 C 
ATOM     17  O   UNL     1       1.858   2.998  17.500  0.00  0.00    +0.000 OA
ENDBRANCH  10  17
ENDBRANCH   1  13
BRANCH   5  18
ATOM     18  C   UNL     1      -2.108  10.971  18.647  0.00  0.00    +0.000 A 
ATOM     19  C   UNL     1      -1.534  10.342  17.539  0.00  0.00    +0.000 A 
ATOM     20  C   UNL     1      -2.309  10.069  16.409  0.00  0.00    +0.000 A 
ATOM     21  C   UNL     1      -3.665  10.403  16.391  0.00  0.00    +0.000 A 
ATOM     22  C   UNL     1      -4.247  11.033  17.483  0.00  0.00    +0.000 A 
ATOM     23  C   UNL     1      -3.455  11.359  18.567  0.00  0.00    +0.000 A 
BRANCH  22  24
ATOM     24  C   UNL     1      -5.700  11.396  17.412  0.00  0.00    +0.000 C 
ATOM     25  O   UNL     1      -6.512  10.819  18.086  0.00  0.00    +0.000 OA
BRANCH  24  26
ATOM     26  O   UNL     1      -6.005  12.432  16.611  0.00  0.00    +0.000 OA
ATOM     27  H   UNL     1      -6.565  12.282  15.837  0.00  0.00    +0.000 HD
ENDBRANCH  24  26
ENDBRANCH  22  24
ENDBRANCH   5  18
TORSDOF 5
ENDMDL
MODEL 9
REMARK VINA RESULT:      -6.6      4.049      6.477
REMARK  Name = 
REMARK  7 active torsions:
REMARK  status: ('A' for Active; 'I' for Inactive)
REMARK    1  A    between atoms: C_1  and  O_2
REMARK    2  A    between atoms: O_2  and  C_3
REMARK    3  A    between atoms: C_6  and  C_7
REMARK    4  A    between atoms: N_11  and  C_12
REMARK    5  A    between atoms: C_16  and  C_17
REMARK    6  A    between atoms: C_17  and  O_19
REMARK    7  A    between atoms: N_21  and  C_22
REMARK                            x       y       z     vdW  Elec       q    Type
REMARK                         _______ _______ _______ _____ _____    ______ ____
ROOT
ATOM      1  C   UNL     1      -1.317  11.227  19.680  0.00  0.00    +0.000 C 
ATOM      2  C   UNL     1      -0.445  10.369  20.240  0.00  0.00    +0.000 C 
ATOM      3  S   UNL     1      -0.037   8.838  19.659  0.00  0.00    +0.000 S 
ATOM      4  C   UNL     1       1.155   8.554  20.920  0.00  0.00    +0.000 C 
ATOM      5  N   UNL     1       1.975   7.559  21.037  0.00  0.00    +0.000 NA
ATOM      6  N   UNL     1       1.103   9.576  21.821  0.00  0.00    +0.000 N 
ATOM      7  C   UNL     1       1.877   9.603  23.044  0.00  0.00    +0.000 C 
ATOM      8  C   UNL     1       0.260  10.630  21.526  0.00  0.00    +0.000 C 
ATOM      9  O   UNL     1       0.091  11.637  22.192  0.00  0.00    +0.000 OA
ENDROOT
BRANCH   1  13
ATOM     10  C   UNL     1      -3.444  10.568  16.023  0.00  0.00    +0.000 A 
ATOM     11  C   UNL     1      -3.986  11.379  17.024  0.00  0.00    +0.000 A 
ATOM     12  C   UNL     1      -3.290  11.599  18.214  0.00  0.00    +0.000 A 
ATOM     13  C   UNL     1      -2.054  10.983  18.433  0.00  0.00    +0.000 A 
ATOM     14  C   UNL     1      -1.531  10.142  17.447  0.00  0.00    +0.000 A 
ATOM     15  C   UNL     1      -2.219   9.941  16.245  0.00  0.00    +0.000 A 
BRANCH  10  17
ATOM     16  C   UNL     1      -3.500  10.003  13.730  0.00  0.00    +0.000 C 
ATOM     17  O   UNL     1      -4.199  10.454  14.887  0.00  0.00    +0.000 OA
ENDBRANCH  10  17
ENDBRANCH   1  13
BRANCH   5  18
ATOM     18  C   UNL     1       2.074   6.534  20.082  0.00  0.00    +0.000 A 
ATOM     19  C   UNL     1       2.733   6.789  18.876  0.00  0.00    +0.000 A 
ATOM     20  C   UNL     1       2.818   5.794  17.901  0.00  0.00    +0.000 A 
ATOM     21  C   UNL     1       2.265   4.533  18.135  0.00  0.00    +0.000 A 
ATOM     22  C   UNL     1       1.603   4.266  19.327  0.00  0.00    +0.000 A 
ATOM     23  C   UNL     1       1.467   5.280  20.255  0.00  0.00    +0.000 A 
BRANCH  22  24
ATOM     24  C   UNL     1       1.003   2.907  19.526  0.00  0.00    +0.000 C 
ATOM     25  O   UNL     1       0.984   2.106  18.629  0.00  0.00    +0.000 OA
BRANCH  24  26
ATOM     26  O   UNL     1       0.564   2.638  20.768  0.00  0.00    +0.000 OA
ATOM     27  H   UNL     1      -0.245   3.064  21.086  0.00  0.00    +0.000 HD
ENDBRANCH  24  26
ENDBRANCH  22  24
ENDBRANCH   5  18
TORSDOF 5
ENDMDL
